MODEL 1
REMARK VINA RESULT:    -8.582      0.000      0.000
REMARK INTER + INTRA:         -12.783
REMARK INTER:                 -11.843
REMARK INTRA:                  -0.940
REMARK UNBOUND:                -0.940
REMARK  Name = 
REMARK  8 active torsions:
REMARK  status: ('A' for Active; 'I' for Inactive)
REMARK    1  A    between atoms: C_1  and  C_2
REMARK    2  A    between atoms: C_2  and  O_3
REMARK    3  A    between atoms: C_5  and  O_6
REMARK    4  A    between atoms: O_6  and  C_7
REMARK    5  A    between atoms: C_9  and  C_10
REMARK    6  A    between atoms: C_10  and  C_13
REMARK    7  A    between atoms: C_13  and  N_14
REMARK    8  A    between atoms: C_19  and  C_20
REMARK                            x       y       z     vdW  Elec       q    Type
REMARK                         _______ _______ _______ _____ _____    ______ ____
ROOT
ATOM      1  C   UNL     1      46.845   5.619  13.569  0.00  0.00    +0.000 A 
ATOM      2  C   UNL     1      45.590   5.026  13.539  0.00  0.00    +0.000 A 
ATOM      3  C   UNL     1      44.647   5.474  12.598  0.00  0.00    +0.000 A 
ATOM      4  C   UNL     1      45.041   6.504  11.733  0.00  0.00    +0.000 A 
ATOM      5  C   UNL     1      46.320   7.027  11.841  0.00  0.00    +0.000 A 
ATOM      6  N   UNL     1      47.228   6.608  12.741  0.00  0.00    +0.000 NA
ENDROOT
BRANCH   3   7
ATOM      7  C   UNL     1      43.278   4.810  12.543  0.00  0.00    +0.000 C 
ATOM      8  F   UNL     1      43.074   4.051  13.662  0.00  0.00    +0.000 F 
ATOM      9  F   UNL     1      42.280   5.751  12.566  0.00  0.00    +0.000 F 
BRANCH   7  10
ATOM     10  C   UNL     1      43.039   3.912  11.296  0.00  0.00    +0.000 C 
BRANCH  10  11
ATOM     11  N   UNL     1      44.096   2.923  11.068  0.00  0.00    +0.000 N 
ATOM     12  C   UNL     1      44.743   2.995   9.849  0.00  0.00    +0.000 A 
ATOM     13  N   UNL     1      44.853   4.169   9.208  0.00  0.00    +0.000 NA
ATOM     14  C   UNL     1      45.577   4.196   8.074  0.00  0.00    +0.000 A 
ATOM     15  C   UNL     1      46.185   3.090   7.544  0.00  0.00    +0.000 A 
ATOM     16  C   UNL     1      45.979   1.926   8.250  0.00  0.00    +0.000 A 
ATOM     17  N   UNL     1      45.264   1.855   9.393  0.00  0.00    +0.000 NA
ATOM     18  H   UNL     1      43.861   1.956  11.264  0.00  0.00    +0.000 HD
BRANCH  16  19
ATOM     19  C   UNL     1      46.541   0.686   7.787  0.00  0.00    +0.000 C 
ATOM     20  N   UNL     1      47.001  -0.327   7.465  0.00  0.00    +0.000 NA
ENDBRANCH  16  19
ENDBRANCH  10  11
ENDBRANCH   7  10
ENDBRANCH   3   7
BRANCH   1  21
ATOM     21  O   UNL     1      47.747   5.161  14.515  0.00  0.00    +0.000 OA
BRANCH  21  25
ATOM     22  C   UNL     1      48.755   3.133  18.416  0.00  0.00    +0.000 C 
ATOM     23  C   UNL     1      47.633   3.332  17.410  0.00  0.00    +0.000 C 
ATOM     24  C   UNL     1      48.046   3.083  15.942  0.00  0.00    +0.000 C 
ATOM     25  C   UNL     1      47.183   4.306  15.539  0.00  0.00    +0.000 C 
ATOM     26  C   UNL     1      47.356   4.804  16.998  0.00  0.00    +0.000 C 
BRANCH  23  27
ATOM     27  O   UNL     1      46.466   2.604  17.854  0.00  0.00    +0.000 OA
ATOM     28  H   UNL     1      46.808   1.773  18.230  0.00  0.00    +0.000 HD
ENDBRANCH  23  27
ENDBRANCH  21  25
ENDBRANCH   1  21
TORSDOF 7
ENDMDL
MODEL 2
REMARK VINA RESULT:    -7.221      2.260      3.068
REMARK INTER + INTRA:         -10.905
REMARK INTER:                 -10.112
REMARK INTRA:                  -0.793
REMARK UNBOUND:                -0.940
REMARK  Name = 
REMARK  8 active torsions:
REMARK  status: ('A' for Active; 'I' for Inactive)
REMARK    1  A    between atoms: C_1  and  C_2
REMARK    2  A    between atoms: C_2  and  O_3
REMARK    3  A    between atoms: C_5  and  O_6
REMARK    4  A    between atoms: O_6  and  C_7
REMARK    5  A    between atoms: C_9  and  C_10
REMARK    6  A    between atoms: C_10  and  C_13
REMARK    7  A    between atoms: C_13  and  N_14
REMARK    8  A    between atoms: C_19  and  C_20
REMARK                            x       y       z     vdW  Elec       q    Type
REMARK                         _______ _______ _______ _____ _____    ______ ____
ROOT
ATOM      1  C   UNL     1      47.877   4.925  15.267  0.00  0.00    +0.000 A 
ATOM      2  C   UNL     1      47.533   5.917  14.358  0.00  0.00    +0.000 A 
ATOM      3  C   UNL     1      46.812   5.562  13.204  0.00  0.00    +0.000 A 
ATOM      4  C   UNL     1      46.478   4.211  13.044  0.00  0.00    +0.000 A 
ATOM      5  C   UNL     1      46.866   3.298  14.011  0.00  0.00    +0.000 A 
ATOM      6  N   UNL     1      47.560   3.625  15.117  0.00  0.00    +0.000 NA
ENDROOT
BRANCH   3   7
ATOM      7  C   UNL     1      46.409   6.649  12.217  0.00  0.00    +0.000 C 
ATOM      8  F   UNL     1      46.345   7.862  12.846  0.00  0.00    +0.000 F 
ATOM      9  F   UNL     1      47.365   6.803  11.246  0.00  0.00    +0.000 F 
BRANCH   7  10
ATOM     10  C   UNL     1      45.052   6.404  11.496  0.00  0.00    +0.000 C 
BRANCH  10  11
ATOM     11  N   UNL     1      45.179   6.205  10.050  0.00  0.00    +0.000 N 
ATOM     12  C   UNL     1      45.140   4.895   9.611  0.00  0.00    +0.000 A 
ATOM     13  N   UNL     1      44.452   3.970  10.299  0.00  0.00    +0.000 NA
ATOM     14  C   UNL     1      44.367   2.734   9.772  0.00  0.00    +0.000 A 
ATOM     15  C   UNL     1      44.957   2.380   8.589  0.00  0.00    +0.000 A 
ATOM     16  C   UNL     1      45.675   3.385   7.980  0.00  0.00    +0.000 A 
ATOM     17  N   UNL     1      45.782   4.638   8.471  0.00  0.00    +0.000 NA
ATOM     18  H   UNL     1      45.946   6.686   9.593  0.00  0.00    +0.000 HD
BRANCH  16  19
ATOM     19  C   UNL     1      46.366   3.137   6.743  0.00  0.00    +0.000 C 
ATOM     20  N   UNL     1      46.878   2.952   5.721  0.00  0.00    +0.000 NA
ENDBRANCH  16  19
ENDBRANCH  10  11
ENDBRANCH   7  10
ENDBRANCH   3   7
BRANCH   1  21
ATOM     21  O   UNL     1      48.595   5.306  16.388  0.00  0.00    +0.000 OA
BRANCH  21  25
ATOM     22  C   UNL     1      49.686   4.980  20.753  0.00  0.00    +0.000 C 
ATOM     23  C   UNL     1      48.892   4.299  19.649  0.00  0.00    +0.000 C 
ATOM     24  C   UNL     1      49.681   4.093  18.336  0.00  0.00    +0.000 C 
ATOM     25  C   UNL     1      48.395   4.476  17.558  0.00  0.00    +0.000 C 
ATOM     26  C   UNL     1      47.941   5.223  18.839  0.00  0.00    +0.000 C 
BRANCH  23  27
ATOM     27  O   UNL     1      48.264   3.111  20.183  0.00  0.00    +0.000 OA
ATOM     28  H   UNL     1      47.479   3.429  20.664  0.00  0.00    +0.000 HD
ENDBRANCH  23  27
ENDBRANCH  21  25
ENDBRANCH   1  21
TORSDOF 7
ENDMDL
MODEL 3
REMARK VINA RESULT:    -7.163      3.356      8.192
REMARK INTER + INTRA:         -10.824
REMARK INTER:                 -10.130
REMARK INTRA:                  -0.694
REMARK UNBOUND:                -0.940
REMARK  Name = 
REMARK  8 active torsions:
REMARK  status: ('A' for Active; 'I' for Inactive)
REMARK    1  A    between atoms: C_1  and  C_2
REMARK    2  A    between atoms: C_2  and  O_3
REMARK    3  A    between atoms: C_5  and  O_6
REMARK    4  A    between atoms: O_6  and  C_7
REMARK    5  A    between atoms: C_9  and  C_10
REMARK    6  A    between atoms: C_10  and  C_13
REMARK    7  A    between atoms: C_13  and  N_14
REMARK    8  A    between atoms: C_19  and  C_20
REMARK                            x       y       z     vdW  Elec       q    Type
REMARK                         _______ _______ _______ _____ _____    ______ ____
ROOT
ATOM      1  C   UNL     1      44.484   3.240  10.011  0.00  0.00    +0.000 A 
ATOM      2  C   UNL     1      45.287   4.238  10.548  0.00  0.00    +0.000 A 
ATOM      3  C   UNL     1      45.136   4.577  11.904  0.00  0.00    +0.000 A 
ATOM      4  C   UNL     1      44.173   3.874  12.639  0.00  0.00    +0.000 A 
ATOM      5  C   UNL     1      43.423   2.892  12.011  0.00  0.00    +0.000 A 
ATOM      6  N   UNL     1      43.557   2.562  10.713  0.00  0.00    +0.000 NA
ENDROOT
BRANCH   3   7
ATOM      7  C   UNL     1      46.031   5.652  12.505  0.00  0.00    +0.000 C 
ATOM      8  F   UNL     1      46.565   6.432  11.516  0.00  0.00    +0.000 F 
ATOM      9  F   UNL     1      45.301   6.514  13.282  0.00  0.00    +0.000 F 
BRANCH   7  10
ATOM     10  C   UNL     1      47.197   5.113  13.383  0.00  0.00    +0.000 C 
BRANCH  10  11
ATOM     11  N   UNL     1      46.902   5.107  14.818  0.00  0.00    +0.000 N 
ATOM     12  C   UNL     1      47.953   5.433  15.655  0.00  0.00    +0.000 A 
ATOM     13  N   UNL     1      48.926   6.254  15.233  0.00  0.00    +0.000 NA
ATOM     14  C   UNL     1      49.870   6.614  16.123  0.00  0.00    +0.000 A 
ATOM     15  C   UNL     1      49.887   6.172  17.419  0.00  0.00    +0.000 A 
ATOM     16  C   UNL     1      48.872   5.302  17.745  0.00  0.00    +0.000 A 
ATOM     17  N   UNL     1      47.904   4.918  16.885  0.00  0.00    +0.000 NA
ATOM     18  H   UNL     1      46.431   4.285  15.179  0.00  0.00    +0.000 HD
BRANCH  16  19
ATOM     19  C   UNL     1      48.790   4.742  19.067  0.00  0.00    +0.000 C 
ATOM     20  N   UNL     1      48.701   4.337  20.148  0.00  0.00    +0.000 NA
ENDBRANCH  16  19
ENDBRANCH  10  11
ENDBRANCH   7  10
ENDBRANCH   3   7
BRANCH   1  21
ATOM     21  O   UNL     1      44.652   2.936   8.671  0.00  0.00    +0.000 OA
BRANCH  21  25
ATOM     22  C   UNL     1      47.164   2.465   4.953  0.00  0.00    +0.000 C 
ATOM     23  C   UNL     1      47.254   2.678   6.456  0.00  0.00    +0.000 C 
ATOM     24  C   UNL     1      46.388   1.705   7.288  0.00  0.00    +0.000 C 
ATOM     25  C   UNL     1      46.027   2.892   8.217  0.00  0.00    +0.000 C 
ATOM     26  C   UNL     1      46.370   3.823   7.024  0.00  0.00    +0.000 C 
BRANCH  23  27
ATOM     27  O   UNL     1      48.646   2.748   6.841  0.00  0.00    +0.000 OA
ATOM     28  H   UNL     1      49.136   2.890   6.012  0.00  0.00    +0.000 HD
ENDBRANCH  23  27
ENDBRANCH  21  25
ENDBRANCH   1  21
TORSDOF 7
ENDMDL
MODEL 4
REMARK VINA RESULT:    -7.093      2.469      4.033
REMARK INTER + INTRA:         -10.728
REMARK INTER:                 -10.112
REMARK INTRA:                  -0.616
REMARK UNBOUND:                -0.940
REMARK  Name = 
REMARK  8 active torsions:
REMARK  status: ('A' for Active; 'I' for Inactive)
REMARK    1  A    between atoms: C_1  and  C_2
REMARK    2  A    between atoms: C_2  and  O_3
REMARK    3  A    between atoms: C_5  and  O_6
REMARK    4  A    between atoms: O_6  and  C_7
REMARK    5  A    between atoms: C_9  and  C_10
REMARK    6  A    between atoms: C_10  and  C_13
REMARK    7  A    between atoms: C_13  and  N_14
REMARK    8  A    between atoms: C_19  and  C_20
REMARK                            x       y       z     vdW  Elec       q    Type
REMARK                         _______ _______ _______ _____ _____    ______ ____
ROOT
ATOM      1  C   UNL     1      47.114   6.536  13.201  0.00  0.00    +0.000 A 
ATOM      2  C   UNL     1      45.927   6.614  12.483  0.00  0.00    +0.000 A 
ATOM      3  C   UNL     1      45.032   5.531  12.528  0.00  0.00    +0.000 A 
ATOM      4  C   UNL     1      45.397   4.427  13.309  0.00  0.00    +0.000 A 
ATOM      5  C   UNL     1      46.603   4.447  13.991  0.00  0.00    +0.000 A 
ATOM      6  N   UNL     1      47.469   5.477  13.952  0.00  0.00    +0.000 NA
ENDROOT
BRANCH   3   7
ATOM      7  C   UNL     1      43.718   5.622  11.764  0.00  0.00    +0.000 C 
ATOM      8  F   UNL     1      42.689   5.152  12.533  0.00  0.00    +0.000 F 
ATOM      9  F   UNL     1      43.397   6.929  11.502  0.00  0.00    +0.000 F 
BRANCH   7  10
ATOM     10  C   UNL     1      43.699   4.859  10.408  0.00  0.00    +0.000 C 
BRANCH  10  11
ATOM     11  N   UNL     1      44.506   3.636  10.407  0.00  0.00    +0.000 N 
ATOM     12  C   UNL     1      45.256   3.405   9.269  0.00  0.00    +0.000 A 
ATOM     13  N   UNL     1      45.698   4.433   8.528  0.00  0.00    +0.000 NA
ATOM     14  C   UNL     1      46.505   4.151   7.488  0.00  0.00    +0.000 A 
ATOM     15  C   UNL     1      46.876   2.877   7.148  0.00  0.00    +0.000 A 
ATOM     16  C   UNL     1      46.338   1.890   7.942  0.00  0.00    +0.000 A 
ATOM     17  N   UNL     1      45.529   2.128   8.996  0.00  0.00    +0.000 NA
ATOM     18  H   UNL     1      44.031   2.781  10.673  0.00  0.00    +0.000 HD
BRANCH  16  19
ATOM     19  C   UNL     1      46.627   0.506   7.677  0.00  0.00    +0.000 C 
ATOM     20  N   UNL     1      46.866  -0.616   7.516  0.00  0.00    +0.000 NA
ENDBRANCH  16  19
ENDBRANCH  10  11
ENDBRANCH   7  10
ENDBRANCH   3   7
BRANCH   1  21
ATOM     21  O   UNL     1      47.978   7.615  13.127  0.00  0.00    +0.000 OA
BRANCH  21  25
ATOM     22  C   UNL     1      51.503   9.572  11.103  0.00  0.00    +0.000 C 
ATOM     23  C   UNL     1      50.982   8.233  11.601  0.00  0.00    +0.000 C 
ATOM     24  C   UNL     1      49.542   7.904  11.149  0.00  0.00    +0.000 C 
ATOM     25  C   UNL     1      49.279   7.324  12.562  0.00  0.00    +0.000 C 
ATOM     26  C   UNL     1      50.442   8.223  13.057  0.00  0.00    +0.000 C 
BRANCH  23  27
ATOM     27  O   UNL     1      51.965   7.210  11.319  0.00  0.00    +0.000 OA
ATOM     28  H   UNL     1      51.464   6.375  11.278  0.00  0.00    +0.000 HD
ENDBRANCH  23  27
ENDBRANCH  21  25
ENDBRANCH   1  21
TORSDOF 7
ENDMDL
MODEL 5
REMARK VINA RESULT:    -6.972      1.682      2.240
REMARK INTER + INTRA:         -10.561
REMARK INTER:                  -9.765
REMARK INTRA:                  -0.796
REMARK UNBOUND:                -0.940
REMARK  Name = 
REMARK  8 active torsions:
REMARK  status: ('A' for Active; 'I' for Inactive)
REMARK    1  A    between atoms: C_1  and  C_2
REMARK    2  A    between atoms: C_2  and  O_3
REMARK    3  A    between atoms: C_5  and  O_6
REMARK    4  A    between atoms: O_6  and  C_7
REMARK    5  A    between atoms: C_9  and  C_10
REMARK    6  A    between atoms: C_10  and  C_13
REMARK    7  A    between atoms: C_13  and  N_14
REMARK    8  A    between atoms: C_19  and  C_20
REMARK                            x       y       z     vdW  Elec       q    Type
REMARK                         _______ _______ _______ _____ _____    ______ ____
ROOT
ATOM      1  C   UNL     1      48.445   6.411  14.115  0.00  0.00    +0.000 A 
ATOM      2  C   UNL     1      47.101   6.349  13.771  0.00  0.00    +0.000 A 
ATOM      3  C   UNL     1      46.698   6.821  12.509  0.00  0.00    +0.000 A 
ATOM      4  C   UNL     1      47.694   7.329  11.665  0.00  0.00    +0.000 A 
ATOM      5  C   UNL     1      49.009   7.345  12.100  0.00  0.00    +0.000 A 
ATOM      6  N   UNL     1      49.405   6.899  13.307  0.00  0.00    +0.000 NA
ENDROOT
BRANCH   3   7
ATOM      7  C   UNL     1      45.230   6.732  12.117  0.00  0.00    +0.000 C 
ATOM      8  F   UNL     1      44.433   6.914  13.213  0.00  0.00    +0.000 F 
ATOM      9  F   UNL     1      44.892   7.748  11.260  0.00  0.00    +0.000 F 
BRANCH   7  10
ATOM     10  C   UNL     1      44.818   5.395  11.434  0.00  0.00    +0.000 C 
BRANCH  10  11
ATOM     11  N   UNL     1      44.945   5.415   9.974  0.00  0.00    +0.000 N 
ATOM     12  C   UNL     1      45.172   4.194   9.367  0.00  0.00    +0.000 A 
ATOM     13  N   UNL     1      44.715   3.063   9.929  0.00  0.00    +0.000 NA
ATOM     14  C   UNL     1      44.880   1.916   9.244  0.00  0.00    +0.000 A 
ATOM     15  C   UNL     1      45.499   1.851   8.025  0.00  0.00    +0.000 A 
ATOM     16  C   UNL     1      45.970   3.054   7.553  0.00  0.00    +0.000 A 
ATOM     17  N   UNL     1      45.822   4.228   8.204  0.00  0.00    +0.000 NA
ATOM     18  H   UNL     1      45.579   6.104   9.585  0.00  0.00    +0.000 HD
BRANCH  16  19
ATOM     19  C   UNL     1      46.663   3.121   6.295  0.00  0.00    +0.000 C 
ATOM     20  N   UNL     1      47.177   3.159   5.257  0.00  0.00    +0.000 NA
ENDBRANCH  16  19
ENDBRANCH  10  11
ENDBRANCH   7  10
ENDBRANCH   3   7
BRANCH   1  21
ATOM     21  O   UNL     1      48.807   5.948  15.368  0.00  0.00    +0.000 OA
BRANCH  21  25
ATOM     22  C   UNL     1      48.383   3.093  18.836  0.00  0.00    +0.000 C 
ATOM     23  C   UNL     1      47.659   3.624  17.609  0.00  0.00    +0.000 C 
ATOM     24  C   UNL     1      48.506   3.612  16.317  0.00  0.00    +0.000 C 
ATOM     25  C   UNL     1      47.893   4.990  15.957  0.00  0.00    +0.000 C 
ATOM     26  C   UNL     1      47.617   5.171  17.472  0.00  0.00    +0.000 C 
BRANCH  23  27
ATOM     27  O   UNL     1      46.369   2.978  17.506  0.00  0.00    +0.000 OA
ATOM     28  H   UNL     1      45.889   3.469  16.816  0.00  0.00    +0.000 HD
ENDBRANCH  23  27
ENDBRANCH  21  25
ENDBRANCH   1  21
TORSDOF 7
ENDMDL
MODEL 6
REMARK VINA RESULT:    -6.623      3.252      3.906
REMARK INTER + INTRA:         -10.080
REMARK INTER:                  -9.401
REMARK INTRA:                  -0.678
REMARK UNBOUND:                -0.940
REMARK  Name = 
REMARK  8 active torsions:
REMARK  status: ('A' for Active; 'I' for Inactive)
REMARK    1  A    between atoms: C_1  and  C_2
REMARK    2  A    between atoms: C_2  and  O_3
REMARK    3  A    between atoms: C_5  and  O_6
REMARK    4  A    between atoms: O_6  and  C_7
REMARK    5  A    between atoms: C_9  and  C_10
REMARK    6  A    between atoms: C_10  and  C_13
REMARK    7  A    between atoms: C_13  and  N_14
REMARK    8  A    between atoms: C_19  and  C_20
REMARK                            x       y       z     vdW  Elec       q    Type
REMARK                         _______ _______ _______ _____ _____    ______ ____
ROOT
ATOM      1  C   UNL     1      45.886   8.433  12.801  0.00  0.00    +0.000 A 
ATOM      2  C   UNL     1      45.279   7.189  12.689  0.00  0.00    +0.000 A 
ATOM      3  C   UNL     1      44.197   7.036  11.805  0.00  0.00    +0.000 A 
ATOM      4  C   UNL     1      43.795   8.164  11.078  0.00  0.00    +0.000 A 
ATOM      5  C   UNL     1      44.469   9.362  11.259  0.00  0.00    +0.000 A 
ATOM      6  N   UNL     1      45.503   9.521  12.105  0.00  0.00    +0.000 NA
ENDROOT
BRANCH   3   7
ATOM      7  C   UNL     1      43.545   5.668  11.659  0.00  0.00    +0.000 C 
ATOM      8  F   UNL     1      44.001   4.819  12.629  0.00  0.00    +0.000 F 
ATOM      9  F   UNL     1      42.192   5.750  11.867  0.00  0.00    +0.000 F 
BRANCH   7  10
ATOM     10  C   UNL     1      43.760   4.987  10.277  0.00  0.00    +0.000 C 
BRANCH  10  11
ATOM     11  N   UNL     1      44.549   3.754  10.342  0.00  0.00    +0.000 N 
ATOM     12  C   UNL     1      45.285   3.443   9.214  0.00  0.00    +0.000 A 
ATOM     13  N   UNL     1      45.736   4.418   8.410  0.00  0.00    +0.000 NA
ATOM     14  C   UNL     1      46.529   4.062   7.382  0.00  0.00    +0.000 A 
ATOM     15  C   UNL     1      46.878   2.765   7.117  0.00  0.00    +0.000 A 
ATOM     16  C   UNL     1      46.332   1.835   7.971  0.00  0.00    +0.000 A 
ATOM     17  N   UNL     1      45.536   2.149   9.016  0.00  0.00    +0.000 NA
ATOM     18  H   UNL     1      44.063   2.923  10.663  0.00  0.00    +0.000 HD
BRANCH  16  19
ATOM     19  C   UNL     1      46.598   0.434   7.787  0.00  0.00    +0.000 C 
ATOM     20  N   UNL     1      46.840  -0.682   7.594  0.00  0.00    +0.000 NA
ENDBRANCH  16  19
ENDBRANCH  10  11
ENDBRANCH   7  10
ENDBRANCH   3   7
BRANCH   1  21
ATOM     21  O   UNL     1      46.942   8.553  13.688  0.00  0.00    +0.000 OA
BRANCH  21  25
ATOM     22  C   UNL     1      50.703   9.626  11.439  0.00  0.00    +0.000 C 
ATOM     23  C   UNL     1      50.010   8.483  12.164  0.00  0.00    +0.000 C 
ATOM     24  C   UNL     1      48.541   8.259  11.739  0.00  0.00    +0.000 C 
ATOM     25  C   UNL     1      48.197   7.997  13.228  0.00  0.00    +0.000 C 
ATOM     26  C   UNL     1      49.464   8.820  13.580  0.00  0.00    +0.000 C 
BRANCH  23  27
ATOM     27  O   UNL     1      50.853   7.310  12.110  0.00  0.00    +0.000 OA
ATOM     28  H   UNL     1      51.570   7.536  11.491  0.00  0.00    +0.000 HD
ENDBRANCH  23  27
ENDBRANCH  21  25
ENDBRANCH   1  21
TORSDOF 7
ENDMDL
MODEL 7
REMARK VINA RESULT:    -6.560      3.486      8.028
REMARK INTER + INTRA:          -9.993
REMARK INTER:                  -9.385
REMARK INTRA:                  -0.608
REMARK UNBOUND:                -0.940
REMARK  Name = 
REMARK  8 active torsions:
REMARK  status: ('A' for Active; 'I' for Inactive)
REMARK    1  A    between atoms: C_1  and  C_2
REMARK    2  A    between atoms: C_2  and  O_3
REMARK    3  A    between atoms: C_5  and  O_6
REMARK    4  A    between atoms: O_6  and  C_7
REMARK    5  A    between atoms: C_9  and  C_10
REMARK    6  A    between atoms: C_10  and  C_13
REMARK    7  A    between atoms: C_13  and  N_14
REMARK    8  A    between atoms: C_19  and  C_20
REMARK                            x       y       z     vdW  Elec       q    Type
REMARK                         _______ _______ _______ _____ _____    ______ ____
ROOT
ATOM      1  C   UNL     1      44.493   3.045  10.363  0.00  0.00    +0.000 A 
ATOM      2  C   UNL     1      45.265   4.165  10.643  0.00  0.00    +0.000 A 
ATOM      3  C   UNL     1      44.999   4.899  11.812  0.00  0.00    +0.000 A 
ATOM      4  C   UNL     1      43.959   4.446  12.634  0.00  0.00    +0.000 A 
ATOM      5  C   UNL     1      43.249   3.314  12.267  0.00  0.00    +0.000 A 
ATOM      6  N   UNL     1      43.493   2.606  11.149  0.00  0.00    +0.000 NA
ENDROOT
BRANCH   3   7
ATOM      7  C   UNL     1      45.858   6.113  12.138  0.00  0.00    +0.000 C 
ATOM      8  F   UNL     1      46.444   6.599  11.002  0.00  0.00    +0.000 F 
ATOM      9  F   UNL     1      45.085   7.144  12.608  0.00  0.00    +0.000 F 
BRANCH   7  10
ATOM     10  C   UNL     1      46.976   5.857  13.190  0.00  0.00    +0.000 C 
BRANCH  10  11
ATOM     11  N   UNL     1      48.291   6.366  12.790  0.00  0.00    +0.000 N 
ATOM     12  C   UNL     1      49.092   6.847  13.809  0.00  0.00    +0.000 A 
ATOM     13  N   UNL     1      48.977   6.353  15.051  0.00  0.00    +0.000 NA
ATOM     14  C   UNL     1      49.849   6.789  15.979  0.00  0.00    +0.000 A 
ATOM     15  C   UNL     1      50.824   7.714  15.718  0.00  0.00    +0.000 A 
ATOM     16  C   UNL     1      50.834   8.192  14.428  0.00  0.00    +0.000 A 
ATOM     17  N   UNL     1      49.982   7.779  13.465  0.00  0.00    +0.000 NA
ATOM     18  H   UNL     1      48.306   7.021  12.016  0.00  0.00    +0.000 HD
BRANCH  16  19
ATOM     19  C   UNL     1      51.792   9.187  14.028  0.00  0.00    +0.000 C 
ATOM     20  N   UNL     1      52.522  10.019  13.687  0.00  0.00    +0.000 NA
ENDBRANCH  16  19
ENDBRANCH  10  11
ENDBRANCH   7  10
ENDBRANCH   3   7
BRANCH   1  21
ATOM     21  O   UNL     1      44.774   2.350   9.199  0.00  0.00    +0.000 OA
BRANCH  21  25
ATOM     22  C   UNL     1      46.840   2.379   5.188  0.00  0.00    +0.000 C 
ATOM     23  C   UNL     1      47.035   2.737   6.653  0.00  0.00    +0.000 C 
ATOM     24  C   UNL     1      46.637   1.615   7.639  0.00  0.00    +0.000 C 
ATOM     25  C   UNL     1      46.025   2.703   8.558  0.00  0.00    +0.000 C 
ATOM     26  C   UNL     1      45.903   3.589   7.291  0.00  0.00    +0.000 C 
BRANCH  23  27
ATOM     27  O   UNL     1      48.365   3.274   6.835  0.00  0.00    +0.000 OA
ATOM     28  H   UNL     1      48.301   4.212   6.579  0.00  0.00    +0.000 HD
ENDBRANCH  23  27
ENDBRANCH  21  25
ENDBRANCH   1  21
TORSDOF 7
ENDMDL
MODEL 8
REMARK VINA RESULT:    -6.535      2.673      3.756
REMARK INTER + INTRA:          -9.957
REMARK INTER:                  -9.153
REMARK INTRA:                  -0.804
REMARK UNBOUND:                -0.940
REMARK  Name = 
REMARK  8 active torsions:
REMARK  status: ('A' for Active; 'I' for Inactive)
REMARK    1  A    between atoms: C_1  and  C_2
REMARK    2  A    between atoms: C_2  and  O_3
REMARK    3  A    between atoms: C_5  and  O_6
REMARK    4  A    between atoms: O_6  and  C_7
REMARK    5  A    between atoms: C_9  and  C_10
REMARK    6  A    between atoms: C_10  and  C_13
REMARK    7  A    between atoms: C_13  and  N_14
REMARK    8  A    between atoms: C_19  and  C_20
REMARK                            x       y       z     vdW  Elec       q    Type
REMARK                         _______ _______ _______ _____ _____    ______ ____
ROOT
ATOM      1  C   UNL     1      47.826   5.918  13.225  0.00  0.00    +0.000 A 
ATOM      2  C   UNL     1      46.907   6.305  12.258  0.00  0.00    +0.000 A 
ATOM      3  C   UNL     1      45.641   5.694  12.240  0.00  0.00    +0.000 A 
ATOM      4  C   UNL     1      45.382   4.721  13.214  0.00  0.00    +0.000 A 
ATOM      5  C   UNL     1      46.366   4.408  14.138  0.00  0.00    +0.000 A 
ATOM      6  N   UNL     1      47.582   4.984  14.163  0.00  0.00    +0.000 NA
ENDROOT
BRANCH   3   7
ATOM      7  C   UNL     1      44.619   6.132  11.199  0.00  0.00    +0.000 C 
ATOM      8  F   UNL     1      43.582   6.791  11.800  0.00  0.00    +0.000 F 
ATOM      9  F   UNL     1      45.167   7.046  10.335  0.00  0.00    +0.000 F 
BRANCH   7  10
ATOM     10  C   UNL     1      44.029   4.978  10.339  0.00  0.00    +0.000 C 
BRANCH  10  11
ATOM     11  N   UNL     1      44.711   4.789   9.056  0.00  0.00    +0.000 N 
ATOM     12  C   UNL     1      45.154   3.507   8.787  0.00  0.00    +0.000 A 
ATOM     13  N   UNL     1      44.515   2.447   9.304  0.00  0.00    +0.000 NA
ATOM     14  C   UNL     1      44.931   1.223   8.928  0.00  0.00    +0.000 A 
ATOM     15  C   UNL     1      45.973   1.016   8.065  0.00  0.00    +0.000 A 
ATOM     16  C   UNL     1      46.591   2.163   7.623  0.00  0.00    +0.000 A 
ATOM     17  N   UNL     1      46.204   3.409   7.971  0.00  0.00    +0.000 NA
ATOM     18  H   UNL     1      45.447   5.450   8.834  0.00  0.00    +0.000 HD
BRANCH  16  19
ATOM     19  C   UNL     1      47.718   2.085   6.733  0.00  0.00    +0.000 C 
ATOM     20  N   UNL     1      48.591   2.016   5.975  0.00  0.00    +0.000 NA
ENDBRANCH  16  19
ENDBRANCH  10  11
ENDBRANCH   7  10
ENDBRANCH   3   7
BRANCH   1  21
ATOM     21  O   UNL     1      49.067   6.532  13.209  0.00  0.00    +0.000 OA
BRANCH  21  25
ATOM     22  C   UNL     1      49.501  10.784  14.655  0.00  0.00    +0.000 C 
ATOM     23  C   UNL     1      49.587   9.335  15.109  0.00  0.00    +0.000 C 
ATOM     24  C   UNL     1      50.438   8.431  14.189  0.00  0.00    +0.000 C 
ATOM     25  C   UNL     1      49.381   7.313  14.387  0.00  0.00    +0.000 C 
ATOM     26  C   UNL     1      48.374   8.441  14.733  0.00  0.00    +0.000 C 
BRANCH  23  27
ATOM     27  O   UNL     1      49.947   9.301  16.509  0.00  0.00    +0.000 OA
ATOM     28  H   UNL     1      49.795  10.205  16.837  0.00  0.00    +0.000 HD
ENDBRANCH  23  27
ENDBRANCH  21  25
ENDBRANCH   1  21
TORSDOF 7
ENDMDL
MODEL 9
REMARK VINA RESULT:    -6.424      4.342      7.235
REMARK INTER + INTRA:          -9.805
REMARK INTER:                  -8.855
REMARK INTRA:                  -0.950
REMARK UNBOUND:                -0.940
REMARK  Name = 
REMARK  8 active torsions:
REMARK  status: ('A' for Active; 'I' for Inactive)
REMARK    1  A    between atoms: C_1  and  C_2
REMARK    2  A    between atoms: C_2  and  O_3
REMARK    3  A    between atoms: C_5  and  O_6
REMARK    4  A    between atoms: O_6  and  C_7
REMARK    5  A    between atoms: C_9  and  C_10
REMARK    6  A    between atoms: C_10  and  C_13
REMARK    7  A    between atoms: C_13  and  N_14
REMARK    8  A    between atoms: C_19  and  C_20
REMARK                            x       y       z     vdW  Elec       q    Type
REMARK                         _______ _______ _______ _____ _____    ______ ____
ROOT
ATOM      1  C   UNL     1      45.453   7.881  11.997  0.00  0.00    +0.000 A 
ATOM      2  C   UNL     1      46.748   7.486  12.307  0.00  0.00    +0.000 A 
ATOM      3  C   UNL     1      47.746   8.467  12.439  0.00  0.00    +0.000 A 
ATOM      4  C   UNL     1      47.365   9.802  12.250  0.00  0.00    +0.000 A 
ATOM      5  C   UNL     1      46.044  10.093  11.946  0.00  0.00    +0.000 A 
ATOM      6  N   UNL     1      45.082   9.162  11.814  0.00  0.00    +0.000 NA
ENDROOT
BRANCH   3   7
ATOM      7  C   UNL     1      49.162   8.042  12.805  0.00  0.00    +0.000 C 
ATOM      8  F   UNL     1      49.395   6.761  12.387  0.00  0.00    +0.000 F 
ATOM      9  F   UNL     1      50.086   8.806  12.139  0.00  0.00    +0.000 F 
BRANCH   7  10
ATOM     10  C   UNL     1      49.497   8.128  14.322  0.00  0.00    +0.000 C 
BRANCH  10  11
ATOM     11  N   UNL     1      48.521   7.452  15.181  0.00  0.00    +0.000 N 
ATOM     12  C   UNL     1      48.996   6.379  15.912  0.00  0.00    +0.000 A 
ATOM     13  N   UNL     1      50.283   6.334  16.291  0.00  0.00    +0.000 NA
ATOM     14  C   UNL     1      50.665   5.315  17.084  0.00  0.00    +0.000 A 
ATOM     15  C   UNL     1      49.813   4.328  17.501  0.00  0.00    +0.000 A 
ATOM     16  C   UNL     1      48.526   4.439  17.026  0.00  0.00    +0.000 A 
ATOM     17  N   UNL     1      48.100   5.446  16.233  0.00  0.00    +0.000 NA
ATOM     18  H   UNL     1      47.639   7.197  14.750  0.00  0.00    +0.000 HD
BRANCH  16  19
ATOM     19  C   UNL     1      47.538   3.452  17.368  0.00  0.00    +0.000 C 
ATOM     20  N   UNL     1      46.705   2.697  17.648  0.00  0.00    +0.000 NA
ENDBRANCH  16  19
ENDBRANCH  10  11
ENDBRANCH   7  10
ENDBRANCH   3   7
BRANCH   1  21
ATOM     21  O   UNL     1      44.496   6.889  11.865  0.00  0.00    +0.000 OA
BRANCH  21  25
ATOM     22  C   UNL     1      43.300   2.549  11.573  0.00  0.00    +0.000 C 
ATOM     23  C   UNL     1      44.402   3.470  12.072  0.00  0.00    +0.000 C 
ATOM     24  C   UNL     1      43.899   4.659  12.921  0.00  0.00    +0.000 C 
ATOM     25  C   UNL     1      44.943   5.554  12.205  0.00  0.00    +0.000 C 
ATOM     26  C   UNL     1      44.912   4.521  11.047  0.00  0.00    +0.000 C 
BRANCH  23  27
ATOM     27  O   UNL     1      45.443   2.674  12.682  0.00  0.00    +0.000 OA
ATOM     28  H   UNL     1      46.276   3.129  12.465  0.00  0.00    +0.000 HD
ENDBRANCH  23  27
ENDBRANCH  21  25
ENDBRANCH   1  21
TORSDOF 7
ENDMDL
