MODEL 1
REMARK VINA RESULT:    -7.200      0.000      0.000
REMARK INTER + INTRA:         -12.013
REMARK INTER:                 -10.778
REMARK INTRA:                  -1.235
REMARK UNBOUND:                -1.235
REMARK  Name = 
REMARK  9 active torsions:
REMARK  status: ('A' for Active; 'I' for Inactive)
REMARK    1  A    between atoms: C_2  and  C_21
REMARK    2  A    between atoms: N_3  and  C_4
REMARK    3  A    between atoms: C_4  and  C_5
REMARK    4  A    between atoms: C_8  and  C_9
REMARK    5  A    between atoms: C_9  and  N_10
REMARK    6  A    between atoms: N_10  and  CA_11
REMARK    7  A    between atoms: CA_11  and  C_12
REMARK    8  A    between atoms: CA_11  and  C_14
REMARK    9  A    between atoms: C_12  and  O_13
REMARK                            x       y       z     vdW  Elec       q    Type
REMARK                         _______ _______ _______ _____ _____    ______ ____
ROOT
ATOM      1  C   UNL     1      48.610   6.128  15.766  0.00  0.00    +0.000 A 
ATOM      2  C   UNL     1      48.388   6.674  14.493  0.00  0.00    +0.000 A 
ATOM      3  C   UNL     1      47.516   6.057  13.589  0.00  0.00    +0.000 A 
ATOM      4  C   UNL     1      46.846   4.881  13.940  0.00  0.00    +0.000 A 
ATOM      5  C   UNL     1      47.040   4.361  15.232  0.00  0.00    +0.000 A 
ATOM      6  C   UNL     1      47.908   4.978  16.136  0.00  0.00    +0.000 A 
ENDROOT
BRANCH   1   7
ATOM      7  C   UNL     1      49.584   6.769  16.715  0.00  0.00    +0.000 C 
BRANCH   7  10
ATOM      8  O   UNL     1      50.052   5.809  19.247  0.00  0.00    +0.000 OA
ATOM      9  C   UNL     1      50.789   5.418  18.342  0.00  0.00    +0.000 C 
ATOM     10  N   UNL     1      50.673   5.890  17.058  0.00  0.00    +0.000 N 
ATOM     11  H   UNL     1      51.139   5.404  16.300  0.00  0.00    +0.000 HD
BRANCH   9  12
ATOM     12  C   UNL     1      51.862   4.457  18.602  0.00  0.00    +0.000 A 
ATOM     13  C   UNL     1      52.931   4.822  19.411  0.00  0.00    +0.000 A 
ATOM     14  S   UNL     1      54.075   3.578  19.632  0.00  0.00    +0.000 S 
ATOM     15  C   UNL     1      53.163   2.498  18.686  0.00  0.00    +0.000 A 
ATOM     16  N   UNL     1      53.567   1.213  18.507  0.00  0.00    +0.000 NA
ATOM     17  C   UNL     1      52.763   0.493  17.797  0.00  0.00    +0.000 A 
ATOM     18  N   UNL     1      51.594   0.949  17.240  0.00  0.00    +0.000 N 
ATOM     19  C   UNL     1      51.167   2.249  17.359  0.00  0.00    +0.000 A 
ATOM     20  O   UNL     1      50.155   2.644  16.790  0.00  0.00    +0.000 OA
ATOM     21  C   UNL     1      52.020   3.089  18.177  0.00  0.00    +0.000 A 
ATOM     22  H   UNL     1      51.019   0.339  16.677  0.00  0.00    +0.000 HD
ENDBRANCH   9  12
ENDBRANCH   7  10
ENDBRANCH   1   7
BRANCH   4  23
ATOM     23  C   UNL     1      45.843   4.207  13.030  0.00  0.00    +0.000 C 
BRANCH  23  24
ATOM     24  N   UNL     1      45.268   5.070  11.987  0.00  0.00    +0.000 NA
ATOM     25  H   UNL     1      45.968   5.150  11.243  0.00  0.00    +0.000 HD
BRANCH  24  26
ATOM     26  CA  UNL     1      44.088   4.395  11.359  0.00  0.00    +0.000 C 
BRANCH  26  27
ATOM     27  C   UNL     1      44.502   3.749  10.029  0.00  0.00    +0.000 C 
ATOM     28  N   UNL     1      45.109   2.585   9.989  0.00  0.00    +0.000 NA
ATOM     29  C   UNL     1      45.420   2.371   8.541  0.00  0.00    +0.000 C 
ATOM     30  C   UNL     1      44.810   3.543   7.757  0.00  0.00    +0.000 C 
ATOM     31  N   UNL     1      44.270   4.332   8.819  0.00  0.00    +0.000 N 
ATOM     32  H   UNL     1      43.857   5.250   8.726  0.00  0.00    +0.000 HD
ENDBRANCH  26  27
BRANCH  26  33
ATOM     33  C   UNL     1      43.467   3.293  12.245  0.00  0.00    +0.000 C 
BRANCH  33  34
ATOM     34  O   UNL     1      42.703   2.377  11.452  0.00  0.00    +0.000 OA
ATOM     35  H   UNL     1      42.985   1.483  11.715  0.00  0.00    +0.000 HD
ENDBRANCH  33  34
ENDBRANCH  26  33
ENDBRANCH  24  26
ENDBRANCH  23  24
ENDBRANCH   4  23
TORSDOF 9
ENDMDL
MODEL 2
REMARK VINA RESULT:    -7.135      2.792      3.593
REMARK INTER + INTRA:         -11.915
REMARK INTER:                 -10.517
REMARK INTRA:                  -1.398
REMARK UNBOUND:                -1.235
REMARK  Name = 
REMARK  9 active torsions:
REMARK  status: ('A' for Active; 'I' for Inactive)
REMARK    1  A    between atoms: C_2  and  C_21
REMARK    2  A    between atoms: N_3  and  C_4
REMARK    3  A    between atoms: C_4  and  C_5
REMARK    4  A    between atoms: C_8  and  C_9
REMARK    5  A    between atoms: C_9  and  N_10
REMARK    6  A    between atoms: N_10  and  CA_11
REMARK    7  A    between atoms: CA_11  and  C_12
REMARK    8  A    between atoms: CA_11  and  C_14
REMARK    9  A    between atoms: C_12  and  O_13
REMARK                            x       y       z     vdW  Elec       q    Type
REMARK                         _______ _______ _______ _____ _____    ______ ____
ROOT
ATOM      1  C   UNL     1      47.614   7.834  13.183  0.00  0.00    +0.000 A 
ATOM      2  C   UNL     1      47.588   6.473  12.843  0.00  0.00    +0.000 A 
ATOM      3  C   UNL     1      46.411   5.870  12.387  0.00  0.00    +0.000 A 
ATOM      4  C   UNL     1      45.234   6.614  12.260  0.00  0.00    +0.000 A 
ATOM      5  C   UNL     1      45.276   7.987  12.563  0.00  0.00    +0.000 A 
ATOM      6  C   UNL     1      46.451   8.591  13.015  0.00  0.00    +0.000 A 
ENDROOT
BRANCH   1   7
ATOM      7  C   UNL     1      48.869   8.466  13.717  0.00  0.00    +0.000 C 
BRANCH   7  10
ATOM      8  O   UNL     1      47.967   9.230  16.198  0.00  0.00    +0.000 OA
ATOM      9  C   UNL     1      48.748   8.280  16.141  0.00  0.00    +0.000 C 
ATOM     10  N   UNL     1      49.301   7.867  14.954  0.00  0.00    +0.000 N 
ATOM     11  H   UNL     1      49.763   6.966  14.902  0.00  0.00    +0.000 HD
BRANCH   9  12
ATOM     12  C   UNL     1      49.162   7.568  17.351  0.00  0.00    +0.000 A 
ATOM     13  C   UNL     1      49.722   8.275  18.407  0.00  0.00    +0.000 A 
ATOM     14  S   UNL     1      50.121   7.298  19.746  0.00  0.00    +0.000 S 
ATOM     15  C   UNL     1      49.525   5.903  18.974  0.00  0.00    +0.000 A 
ATOM     16  N   UNL     1      49.525   4.701  19.607  0.00  0.00    +0.000 NA
ATOM     17  C   UNL     1      49.011   3.735  18.919  0.00  0.00    +0.000 A 
ATOM     18  N   UNL     1      48.508   3.864  17.648  0.00  0.00    +0.000 N 
ATOM     19  C   UNL     1      48.526   5.049  16.954  0.00  0.00    +0.000 A 
ATOM     20  O   UNL     1      48.135   5.116  15.794  0.00  0.00    +0.000 OA
ATOM     21  C   UNL     1      49.062   6.173  17.698  0.00  0.00    +0.000 A 
ATOM     22  H   UNL     1      48.139   3.063  17.156  0.00  0.00    +0.000 HD
ENDBRANCH   9  12
ENDBRANCH   7  10
ENDBRANCH   1   7
BRANCH   4  23
ATOM     23  C   UNL     1      43.951   6.032  11.711  0.00  0.00    +0.000 C 
BRANCH  23  24
ATOM     24  N   UNL     1      44.015   5.595  10.308  0.00  0.00    +0.000 NA
ATOM     25  H   UNL     1      44.989   5.693  10.006  0.00  0.00    +0.000 HD
BRANCH  24  26
ATOM     26  CA  UNL     1      43.711   4.131  10.215  0.00  0.00    +0.000 C 
BRANCH  26  27
ATOM     27  C   UNL     1      44.699   3.451   9.257  0.00  0.00    +0.000 C 
ATOM     28  N   UNL     1      45.194   4.082   8.217  0.00  0.00    +0.000 NA
ATOM     29  C   UNL     1      46.014   3.053   7.506  0.00  0.00    +0.000 C 
ATOM     30  C   UNL     1      45.988   1.771   8.354  0.00  0.00    +0.000 C 
ATOM     31  N   UNL     1      45.122   2.165   9.419  0.00  0.00    +0.000 N 
ATOM     32  H   UNL     1      44.771   1.564  10.153  0.00  0.00    +0.000 HD
ENDBRANCH  26  27
BRANCH  26  33
ATOM     33  C   UNL     1      43.793   3.399  11.574  0.00  0.00    +0.000 C 
BRANCH  33  34
ATOM     34  O   UNL     1      42.942   2.248  11.580  0.00  0.00    +0.000 OA
ATOM     35  H   UNL     1      42.512   2.218  10.707  0.00  0.00    +0.000 HD
ENDBRANCH  33  34
ENDBRANCH  26  33
ENDBRANCH  24  26
ENDBRANCH  23  24
ENDBRANCH   4  23
TORSDOF 9
ENDMDL
MODEL 3
REMARK VINA RESULT:    -6.846      3.939      4.854
REMARK INTER + INTRA:         -11.483
REMARK INTER:                 -10.742
REMARK INTRA:                  -0.742
REMARK UNBOUND:                -1.235
REMARK  Name = 
REMARK  9 active torsions:
REMARK  status: ('A' for Active; 'I' for Inactive)
REMARK    1  A    between atoms: C_2  and  C_21
REMARK    2  A    between atoms: N_3  and  C_4
REMARK    3  A    between atoms: C_4  and  C_5
REMARK    4  A    between atoms: C_8  and  C_9
REMARK    5  A    between atoms: C_9  and  N_10
REMARK    6  A    between atoms: N_10  and  CA_11
REMARK    7  A    between atoms: CA_11  and  C_12
REMARK    8  A    between atoms: CA_11  and  C_14
REMARK    9  A    between atoms: C_12  and  O_13
REMARK                            x       y       z     vdW  Elec       q    Type
REMARK                         _______ _______ _______ _____ _____    ______ ____
ROOT
ATOM      1  C   UNL     1      47.126   8.235  13.269  0.00  0.00    +0.000 A 
ATOM      2  C   UNL     1      47.570   6.942  12.959  0.00  0.00    +0.000 A 
ATOM      3  C   UNL     1      46.785   6.078  12.188  0.00  0.00    +0.000 A 
ATOM      4  C   UNL     1      45.537   6.490  11.710  0.00  0.00    +0.000 A 
ATOM      5  C   UNL     1      45.114   7.802  11.988  0.00  0.00    +0.000 A 
ATOM      6  C   UNL     1      45.899   8.666  12.755  0.00  0.00    +0.000 A 
ENDROOT
BRANCH   1   7
ATOM      7  C   UNL     1      47.952   9.143  14.138  0.00  0.00    +0.000 C 
BRANCH   7  10
ATOM      8  O   UNL     1      49.702   8.243  16.055  0.00  0.00    +0.000 OA
ATOM      9  C   UNL     1      48.586   8.608  16.426  0.00  0.00    +0.000 C 
ATOM     10  N   UNL     1      47.624   9.013  15.534  0.00  0.00    +0.000 N 
ATOM     11  H   UNL     1      46.803   9.505  15.871  0.00  0.00    +0.000 HD
BRANCH   9  12
ATOM     12  C   UNL     1      48.214   8.586  17.841  0.00  0.00    +0.000 A 
ATOM     13  C   UNL     1      47.967   9.780  18.506  0.00  0.00    +0.000 A 
ATOM     14  S   UNL     1      47.520   9.571  20.138  0.00  0.00    +0.000 S 
ATOM     15  C   UNL     1      47.605   7.877  20.001  0.00  0.00    +0.000 A 
ATOM     16  N   UNL     1      47.288   7.075  21.050  0.00  0.00    +0.000 NA
ATOM     17  C   UNL     1      47.361   5.809  20.797  0.00  0.00    +0.000 A 
ATOM     18  N   UNL     1      47.735   5.276  19.589  0.00  0.00    +0.000 N 
ATOM     19  C   UNL     1      48.104   6.048  18.514  0.00  0.00    +0.000 A 
ATOM     20  O   UNL     1      48.502   5.541  17.470  0.00  0.00    +0.000 OA
ATOM     21  C   UNL     1      48.005   7.477  18.738  0.00  0.00    +0.000 A 
ATOM     22  H   UNL     1      47.792   4.276  19.462  0.00  0.00    +0.000 HD
ENDBRANCH   9  12
ENDBRANCH   7  10
ENDBRANCH   1   7
BRANCH   4  23
ATOM     23  C   UNL     1      44.675   5.624  10.818  0.00  0.00    +0.000 C 
BRANCH  23  24
ATOM     24  N   UNL     1      45.283   5.254   9.531  0.00  0.00    +0.000 NA
ATOM     25  H   UNL     1      46.259   5.005   9.720  0.00  0.00    +0.000 HD
BRANCH  24  26
ATOM     26  CA  UNL     1      44.644   4.007   9.004  0.00  0.00    +0.000 C 
BRANCH  26  27
ATOM     27  C   UNL     1      45.651   3.223   8.149  0.00  0.00    +0.000 C 
ATOM     28  N   UNL     1      46.235   3.765   7.106  0.00  0.00    +0.000 NA
ATOM     29  C   UNL     1      47.042   2.656   6.508  0.00  0.00    +0.000 C 
ATOM     30  C   UNL     1      46.904   1.433   7.428  0.00  0.00    +0.000 C 
ATOM     31  N   UNL     1      45.999   1.932   8.413  0.00  0.00    +0.000 N 
ATOM     32  H   UNL     1      45.578   1.395   9.159  0.00  0.00    +0.000 HD
ENDBRANCH  26  27
BRANCH  26  33
ATOM     33  C   UNL     1      44.134   3.061  10.115  0.00  0.00    +0.000 C 
BRANCH  33  34
ATOM     34  O   UNL     1      45.203   2.684  10.989  0.00  0.00    +0.000 OA
ATOM     35  H   UNL     1      44.941   1.840  11.397  0.00  0.00    +0.000 HD
ENDBRANCH  33  34
ENDBRANCH  26  33
ENDBRANCH  24  26
ENDBRANCH  23  24
ENDBRANCH   4  23
TORSDOF 9
ENDMDL
MODEL 4
REMARK VINA RESULT:    -6.790      3.854      8.806
REMARK INTER + INTRA:         -11.399
REMARK INTER:                  -9.654
REMARK INTRA:                  -1.745
REMARK UNBOUND:                -1.235
REMARK  Name = 
REMARK  9 active torsions:
REMARK  status: ('A' for Active; 'I' for Inactive)
REMARK    1  A    between atoms: C_2  and  C_21
REMARK    2  A    between atoms: N_3  and  C_4
REMARK    3  A    between atoms: C_4  and  C_5
REMARK    4  A    between atoms: C_8  and  C_9
REMARK    5  A    between atoms: C_9  and  N_10
REMARK    6  A    between atoms: N_10  and  CA_11
REMARK    7  A    between atoms: CA_11  and  C_12
REMARK    8  A    between atoms: CA_11  and  C_14
REMARK    9  A    between atoms: C_12  and  O_13
REMARK                            x       y       z     vdW  Elec       q    Type
REMARK                         _______ _______ _______ _____ _____    ______ ____
ROOT
ATOM      1  C   UNL     1      48.488   8.074  13.615  0.00  0.00    +0.000 A 
ATOM      2  C   UNL     1      49.234   7.021  14.164  0.00  0.00    +0.000 A 
ATOM      3  C   UNL     1      49.491   6.964  15.539  0.00  0.00    +0.000 A 
ATOM      4  C   UNL     1      49.007   7.960  16.393  0.00  0.00    +0.000 A 
ATOM      5  C   UNL     1      48.225   8.991  15.843  0.00  0.00    +0.000 A 
ATOM      6  C   UNL     1      47.965   9.047  14.472  0.00  0.00    +0.000 A 
ENDROOT
BRANCH   1   7
ATOM      7  C   UNL     1      48.254   8.156  12.132  0.00  0.00    +0.000 C 
BRANCH   7  10
ATOM      8  O   UNL     1      45.539   7.981  11.753  0.00  0.00    +0.000 OA
ATOM      9  C   UNL     1      46.227   7.020  11.409  0.00  0.00    +0.000 C 
ATOM     10  N   UNL     1      47.584   6.990  11.617  0.00  0.00    +0.000 N 
ATOM     11  H   UNL     1      48.150   6.296  11.140  0.00  0.00    +0.000 HD
BRANCH   9  12
ATOM     12  C   UNL     1      45.622   5.835  10.799  0.00  0.00    +0.000 A 
ATOM     13  C   UNL     1      45.861   5.553   9.460  0.00  0.00    +0.000 A 
ATOM     14  S   UNL     1      45.103   4.125   8.918  0.00  0.00    +0.000 S 
ATOM     15  C   UNL     1      44.462   3.815  10.464  0.00  0.00    +0.000 A 
ATOM     16  N   UNL     1      43.733   2.695  10.705  0.00  0.00    +0.000 NA
ATOM     17  C   UNL     1      43.338   2.567  11.929  0.00  0.00    +0.000 A 
ATOM     18  N   UNL     1      43.599   3.469  12.931  0.00  0.00    +0.000 N 
ATOM     19  C   UNL     1      44.295   4.635  12.724  0.00  0.00    +0.000 A 
ATOM     20  O   UNL     1      44.450   5.455  13.622  0.00  0.00    +0.000 OA
ATOM     21  C   UNL     1      44.790   4.807  11.371  0.00  0.00    +0.000 A 
ATOM     22  H   UNL     1      43.243   3.320  13.864  0.00  0.00    +0.000 HD
ENDBRANCH   9  12
ENDBRANCH   7  10
ENDBRANCH   1   7
BRANCH   4  23
ATOM     23  C   UNL     1      49.198   7.915  17.893  0.00  0.00    +0.000 C 
BRANCH  23  24
ATOM     24  N   UNL     1      49.723   6.646  18.418  0.00  0.00    +0.000 NA
ATOM     25  H   UNL     1      50.352   6.879  19.193  0.00  0.00    +0.000 HD
BRANCH  24  26
ATOM     26  CA  UNL     1      48.613   5.847  19.027  0.00  0.00    +0.000 C 
BRANCH  26  27
ATOM     27  C   UNL     1      48.250   4.671  18.109  0.00  0.00    +0.000 C 
ATOM     28  N   UNL     1      47.003   4.401  17.798  0.00  0.00    +0.000 NA
ATOM     29  C   UNL     1      47.081   3.146  16.987  0.00  0.00    +0.000 C 
ATOM     30  C   UNL     1      48.567   2.802  16.803  0.00  0.00    +0.000 C 
ATOM     31  N   UNL     1      49.184   3.842  17.564  0.00  0.00    +0.000 N 
ATOM     32  H   UNL     1      50.171   3.919  17.773  0.00  0.00    +0.000 HD
ENDBRANCH  26  27
BRANCH  26  33
ATOM     33  C   UNL     1      48.962   5.269  20.417  0.00  0.00    +0.000 C 
BRANCH  33  34
ATOM     34  O   UNL     1      48.584   3.890  20.501  0.00  0.00    +0.000 OA
ATOM     35  H   UNL     1      47.742   3.806  20.019  0.00  0.00    +0.000 HD
ENDBRANCH  33  34
ENDBRANCH  26  33
ENDBRANCH  24  26
ENDBRANCH  23  24
ENDBRANCH   4  23
TORSDOF 9
ENDMDL
MODEL 5
REMARK VINA RESULT:    -6.711      3.770      8.935
REMARK INTER + INTRA:         -11.280
REMARK INTER:                  -9.496
REMARK INTRA:                  -1.784
REMARK UNBOUND:                -1.235
REMARK  Name = 
REMARK  9 active torsions:
REMARK  status: ('A' for Active; 'I' for Inactive)
REMARK    1  A    between atoms: C_2  and  C_21
REMARK    2  A    between atoms: N_3  and  C_4
REMARK    3  A    between atoms: C_4  and  C_5
REMARK    4  A    between atoms: C_8  and  C_9
REMARK    5  A    between atoms: C_9  and  N_10
REMARK    6  A    between atoms: N_10  and  CA_11
REMARK    7  A    between atoms: CA_11  and  C_12
REMARK    8  A    between atoms: CA_11  and  C_14
REMARK    9  A    between atoms: C_12  and  O_13
REMARK                            x       y       z     vdW  Elec       q    Type
REMARK                         _______ _______ _______ _____ _____    ______ ____
ROOT
ATOM      1  C   UNL     1      48.181   7.977  13.479  0.00  0.00    +0.000 A 
ATOM      2  C   UNL     1      47.722   8.950  14.378  0.00  0.00    +0.000 A 
ATOM      3  C   UNL     1      48.246   9.035  15.673  0.00  0.00    +0.000 A 
ATOM      4  C   UNL     1      49.240   8.148  16.096  0.00  0.00    +0.000 A 
ATOM      5  C   UNL     1      49.726   7.201  15.177  0.00  0.00    +0.000 A 
ATOM      6  C   UNL     1      49.207   7.117  13.884  0.00  0.00    +0.000 A 
ENDROOT
BRANCH   1   7
ATOM      7  C   UNL     1      47.583   7.859  12.105  0.00  0.00    +0.000 C 
BRANCH   7  10
ATOM      8  O   UNL     1      44.916   7.361  12.540  0.00  0.00    +0.000 OA
ATOM      9  C   UNL     1      45.601   6.447  12.080  0.00  0.00    +0.000 C 
ATOM     10  N   UNL     1      46.953   6.581  11.889  0.00  0.00    +0.000 N 
ATOM     11  H   UNL     1      47.449   5.905  11.319  0.00  0.00    +0.000 HD
BRANCH   9  12
ATOM     12  C   UNL     1      45.009   5.148  11.755  0.00  0.00    +0.000 A 
ATOM     13  C   UNL     1      44.297   4.454  12.725  0.00  0.00    +0.000 A 
ATOM     14  S   UNL     1      43.654   2.976  12.172  0.00  0.00    +0.000 S 
ATOM     15  C   UNL     1      44.272   3.231  10.607  0.00  0.00    +0.000 A 
ATOM     16  N   UNL     1      44.033   2.341   9.609  0.00  0.00    +0.000 NA
ATOM     17  C   UNL     1      44.529   2.676   8.463  0.00  0.00    +0.000 A 
ATOM     18  N   UNL     1      45.255   3.818   8.232  0.00  0.00    +0.000 N 
ATOM     19  C   UNL     1      45.557   4.724   9.220  0.00  0.00    +0.000 A 
ATOM     20  O   UNL     1      46.268   5.698   8.998  0.00  0.00    +0.000 OA
ATOM     21  C   UNL     1      44.991   4.410  10.518  0.00  0.00    +0.000 A 
ATOM     22  H   UNL     1      45.635   4.011   7.317  0.00  0.00    +0.000 HD
ENDBRANCH   9  12
ENDBRANCH   7  10
ENDBRANCH   1   7
BRANCH   4  23
ATOM     23  C   UNL     1      49.889   8.235  17.460  0.00  0.00    +0.000 C 
BRANCH  23  24
ATOM     24  N   UNL     1      49.942   6.970  18.208  0.00  0.00    +0.000 NA
ATOM     25  H   UNL     1      50.399   7.168  19.103  0.00  0.00    +0.000 HD
BRANCH  24  26
ATOM     26  CA  UNL     1      48.556   6.523  18.554  0.00  0.00    +0.000 C 
BRANCH  26  27
ATOM     27  C   UNL     1      48.307   5.112  18.000  0.00  0.00    +0.000 C 
ATOM     28  N   UNL     1      49.278   4.237  17.884  0.00  0.00    +0.000 NA
ATOM     29  C   UNL     1      48.644   3.055  17.223  0.00  0.00    +0.000 C 
ATOM     30  C   UNL     1      47.145   3.355  17.071  0.00  0.00    +0.000 C 
ATOM     31  N   UNL     1      47.078   4.682  17.596  0.00  0.00    +0.000 N 
ATOM     32  H   UNL     1      46.264   5.283  17.590  0.00  0.00    +0.000 HD
ENDBRANCH  26  27
BRANCH  26  33
ATOM     33  C   UNL     1      48.283   6.486  20.074  0.00  0.00    +0.000 C 
BRANCH  33  34
ATOM     34  O   UNL     1      47.772   5.207  20.466  0.00  0.00    +0.000 OA
ATOM     35  H   UNL     1      48.417   4.546  20.156  0.00  0.00    +0.000 HD
ENDBRANCH  33  34
ENDBRANCH  26  33
ENDBRANCH  24  26
ENDBRANCH  23  24
ENDBRANCH   4  23
TORSDOF 9
ENDMDL
MODEL 6
REMARK VINA RESULT:    -6.705      3.594      8.415
REMARK INTER + INTRA:         -11.271
REMARK INTER:                  -9.544
REMARK INTRA:                  -1.728
REMARK UNBOUND:                -1.235
REMARK  Name = 
REMARK  9 active torsions:
REMARK  status: ('A' for Active; 'I' for Inactive)
REMARK    1  A    between atoms: C_2  and  C_21
REMARK    2  A    between atoms: N_3  and  C_4
REMARK    3  A    between atoms: C_4  and  C_5
REMARK    4  A    between atoms: C_8  and  C_9
REMARK    5  A    between atoms: C_9  and  N_10
REMARK    6  A    between atoms: N_10  and  CA_11
REMARK    7  A    between atoms: CA_11  and  C_12
REMARK    8  A    between atoms: CA_11  and  C_14
REMARK    9  A    between atoms: C_12  and  O_13
REMARK                            x       y       z     vdW  Elec       q    Type
REMARK                         _______ _______ _______ _____ _____    ______ ____
ROOT
ATOM      1  C   UNL     1      49.354   7.687  15.290  0.00  0.00    +0.000 A 
ATOM      2  C   UNL     1      50.749   7.774  15.169  0.00  0.00    +0.000 A 
ATOM      3  C   UNL     1      51.589   6.980  15.958  0.00  0.00    +0.000 A 
ATOM      4  C   UNL     1      51.052   6.083  16.886  0.00  0.00    +0.000 A 
ATOM      5  C   UNL     1      49.652   5.970  16.974  0.00  0.00    +0.000 A 
ATOM      6  C   UNL     1      48.813   6.759  16.185  0.00  0.00    +0.000 A 
ENDROOT
BRANCH   1   7
ATOM      7  C   UNL     1      48.457   8.575  14.474  0.00  0.00    +0.000 C 
BRANCH   7  10
ATOM      8  O   UNL     1      47.824   8.127  11.838  0.00  0.00    +0.000 OA
ATOM      9  C   UNL     1      47.067   7.668  12.694  0.00  0.00    +0.000 C 
ATOM     10  N   UNL     1      47.266   7.894  14.033  0.00  0.00    +0.000 N 
ATOM     11  H   UNL     1      46.764   7.338  14.716  0.00  0.00    +0.000 HD
BRANCH   9  12
ATOM     12  C   UNL     1      45.884   6.891  12.320  0.00  0.00    +0.000 A 
ATOM     13  C   UNL     1      44.843   7.508  11.640  0.00  0.00    +0.000 A 
ATOM     14  S   UNL     1      43.558   6.454  11.258  0.00  0.00    +0.000 S 
ATOM     15  C   UNL     1      44.367   5.129  11.954  0.00  0.00    +0.000 A 
ATOM     16  N   UNL     1      43.824   3.885  11.923  0.00  0.00    +0.000 NA
ATOM     17  C   UNL     1      44.560   2.966  12.456  0.00  0.00    +0.000 A 
ATOM     18  N   UNL     1      45.789   3.186  13.028  0.00  0.00    +0.000 N 
ATOM     19  C   UNL     1      46.358   4.433  13.120  0.00  0.00    +0.000 A 
ATOM     20  O   UNL     1      47.424   4.607  13.700  0.00  0.00    +0.000 OA
ATOM     21  C   UNL     1      45.584   5.493  12.504  0.00  0.00    +0.000 A 
ATOM     22  H   UNL     1      46.306   2.426  13.447  0.00  0.00    +0.000 HD
ENDBRANCH   9  12
ENDBRANCH   7  10
ENDBRANCH   1   7
BRANCH   4  23
ATOM     23  C   UNL     1      51.908   5.154  17.718  0.00  0.00    +0.000 C 
BRANCH  23  24
ATOM     24  N   UNL     1      52.215   3.859  17.092  0.00  0.00    +0.000 NA
ATOM     25  H   UNL     1      53.226   3.718  17.174  0.00  0.00    +0.000 HD
BRANCH  24  26
ATOM     26  CA  UNL     1      51.588   2.750  17.879  0.00  0.00    +0.000 C 
BRANCH  26  27
ATOM     27  C   UNL     1      50.115   2.590  17.477  0.00  0.00    +0.000 C 
ATOM     28  N   UNL     1      49.771   2.162  16.285  0.00  0.00    +0.000 NA
ATOM     29  C   UNL     1      48.277   2.248  16.271  0.00  0.00    +0.000 C 
ATOM     30  C   UNL     1      47.824   2.696  17.669  0.00  0.00    +0.000 C 
ATOM     31  N   UNL     1      49.083   2.878  18.319  0.00  0.00    +0.000 N 
ATOM     32  H   UNL     1      49.223   3.263  19.243  0.00  0.00    +0.000 HD
ENDBRANCH  26  27
BRANCH  26  33
ATOM     33  C   UNL     1      52.283   1.385  17.679  0.00  0.00    +0.000 C 
BRANCH  33  34
ATOM     34  O   UNL     1      51.421   0.315  18.080  0.00  0.00    +0.000 OA
ATOM     35  H   UNL     1      51.972  -0.487  18.111  0.00  0.00    +0.000 HD
ENDBRANCH  33  34
ENDBRANCH  26  33
ENDBRANCH  24  26
ENDBRANCH  23  24
ENDBRANCH   4  23
TORSDOF 9
ENDMDL
MODEL 7
REMARK VINA RESULT:    -6.524      2.852      3.571
REMARK INTER + INTRA:         -11.001
REMARK INTER:                 -10.403
REMARK INTRA:                  -0.598
REMARK UNBOUND:                -1.235
REMARK  Name = 
REMARK  9 active torsions:
REMARK  status: ('A' for Active; 'I' for Inactive)
REMARK    1  A    between atoms: C_2  and  C_21
REMARK    2  A    between atoms: N_3  and  C_4
REMARK    3  A    between atoms: C_4  and  C_5
REMARK    4  A    between atoms: C_8  and  C_9
REMARK    5  A    between atoms: C_9  and  N_10
REMARK    6  A    between atoms: N_10  and  CA_11
REMARK    7  A    between atoms: CA_11  and  C_12
REMARK    8  A    between atoms: CA_11  and  C_14
REMARK    9  A    between atoms: C_12  and  O_13
REMARK                            x       y       z     vdW  Elec       q    Type
REMARK                         _______ _______ _______ _____ _____    ______ ____
ROOT
ATOM      1  C   UNL     1      48.785   7.114  13.544  0.00  0.00    +0.000 A 
ATOM      2  C   UNL     1      47.827   6.166  13.933  0.00  0.00    +0.000 A 
ATOM      3  C   UNL     1      46.794   5.793  13.067  0.00  0.00    +0.000 A 
ATOM      4  C   UNL     1      46.696   6.359  11.792  0.00  0.00    +0.000 A 
ATOM      5  C   UNL     1      47.684   7.278  11.392  0.00  0.00    +0.000 A 
ATOM      6  C   UNL     1      48.717   7.648  12.255  0.00  0.00    +0.000 A 
ENDROOT
BRANCH   1   7
ATOM      7  C   UNL     1      49.866   7.546  14.496  0.00  0.00    +0.000 C 
BRANCH   7  10
ATOM      8  O   UNL     1      51.311   8.438  16.656  0.00  0.00    +0.000 OA
ATOM      9  C   UNL     1      50.296   7.778  16.880  0.00  0.00    +0.000 C 
ATOM     10  N   UNL     1      49.546   7.237  15.866  0.00  0.00    +0.000 N 
ATOM     11  H   UNL     1      48.614   6.887  16.062  0.00  0.00    +0.000 HD
BRANCH   9  12
ATOM     12  C   UNL     1      49.863   7.498  18.250  0.00  0.00    +0.000 A 
ATOM     13  C   UNL     1      49.657   8.549  19.134  0.00  0.00    +0.000 A 
ATOM     14  S   UNL     1      49.129   8.049  20.676  0.00  0.00    +0.000 S 
ATOM     15  C   UNL     1      49.122   6.415  20.203  0.00  0.00    +0.000 A 
ATOM     16  N   UNL     1      48.714   5.442  21.059  0.00  0.00    +0.000 NA
ATOM     17  C   UNL     1      48.724   4.251  20.558  0.00  0.00    +0.000 A 
ATOM     18  N   UNL     1      49.118   3.945  19.279  0.00  0.00    +0.000 N 
ATOM     19  C   UNL     1      49.577   4.890  18.393  0.00  0.00    +0.000 A 
ATOM     20  O   UNL     1      49.990   4.576  17.282  0.00  0.00    +0.000 OA
ATOM     21  C   UNL     1      49.552   6.249  18.898  0.00  0.00    +0.000 A 
ATOM     22  H   UNL     1      49.123   2.989  18.955  0.00  0.00    +0.000 HD
ENDBRANCH   9  12
ENDBRANCH   7  10
ENDBRANCH   1   7
BRANCH   4  23
ATOM     23  C   UNL     1      45.641   5.946  10.791  0.00  0.00    +0.000 C 
BRANCH  23  24
ATOM     24  N   UNL     1      44.288   6.454  11.064  0.00  0.00    +0.000 NA
ATOM     25  H   UNL     1      44.035   7.070  10.287  0.00  0.00    +0.000 HD
BRANCH  24  26
ATOM     26  CA  UNL     1      43.302   5.327  11.021  0.00  0.00    +0.000 C 
BRANCH  26  27
ATOM     27  C   UNL     1      43.802   4.230  10.069  0.00  0.00    +0.000 C 
ATOM     28  N   UNL     1      43.970   2.993  10.474  0.00  0.00    +0.000 NA
ATOM     29  C   UNL     1      44.552   2.286   9.292  0.00  0.00    +0.000 C 
ATOM     30  C   UNL     1      44.597   3.286   8.127  0.00  0.00    +0.000 C 
ATOM     31  N   UNL     1      44.100   4.466   8.760  0.00  0.00    +0.000 N 
ATOM     32  H   UNL     1      44.059   5.389   8.349  0.00  0.00    +0.000 HD
ENDBRANCH  26  27
BRANCH  26  33
ATOM     33  C   UNL     1      43.051   4.676  12.400  0.00  0.00    +0.000 C 
BRANCH  33  34
ATOM     34  O   UNL     1      42.870   5.678  13.407  0.00  0.00    +0.000 OA
ATOM     35  H   UNL     1      42.149   6.254  13.095  0.00  0.00    +0.000 HD
ENDBRANCH  33  34
ENDBRANCH  26  33
ENDBRANCH  24  26
ENDBRANCH  23  24
ENDBRANCH   4  23
TORSDOF 9
ENDMDL
MODEL 8
REMARK VINA RESULT:    -6.207      6.095      7.394
REMARK INTER + INTRA:         -10.526
REMARK INTER:                  -9.536
REMARK INTRA:                  -0.990
REMARK UNBOUND:                -1.235
REMARK  Name = 
REMARK  9 active torsions:
REMARK  status: ('A' for Active; 'I' for Inactive)
REMARK    1  A    between atoms: C_2  and  C_21
REMARK    2  A    between atoms: N_3  and  C_4
REMARK    3  A    between atoms: C_4  and  C_5
REMARK    4  A    between atoms: C_8  and  C_9
REMARK    5  A    between atoms: C_9  and  N_10
REMARK    6  A    between atoms: N_10  and  CA_11
REMARK    7  A    between atoms: CA_11  and  C_12
REMARK    8  A    between atoms: CA_11  and  C_14
REMARK    9  A    between atoms: C_12  and  O_13
REMARK                            x       y       z     vdW  Elec       q    Type
REMARK                         _______ _______ _______ _____ _____    ______ ____
ROOT
ATOM      1  C   UNL     1      49.540   7.614  12.377  0.00  0.00    +0.000 A 
ATOM      2  C   UNL     1      48.527   7.702  11.411  0.00  0.00    +0.000 A 
ATOM      3  C   UNL     1      47.246   7.200  11.666  0.00  0.00    +0.000 A 
ATOM      4  C   UNL     1      46.951   6.598  12.893  0.00  0.00    +0.000 A 
ATOM      5  C   UNL     1      47.958   6.550  13.873  0.00  0.00    +0.000 A 
ATOM      6  C   UNL     1      49.236   7.054  13.621  0.00  0.00    +0.000 A 
ENDROOT
BRANCH   1   7
ATOM      7  C   UNL     1      50.927   8.113  12.081  0.00  0.00    +0.000 C 
BRANCH   7  10
ATOM      8  O   UNL     1      53.042   9.360  10.848  0.00  0.00    +0.000 OA
ATOM      9  C   UNL     1      52.418   8.519  10.201  0.00  0.00    +0.000 C 
ATOM     10  N   UNL     1      51.309   7.891  10.710  0.00  0.00    +0.000 N 
ATOM     11  H   UNL     1      50.946   7.062  10.251  0.00  0.00    +0.000 HD
BRANCH   9  12
ATOM     12  C   UNL     1      52.804   8.180   8.831  0.00  0.00    +0.000 A 
ATOM     13  C   UNL     1      52.759   9.154   7.842  0.00  0.00    +0.000 A 
ATOM     14  S   UNL     1      53.267   8.598   6.312  0.00  0.00    +0.000 S 
ATOM     15  C   UNL     1      53.600   7.047   6.928  0.00  0.00    +0.000 A 
ATOM     16  N   UNL     1      54.120   6.077   6.131  0.00  0.00    +0.000 NA
ATOM     17  C   UNL     1      54.358   4.960   6.735  0.00  0.00    +0.000 A 
ATOM     18  N   UNL     1      54.109   4.723   8.065  0.00  0.00    +0.000 N 
ATOM     19  C   UNL     1      53.546   5.660   8.897  0.00  0.00    +0.000 A 
ATOM     20  O   UNL     1      53.270   5.395  10.062  0.00  0.00    +0.000 OA
ATOM     21  C   UNL     1      53.293   6.944   8.273  0.00  0.00    +0.000 A 
ATOM     22  H   UNL     1      54.299   3.819   8.472  0.00  0.00    +0.000 HD
ENDBRANCH   9  12
ENDBRANCH   7  10
ENDBRANCH   1   7
BRANCH   4  23
ATOM     23  C   UNL     1      45.568   6.097  13.248  0.00  0.00    +0.000 C 
BRANCH  23  24
ATOM     24  N   UNL     1      45.151   4.871  12.552  0.00  0.00    +0.000 NA
ATOM     25  H   UNL     1      44.634   4.302  13.229  0.00  0.00    +0.000 HD
BRANCH  24  26
ATOM     26  CA  UNL     1      44.168   5.206  11.473  0.00  0.00    +0.000 C 
BRANCH  26  27
ATOM     27  C   UNL     1      44.391   4.291  10.260  0.00  0.00    +0.000 C 
ATOM     28  N   UNL     1      44.182   2.997  10.326  0.00  0.00    +0.000 NA
ATOM     29  C   UNL     1      44.607   2.477   8.989  0.00  0.00    +0.000 C 
ATOM     30  C   UNL     1      44.995   3.685   8.123  0.00  0.00    +0.000 C 
ATOM     31  N   UNL     1      44.815   4.756   9.050  0.00  0.00    +0.000 N 
ATOM     32  H   UNL     1      45.058   5.725   8.893  0.00  0.00    +0.000 HD
ENDBRANCH  26  27
BRANCH  26  33
ATOM     33  C   UNL     1      42.695   5.053  11.913  0.00  0.00    +0.000 C 
BRANCH  33  34
ATOM     34  O   UNL     1      41.985   6.284  11.740  0.00  0.00    +0.000 OA
ATOM     35  H   UNL     1      41.955   6.711  12.615  0.00  0.00    +0.000 HD
ENDBRANCH  33  34
ENDBRANCH  26  33
ENDBRANCH  24  26
ENDBRANCH  23  24
ENDBRANCH   4  23
TORSDOF 9
ENDMDL
MODEL 9
REMARK VINA RESULT:    -6.172      3.791      9.476
REMARK INTER + INTRA:         -10.474
REMARK INTER:                  -9.017
REMARK INTRA:                  -1.457
REMARK UNBOUND:                -1.235
REMARK  Name = 
REMARK  9 active torsions:
REMARK  status: ('A' for Active; 'I' for Inactive)
REMARK    1  A    between atoms: C_2  and  C_21
REMARK    2  A    between atoms: N_3  and  C_4
REMARK    3  A    between atoms: C_4  and  C_5
REMARK    4  A    between atoms: C_8  and  C_9
REMARK    5  A    between atoms: C_9  and  N_10
REMARK    6  A    between atoms: N_10  and  CA_11
REMARK    7  A    between atoms: CA_11  and  C_12
REMARK    8  A    between atoms: CA_11  and  C_14
REMARK    9  A    between atoms: C_12  and  O_13
REMARK                            x       y       z     vdW  Elec       q    Type
REMARK                         _______ _______ _______ _____ _____    ______ ____
ROOT
ATOM      1  C   UNL     1      46.266   7.125  12.365  0.00  0.00    +0.000 A 
ATOM      2  C   UNL     1      46.328   8.437  12.857  0.00  0.00    +0.000 A 
ATOM      3  C   UNL     1      47.274   8.799  13.822  0.00  0.00    +0.000 A 
ATOM      4  C   UNL     1      48.178   7.855  14.318  0.00  0.00    +0.000 A 
ATOM      5  C   UNL     1      48.139   6.551  13.792  0.00  0.00    +0.000 A 
ATOM      6  C   UNL     1      47.198   6.191  12.825  0.00  0.00    +0.000 A 
ENDROOT
BRANCH   1   7
ATOM      7  C   UNL     1      45.218   6.730  11.362  0.00  0.00    +0.000 C 
BRANCH   7  10
ATOM      8  O   UNL     1      43.319   5.079  10.259  0.00  0.00    +0.000 OA
ATOM      9  C   UNL     1      44.499   4.743  10.156  0.00  0.00    +0.000 C 
ATOM     10  N   UNL     1      45.512   5.470  10.729  0.00  0.00    +0.000 N 
ATOM     11  H   UNL     1      46.473   5.297  10.454  0.00  0.00    +0.000 HD
BRANCH   9  12
ATOM     12  C   UNL     1      44.877   3.518   9.449  0.00  0.00    +0.000 A 
ATOM     13  C   UNL     1      44.237   2.324   9.752  0.00  0.00    +0.000 A 
ATOM     14  S   UNL     1      44.779   1.004   8.819  0.00  0.00    +0.000 S 
ATOM     15  C   UNL     1      45.861   1.991   7.952  0.00  0.00    +0.000 A 
ATOM     16  N   UNL     1      46.618   1.482   6.947  0.00  0.00    +0.000 NA
ATOM     17  C   UNL     1      47.368   2.349   6.350  0.00  0.00    +0.000 A 
ATOM     18  N   UNL     1      47.436   3.680   6.680  0.00  0.00    +0.000 N 
ATOM     19  C   UNL     1      46.720   4.230   7.716  0.00  0.00    +0.000 A 
ATOM     20  O   UNL     1      46.855   5.407   8.031  0.00  0.00    +0.000 OA
ATOM     21  C   UNL     1      45.835   3.303   8.395  0.00  0.00    +0.000 A 
ATOM     22  H   UNL     1      48.059   4.302   6.187  0.00  0.00    +0.000 HD
ENDBRANCH   9  12
ENDBRANCH   7  10
ENDBRANCH   1   7
BRANCH   4  23
ATOM     23  C   UNL     1      49.264   8.204  15.312  0.00  0.00    +0.000 C 
BRANCH  23  24
ATOM     24  N   UNL     1      49.931   7.052  15.938  0.00  0.00    +0.000 NA
ATOM     25  H   UNL     1      50.884   7.346  16.170  0.00  0.00    +0.000 HD
BRANCH  24  26
ATOM     26  CA  UNL     1      49.277   6.733  17.247  0.00  0.00    +0.000 C 
BRANCH  26  27
ATOM     27  C   UNL     1      48.660   5.328  17.196  0.00  0.00    +0.000 C 
ATOM     28  N   UNL     1      49.390   4.264  16.957  0.00  0.00    +0.000 NA
ATOM     29  C   UNL     1      48.407   3.138  16.893  0.00  0.00    +0.000 C 
ATOM     30  C   UNL     1      47.022   3.711  17.229  0.00  0.00    +0.000 C 
ATOM     31  N   UNL     1      47.331   5.096  17.392  0.00  0.00    +0.000 N 
ATOM     32  H   UNL     1      46.662   5.842  17.533  0.00  0.00    +0.000 HD
ENDBRANCH  26  27
BRANCH  26  33
ATOM     33  C   UNL     1      50.251   6.776  18.447  0.00  0.00    +0.000 C 
BRANCH  33  34
ATOM     34  O   UNL     1      49.916   5.767  19.406  0.00  0.00    +0.000 OA
ATOM     35  H   UNL     1      49.894   6.208  20.274  0.00  0.00    +0.000 HD
ENDBRANCH  33  34
ENDBRANCH  26  33
ENDBRANCH  24  26
ENDBRANCH  23  24
ENDBRANCH   4  23
TORSDOF 9
ENDMDL
