MODEL 1
REMARK VINA RESULT:    -6.965      0.000      0.000
REMARK INTER + INTRA:          -9.562
REMARK INTER:                  -9.000
REMARK INTRA:                  -0.561
REMARK UNBOUND:                -0.561
REMARK  Name = 
REMARK  8 active torsions:
REMARK  status: ('A' for Active; 'I' for Inactive)
REMARK    1  A    between atoms: C_1  and  C_2
REMARK    2  A    between atoms: C_2  and  N_3
REMARK    3  A    between atoms: C_4  and  C_6
REMARK    4  A    between atoms: N_10  and  C_11
REMARK    5  A    between atoms: C_11  and  C_12
REMARK    6  A    between atoms: C_12  and  C_13
REMARK    7  A    between atoms: C_12  and  C_14
REMARK    8  A    between atoms: C_12  and  C_15
REMARK                            x       y       z     vdW  Elec       q    Type
REMARK                         _______ _______ _______ _____ _____    ______ ____
ROOT
ATOM      1  C   UNL     1      45.261   4.146  11.382  0.00  0.00    +0.000 A 
ATOM      2  C   UNL     1      45.643   5.475  11.539  0.00  0.00    +0.000 A 
ATOM      3  C   UNL     1      46.159   5.892  12.764  0.00  0.00    +0.000 A 
ATOM      4  C   UNL     1      46.312   4.977  13.806  0.00  0.00    +0.000 A 
ATOM      5  N   UNL     1      46.983   5.413  14.945  0.00  0.00    +0.000 N 
ATOM      6  N   UNL     1      45.916   3.693  13.673  0.00  0.00    +0.000 NA
ATOM      7  C   UNL     1      45.380   3.311  12.481  0.00  0.00    +0.000 A 
ATOM      8  H   UNL     1      46.613   6.270  15.338  0.00  0.00    +0.000 HD
ENDROOT
BRANCH   1  10
ATOM      9  N   UNL     1      45.395   4.056   8.964  0.00  0.00    +0.000 N 
ATOM     10  C   UNL     1      44.743   3.624  10.101  0.00  0.00    +0.000 C 
ATOM     11  O   UNL     1      43.794   2.840  10.090  0.00  0.00    +0.000 OA
ATOM     12  H   UNL     1      46.285   4.537   9.056  0.00  0.00    +0.000 HD
BRANCH   9  14
ATOM     13  C   UNL     1      46.184   3.025   6.883  0.00  0.00    +0.000 C 
ATOM     14  C   UNL     1      45.013   3.621   7.640  0.00  0.00    +0.000 C 
ENDBRANCH   9  14
ENDBRANCH   1  10
BRANCH   5  15
ATOM     15  C   UNL     1      47.526   4.411  15.861  0.00  0.00    +0.000 C 
BRANCH  15  16
ATOM     16  C   UNL     1      48.439   5.024  16.967  0.00  0.00    +0.000 C 
ATOM     17  C   UNL     1      48.958   6.405  16.497  0.00  0.00    +0.000 C 
ATOM     18  C   UNL     1      47.657   5.223  18.283  0.00  0.00    +0.000 C 
BRANCH  16  19
ATOM     19  C   UNL     1      49.623   4.073  17.242  0.00  0.00    +0.000 A 
ATOM     20  C   UNL     1      50.782   4.517  17.888  0.00  0.00    +0.000 A 
ATOM     21  C   UNL     1      51.831   3.624  18.110  0.00  0.00    +0.000 A 
ATOM     22  C   UNL     1      51.712   2.311  17.679  0.00  0.00    +0.000 A 
ATOM     23  C   UNL     1      50.546   1.945  17.039  0.00  0.00    +0.000 A 
ATOM     24  N   UNL     1      49.512   2.789  16.816  0.00  0.00    +0.000 NA
ENDBRANCH  16  19
ENDBRANCH  15  16
ENDBRANCH   5  15
TORSDOF 5
ENDMDL
MODEL 2
REMARK VINA RESULT:    -6.831      1.241      1.781
REMARK INTER + INTRA:          -9.389
REMARK INTER:                  -8.662
REMARK INTRA:                  -0.727
REMARK UNBOUND:                -0.561
REMARK  Name = 
REMARK  8 active torsions:
REMARK  status: ('A' for Active; 'I' for Inactive)
REMARK    1  A    between atoms: C_1  and  C_2
REMARK    2  A    between atoms: C_2  and  N_3
REMARK    3  A    between atoms: C_4  and  C_6
REMARK    4  A    between atoms: N_10  and  C_11
REMARK    5  A    between atoms: C_11  and  C_12
REMARK    6  A    between atoms: C_12  and  C_13
REMARK    7  A    between atoms: C_12  and  C_14
REMARK    8  A    between atoms: C_12  and  C_15
REMARK                            x       y       z     vdW  Elec       q    Type
REMARK                         _______ _______ _______ _____ _____    ______ ____
ROOT
ATOM      1  C   UNL     1      45.237   4.701  11.463  0.00  0.00    +0.000 A 
ATOM      2  C   UNL     1      45.862   5.896  11.802  0.00  0.00    +0.000 A 
ATOM      3  C   UNL     1      46.443   6.026  13.061  0.00  0.00    +0.000 A 
ATOM      4  C   UNL     1      46.416   4.955  13.956  0.00  0.00    +0.000 A 
ATOM      5  N   UNL     1      47.154   5.087  15.129  0.00  0.00    +0.000 N 
ATOM      6  N   UNL     1      45.786   3.801  13.649  0.00  0.00    +0.000 NA
ATOM      7  C   UNL     1      45.191   3.706  12.427  0.00  0.00    +0.000 A 
ATOM      8  H   UNL     1      46.950   5.930  15.651  0.00  0.00    +0.000 HD
ENDROOT
BRANCH   1  10
ATOM      9  N   UNL     1      45.469   3.943   9.173  0.00  0.00    +0.000 N 
ATOM     10  C   UNL     1      44.634   4.478  10.133  0.00  0.00    +0.000 C 
ATOM     11  O   UNL     1      43.450   4.752   9.935  0.00  0.00    +0.000 OA
ATOM     12  H   UNL     1      46.365   3.558   9.455  0.00  0.00    +0.000 HD
BRANCH   9  14
ATOM     13  C   UNL     1      46.176   3.315   6.910  0.00  0.00    +0.000 C 
ATOM     14  C   UNL     1      45.020   3.655   7.830  0.00  0.00    +0.000 C 
ENDBRANCH   9  14
ENDBRANCH   1  10
BRANCH   5  15
ATOM     15  C   UNL     1      47.494   3.877  15.878  0.00  0.00    +0.000 C 
BRANCH  15  16
ATOM     16  C   UNL     1      48.095   4.178  17.286  0.00  0.00    +0.000 C 
ATOM     17  C   UNL     1      47.153   5.140  18.050  0.00  0.00    +0.000 C 
ATOM     18  C   UNL     1      48.238   2.882  18.114  0.00  0.00    +0.000 C 
BRANCH  16  19
ATOM     19  C   UNL     1      49.492   4.811  17.124  0.00  0.00    +0.000 A 
ATOM     20  C   UNL     1      50.635   4.207  17.659  0.00  0.00    +0.000 A 
ATOM     21  C   UNL     1      51.878   4.818  17.495  0.00  0.00    +0.000 A 
ATOM     22  C   UNL     1      51.961   6.022  16.812  0.00  0.00    +0.000 A 
ATOM     23  C   UNL     1      50.792   6.568  16.321  0.00  0.00    +0.000 A 
ATOM     24  N   UNL     1      49.576   5.992  16.461  0.00  0.00    +0.000 NA
ENDBRANCH  16  19
ENDBRANCH  15  16
ENDBRANCH   5  15
TORSDOF 5
ENDMDL
MODEL 3
REMARK VINA RESULT:    -6.522      3.016      8.493
REMARK INTER + INTRA:          -8.989
REMARK INTER:                  -8.379
REMARK INTRA:                  -0.610
REMARK UNBOUND:                -0.561
REMARK  Name = 
REMARK  8 active torsions:
REMARK  status: ('A' for Active; 'I' for Inactive)
REMARK    1  A    between atoms: C_1  and  C_2
REMARK    2  A    between atoms: C_2  and  N_3
REMARK    3  A    between atoms: C_4  and  C_6
REMARK    4  A    between atoms: N_10  and  C_11
REMARK    5  A    between atoms: C_11  and  C_12
REMARK    6  A    between atoms: C_12  and  C_13
REMARK    7  A    between atoms: C_12  and  C_14
REMARK    8  A    between atoms: C_12  and  C_15
REMARK                            x       y       z     vdW  Elec       q    Type
REMARK                         _______ _______ _______ _____ _____    ______ ____
ROOT
ATOM      1  C   UNL     1      48.308   5.369  16.599  0.00  0.00    +0.000 A 
ATOM      2  C   UNL     1      48.625   6.336  15.650  0.00  0.00    +0.000 A 
ATOM      3  C   UNL     1      48.059   6.252  14.380  0.00  0.00    +0.000 A 
ATOM      4  C   UNL     1      47.167   5.222  14.080  0.00  0.00    +0.000 A 
ATOM      5  N   UNL     1      46.510   5.285  12.854  0.00  0.00    +0.000 N 
ATOM      6  N   UNL     1      46.877   4.261  14.983  0.00  0.00    +0.000 NA
ATOM      7  C   UNL     1      47.468   4.339  16.208  0.00  0.00    +0.000 A 
ATOM      8  H   UNL     1      47.130   5.398  12.061  0.00  0.00    +0.000 HD
ENDROOT
BRANCH   1  10
ATOM      9  N   UNL     1      47.957   5.062  18.977  0.00  0.00    +0.000 N 
ATOM     10  C   UNL     1      48.839   5.416  17.977  0.00  0.00    +0.000 C 
ATOM     11  O   UNL     1      50.009   5.742  18.179  0.00  0.00    +0.000 OA
ATOM     12  H   UNL     1      47.079   4.616  18.728  0.00  0.00    +0.000 HD
BRANCH   9  14
ATOM     13  C   UNL     1      47.706   6.192  21.139  0.00  0.00    +0.000 C 
ATOM     14  C   UNL     1      48.334   5.045  20.372  0.00  0.00    +0.000 C 
ENDBRANCH   9  14
ENDBRANCH   1  10
BRANCH   5  15
ATOM     15  C   UNL     1      45.295   4.492  12.674  0.00  0.00    +0.000 C 
BRANCH  15  16
ATOM     16  C   UNL     1      44.437   4.955  11.455  0.00  0.00    +0.000 C 
ATOM     17  C   UNL     1      42.939   4.711  11.760  0.00  0.00    +0.000 C 
ATOM     18  C   UNL     1      44.635   6.462  11.180  0.00  0.00    +0.000 C 
BRANCH  16  19
ATOM     19  C   UNL     1      44.863   4.169  10.198  0.00  0.00    +0.000 A 
ATOM     20  C   UNL     1      45.586   4.777   9.166  0.00  0.00    +0.000 A 
ATOM     21  C   UNL     1      45.945   4.029   8.044  0.00  0.00    +0.000 A 
ATOM     22  C   UNL     1      45.570   2.696   7.964  0.00  0.00    +0.000 A 
ATOM     23  C   UNL     1      44.848   2.165   9.014  0.00  0.00    +0.000 A 
ATOM     24  N   UNL     1      44.494   2.865  10.115  0.00  0.00    +0.000 NA
ENDBRANCH  16  19
ENDBRANCH  15  16
ENDBRANCH   5  15
TORSDOF 5
ENDMDL
MODEL 4
REMARK VINA RESULT:    -6.196      5.150      7.744
REMARK INTER + INTRA:          -8.568
REMARK INTER:                  -7.715
REMARK INTRA:                  -0.853
REMARK UNBOUND:                -0.561
REMARK  Name = 
REMARK  8 active torsions:
REMARK  status: ('A' for Active; 'I' for Inactive)
REMARK    1  A    between atoms: C_1  and  C_2
REMARK    2  A    between atoms: C_2  and  N_3
REMARK    3  A    between atoms: C_4  and  C_6
REMARK    4  A    between atoms: N_10  and  C_11
REMARK    5  A    between atoms: C_11  and  C_12
REMARK    6  A    between atoms: C_12  and  C_13
REMARK    7  A    between atoms: C_12  and  C_14
REMARK    8  A    between atoms: C_12  and  C_15
REMARK                            x       y       z     vdW  Elec       q    Type
REMARK                         _______ _______ _______ _____ _____    ______ ____
ROOT
ATOM      1  C   UNL     1      48.186   8.692  12.130  0.00  0.00    +0.000 A 
ATOM      2  C   UNL     1      47.047   9.220  12.728  0.00  0.00    +0.000 A 
ATOM      3  C   UNL     1      45.920   8.415  12.871  0.00  0.00    +0.000 A 
ATOM      4  C   UNL     1      45.951   7.088  12.442  0.00  0.00    +0.000 A 
ATOM      5  N   UNL     1      44.856   6.289  12.761  0.00  0.00    +0.000 N 
ATOM      6  N   UNL     1      47.041   6.574  11.833  0.00  0.00    +0.000 NA
ATOM      7  C   UNL     1      48.121   7.387  11.667  0.00  0.00    +0.000 A 
ATOM      8  H   UNL     1      43.965   6.683  12.485  0.00  0.00    +0.000 HD
ENDROOT
BRANCH   1  10
ATOM      9  N   UNL     1      50.561   8.755  11.651  0.00  0.00    +0.000 N 
ATOM     10  C   UNL     1      49.431   9.475  11.979  0.00  0.00    +0.000 C 
ATOM     11  O   UNL     1      49.416  10.696  12.130  0.00  0.00    +0.000 OA
ATOM     12  H   UNL     1      50.464   7.790  11.349  0.00  0.00    +0.000 HD
BRANCH   9  14
ATOM     13  C   UNL     1      52.910   8.377  11.054  0.00  0.00    +0.000 C 
ATOM     14  C   UNL     1      51.848   9.382  11.456  0.00  0.00    +0.000 C 
ENDBRANCH   9  14
ENDBRANCH   1  10
BRANCH   5  15
ATOM     15  C   UNL     1      45.015   4.836  12.710  0.00  0.00    +0.000 C 
BRANCH  15  16
ATOM     16  C   UNL     1      43.951   4.135  11.811  0.00  0.00    +0.000 C 
ATOM     17  C   UNL     1      43.472   2.834  12.501  0.00  0.00    +0.000 C 
ATOM     18  C   UNL     1      42.723   5.047  11.593  0.00  0.00    +0.000 C 
BRANCH  16  19
ATOM     19  C   UNL     1      44.570   3.814  10.435  0.00  0.00    +0.000 A 
ATOM     20  C   UNL     1      44.589   2.510   9.928  0.00  0.00    +0.000 A 
ATOM     21  C   UNL     1      45.165   2.264   8.682  0.00  0.00    +0.000 A 
ATOM     22  C   UNL     1      45.721   3.314   7.967  0.00  0.00    +0.000 A 
ATOM     23  C   UNL     1      45.677   4.573   8.533  0.00  0.00    +0.000 A 
ATOM     24  N   UNL     1      45.119   4.839   9.735  0.00  0.00    +0.000 NA
ENDBRANCH  16  19
ENDBRANCH  15  16
ENDBRANCH   5  15
TORSDOF 5
ENDMDL
MODEL 5
REMARK VINA RESULT:    -6.062      2.122      2.632
REMARK INTER + INTRA:          -8.395
REMARK INTER:                  -7.646
REMARK INTRA:                  -0.749
REMARK UNBOUND:                -0.561
REMARK  Name = 
REMARK  8 active torsions:
REMARK  status: ('A' for Active; 'I' for Inactive)
REMARK    1  A    between atoms: C_1  and  C_2
REMARK    2  A    between atoms: C_2  and  N_3
REMARK    3  A    between atoms: C_4  and  C_6
REMARK    4  A    between atoms: N_10  and  C_11
REMARK    5  A    between atoms: C_11  and  C_12
REMARK    6  A    between atoms: C_12  and  C_13
REMARK    7  A    between atoms: C_12  and  C_14
REMARK    8  A    between atoms: C_12  and  C_15
REMARK                            x       y       z     vdW  Elec       q    Type
REMARK                         _______ _______ _______ _____ _____    ______ ____
ROOT
ATOM      1  C   UNL     1      45.238   5.873  11.526  0.00  0.00    +0.000 A 
ATOM      2  C   UNL     1      44.982   7.184  11.915  0.00  0.00    +0.000 A 
ATOM      3  C   UNL     1      45.795   7.778  12.878  0.00  0.00    +0.000 A 
ATOM      4  C   UNL     1      46.866   7.068  13.420  0.00  0.00    +0.000 A 
ATOM      5  N   UNL     1      47.738   7.767  14.251  0.00  0.00    +0.000 N 
ATOM      6  N   UNL     1      47.105   5.786  13.072  0.00  0.00    +0.000 NA
ATOM      7  C   UNL     1      46.278   5.209  12.158  0.00  0.00    +0.000 A 
ATOM      8  H   UNL     1      47.279   8.260  15.007  0.00  0.00    +0.000 HD
ENDROOT
BRANCH   1  10
ATOM      9  N   UNL     1      45.155   4.677   9.420  0.00  0.00    +0.000 N 
ATOM     10  C   UNL     1      44.442   5.192  10.484  0.00  0.00    +0.000 C 
ATOM     11  O   UNL     1      43.221   5.097  10.600  0.00  0.00    +0.000 OA
ATOM     12  H   UNL     1      46.166   4.615   9.485  0.00  0.00    +0.000 HD
BRANCH   9  14
ATOM     13  C   UNL     1      45.534   3.360   7.386  0.00  0.00    +0.000 C 
ATOM     14  C   UNL     1      44.519   3.972   8.331  0.00  0.00    +0.000 C 
ENDBRANCH   9  14
ENDBRANCH   1  10
BRANCH   5  15
ATOM     15  C   UNL     1      49.066   7.206  14.498  0.00  0.00    +0.000 C 
BRANCH  15  16
ATOM     16  C   UNL     1      49.405   7.080  16.015  0.00  0.00    +0.000 C 
ATOM     17  C   UNL     1      50.930   6.869  16.184  0.00  0.00    +0.000 C 
ATOM     18  C   UNL     1      49.006   8.361  16.780  0.00  0.00    +0.000 C 
BRANCH  16  19
ATOM     19  C   UNL     1      48.630   5.890  16.618  0.00  0.00    +0.000 A 
ATOM     20  C   UNL     1      48.231   5.881  17.959  0.00  0.00    +0.000 A 
ATOM     21  C   UNL     1      47.537   4.781  18.464  0.00  0.00    +0.000 A 
ATOM     22  C   UNL     1      47.261   3.708  17.631  0.00  0.00    +0.000 A 
ATOM     23  C   UNL     1      47.694   3.779  16.322  0.00  0.00    +0.000 A 
ATOM     24  N   UNL     1      48.362   4.835  15.806  0.00  0.00    +0.000 NA
ENDBRANCH  16  19
ENDBRANCH  15  16
ENDBRANCH   5  15
TORSDOF 5
ENDMDL
MODEL 6
REMARK VINA RESULT:    -6.012      3.979      8.205
REMARK INTER + INTRA:          -8.330
REMARK INTER:                  -7.592
REMARK INTRA:                  -0.739
REMARK UNBOUND:                -0.561
REMARK  Name = 
REMARK  8 active torsions:
REMARK  status: ('A' for Active; 'I' for Inactive)
REMARK    1  A    between atoms: C_1  and  C_2
REMARK    2  A    between atoms: C_2  and  N_3
REMARK    3  A    between atoms: C_4  and  C_6
REMARK    4  A    between atoms: N_10  and  C_11
REMARK    5  A    between atoms: C_11  and  C_12
REMARK    6  A    between atoms: C_12  and  C_13
REMARK    7  A    between atoms: C_12  and  C_14
REMARK    8  A    between atoms: C_12  and  C_15
REMARK                            x       y       z     vdW  Elec       q    Type
REMARK                         _______ _______ _______ _____ _____    ______ ____
ROOT
ATOM      1  C   UNL     1      49.349   7.706  13.622  0.00  0.00    +0.000 A 
ATOM      2  C   UNL     1      48.848   8.311  12.474  0.00  0.00    +0.000 A 
ATOM      3  C   UNL     1      47.816   7.690  11.775  0.00  0.00    +0.000 A 
ATOM      4  C   UNL     1      47.280   6.490  12.242  0.00  0.00    +0.000 A 
ATOM      5  N   UNL     1      46.145   6.005  11.597  0.00  0.00    +0.000 N 
ATOM      6  N   UNL     1      47.779   5.879  13.338  0.00  0.00    +0.000 NA
ATOM      7  C   UNL     1      48.813   6.482  13.988  0.00  0.00    +0.000 A 
ATOM      8  H   UNL     1      46.244   5.929  10.592  0.00  0.00    +0.000 HD
ENDROOT
BRANCH   1  10
ATOM      9  N   UNL     1      51.667   7.754  14.327  0.00  0.00    +0.000 N 
ATOM     10  C   UNL     1      50.416   8.326  14.436  0.00  0.00    +0.000 C 
ATOM     11  O   UNL     1      50.168   9.302  15.143  0.00  0.00    +0.000 OA
ATOM     12  H   UNL     1      51.844   7.086  13.583  0.00  0.00    +0.000 HD
BRANCH   9  14
ATOM     13  C   UNL     1      54.059   7.440  14.769  0.00  0.00    +0.000 C 
ATOM     14  C   UNL     1      52.813   8.257  15.050  0.00  0.00    +0.000 C 
ENDBRANCH   9  14
ENDBRANCH   1  10
BRANCH   5  15
ATOM     15  C   UNL     1      45.321   5.013  12.287  0.00  0.00    +0.000 C 
BRANCH  15  16
ATOM     16  C   UNL     1      44.182   4.435  11.393  0.00  0.00    +0.000 C 
ATOM     17  C   UNL     1      43.400   3.360  12.189  0.00  0.00    +0.000 C 
ATOM     18  C   UNL     1      43.190   5.543  10.975  0.00  0.00    +0.000 C 
BRANCH  16  19
ATOM     19  C   UNL     1      44.792   3.818  10.117  0.00  0.00    +0.000 A 
ATOM     20  C   UNL     1      44.854   2.433   9.934  0.00  0.00    +0.000 A 
ATOM     21  C   UNL     1      45.420   1.918   8.767  0.00  0.00    +0.000 A 
ATOM     22  C   UNL     1      45.921   2.788   7.810  0.00  0.00    +0.000 A 
ATOM     23  C   UNL     1      45.836   4.142   8.062  0.00  0.00    +0.000 A 
ATOM     24  N   UNL     1      45.287   4.667   9.181  0.00  0.00    +0.000 NA
ENDBRANCH  16  19
ENDBRANCH  15  16
ENDBRANCH   5  15
TORSDOF 5
ENDMDL
MODEL 7
REMARK VINA RESULT:    -5.652      3.285      5.078
REMARK INTER + INTRA:          -7.866
REMARK INTER:                  -7.059
REMARK INTRA:                  -0.807
REMARK UNBOUND:                -0.561
REMARK  Name = 
REMARK  8 active torsions:
REMARK  status: ('A' for Active; 'I' for Inactive)
REMARK    1  A    between atoms: C_1  and  C_2
REMARK    2  A    between atoms: C_2  and  N_3
REMARK    3  A    between atoms: C_4  and  C_6
REMARK    4  A    between atoms: N_10  and  C_11
REMARK    5  A    between atoms: C_11  and  C_12
REMARK    6  A    between atoms: C_12  and  C_13
REMARK    7  A    between atoms: C_12  and  C_14
REMARK    8  A    between atoms: C_12  and  C_15
REMARK                            x       y       z     vdW  Elec       q    Type
REMARK                         _______ _______ _______ _____ _____    ______ ____
ROOT
ATOM      1  C   UNL     1      44.979   4.596  11.739  0.00  0.00    +0.000 A 
ATOM      2  C   UNL     1      44.739   5.939  11.468  0.00  0.00    +0.000 A 
ATOM      3  C   UNL     1      45.372   6.911  12.238  0.00  0.00    +0.000 A 
ATOM      4  C   UNL     1      46.254   6.533  13.251  0.00  0.00    +0.000 A 
ATOM      5  N   UNL     1      46.980   7.546  13.874  0.00  0.00    +0.000 N 
ATOM      6  N   UNL     1      46.471   5.233  13.542  0.00  0.00    +0.000 NA
ATOM      7  C   UNL     1      45.815   4.297  12.803  0.00  0.00    +0.000 A 
ATOM      8  H   UNL     1      46.408   8.303  14.228  0.00  0.00    +0.000 HD
ENDROOT
BRANCH   1  10
ATOM      9  N   UNL     1      45.159   2.996   9.927  0.00  0.00    +0.000 N 
ATOM     10  C   UNL     1      44.373   3.511  10.939  0.00  0.00    +0.000 C 
ATOM     11  O   UNL     1      43.240   3.108  11.199  0.00  0.00    +0.000 OA
ATOM     12  H   UNL     1      46.145   3.233   9.897  0.00  0.00    +0.000 HD
BRANCH   9  14
ATOM     13  C   UNL     1      45.853   1.322   8.275  0.00  0.00    +0.000 C 
ATOM     14  C   UNL     1      44.710   1.923   9.070  0.00  0.00    +0.000 C 
ENDBRANCH   9  14
ENDBRANCH   1  10
BRANCH   5  15
ATOM     15  C   UNL     1      48.184   7.182  14.619  0.00  0.00    +0.000 C 
BRANCH  15  16
ATOM     16  C   UNL     1      49.215   8.348  14.722  0.00  0.00    +0.000 C 
ATOM     17  C   UNL     1      48.854   9.248  15.929  0.00  0.00    +0.000 C 
ATOM     18  C   UNL     1      50.646   7.805  14.935  0.00  0.00    +0.000 C 
BRANCH  16  19
ATOM     19  C   UNL     1      49.195   9.170  13.416  0.00  0.00    +0.000 A 
ATOM     20  C   UNL     1      50.140   8.962  12.407  0.00  0.00    +0.000 A 
ATOM     21  C   UNL     1      50.087   9.732  11.245  0.00  0.00    +0.000 A 
ATOM     22  C   UNL     1      49.104  10.701  11.113  0.00  0.00    +0.000 A 
ATOM     23  C   UNL     1      48.211  10.860  12.153  0.00  0.00    +0.000 A 
ATOM     24  N   UNL     1      48.236  10.122  13.286  0.00  0.00    +0.000 NA
ENDBRANCH  16  19
ENDBRANCH  15  16
ENDBRANCH   5  15
TORSDOF 5
ENDMDL
MODEL 8
REMARK VINA RESULT:    -5.309      2.596      4.413
REMARK INTER + INTRA:          -7.422
REMARK INTER:                  -6.468
REMARK INTRA:                  -0.954
REMARK UNBOUND:                -0.561
REMARK  Name = 
REMARK  8 active torsions:
REMARK  status: ('A' for Active; 'I' for Inactive)
REMARK    1  A    between atoms: C_1  and  C_2
REMARK    2  A    between atoms: C_2  and  N_3
REMARK    3  A    between atoms: C_4  and  C_6
REMARK    4  A    between atoms: N_10  and  C_11
REMARK    5  A    between atoms: C_11  and  C_12
REMARK    6  A    between atoms: C_12  and  C_13
REMARK    7  A    between atoms: C_12  and  C_14
REMARK    8  A    between atoms: C_12  and  C_15
REMARK                            x       y       z     vdW  Elec       q    Type
REMARK                         _______ _______ _______ _____ _____    ______ ____
ROOT
ATOM      1  C   UNL     1      46.714   5.004  13.787  0.00  0.00    +0.000 A 
ATOM      2  C   UNL     1      47.362   6.205  13.518  0.00  0.00    +0.000 A 
ATOM      3  C   UNL     1      48.299   6.689  14.428  0.00  0.00    +0.000 A 
ATOM      4  C   UNL     1      48.595   5.959  15.580  0.00  0.00    +0.000 A 
ATOM      5  N   UNL     1      49.654   6.409  16.365  0.00  0.00    +0.000 N 
ATOM      6  N   UNL     1      47.950   4.808  15.865  0.00  0.00    +0.000 NA
ATOM      7  C   UNL     1      47.011   4.369  14.982  0.00  0.00    +0.000 A 
ATOM      8  H   UNL     1      49.586   7.385  16.626  0.00  0.00    +0.000 HD
ENDROOT
BRANCH   1  10
ATOM      9  N   UNL     1      45.114   5.290  11.989  0.00  0.00    +0.000 N 
ATOM     10  C   UNL     1      45.738   4.410  12.849  0.00  0.00    +0.000 C 
ATOM     11  O   UNL     1      45.534   3.196  12.854  0.00  0.00    +0.000 OA
ATOM     12  H   UNL     1      45.472   6.237  11.903  0.00  0.00    +0.000 HD
BRANCH   9  14
ATOM     13  C   UNL     1      42.725   5.008  11.510  0.00  0.00    +0.000 C 
ATOM     14  C   UNL     1      44.147   4.858  11.006  0.00  0.00    +0.000 C 
ENDBRANCH   9  14
ENDBRANCH   1  10
BRANCH   5  15
ATOM     15  C   UNL     1      50.260   5.479  17.317  0.00  0.00    +0.000 C 
BRANCH  15  16
ATOM     16  C   UNL     1      49.879   5.785  18.798  0.00  0.00    +0.000 C 
ATOM     17  C   UNL     1      48.932   4.679  19.324  0.00  0.00    +0.000 C 
ATOM     18  C   UNL     1      51.135   5.814  19.697  0.00  0.00    +0.000 C 
BRANCH  16  19
ATOM     19  C   UNL     1      49.189   7.163  18.877  0.00  0.00    +0.000 A 
ATOM     20  C   UNL     1      47.818   7.280  19.127  0.00  0.00    +0.000 A 
ATOM     21  C   UNL     1      47.235   8.546  19.184  0.00  0.00    +0.000 A 
ATOM     22  C   UNL     1      48.022   9.670  18.983  0.00  0.00    +0.000 A 
ATOM     23  C   UNL     1      49.366   9.480  18.730  0.00  0.00    +0.000 A 
ATOM     24  N   UNL     1      49.957   8.265  18.676  0.00  0.00    +0.000 NA
ENDBRANCH  16  19
ENDBRANCH  15  16
ENDBRANCH   5  15
TORSDOF 5
ENDMDL
MODEL 9
REMARK VINA RESULT:    -5.258      1.577      2.002
REMARK INTER + INTRA:          -7.356
REMARK INTER:                  -6.783
REMARK INTRA:                  -0.573
REMARK UNBOUND:                -0.561
REMARK  Name = 
REMARK  8 active torsions:
REMARK  status: ('A' for Active; 'I' for Inactive)
REMARK    1  A    between atoms: C_1  and  C_2
REMARK    2  A    between atoms: C_2  and  N_3
REMARK    3  A    between atoms: C_4  and  C_6
REMARK    4  A    between atoms: N_10  and  C_11
REMARK    5  A    between atoms: C_11  and  C_12
REMARK    6  A    between atoms: C_12  and  C_13
REMARK    7  A    between atoms: C_12  and  C_14
REMARK    8  A    between atoms: C_12  and  C_15
REMARK                            x       y       z     vdW  Elec       q    Type
REMARK                         _______ _______ _______ _____ _____    ______ ____
ROOT
ATOM      1  C   UNL     1      45.344   5.796  11.681  0.00  0.00    +0.000 A 
ATOM      2  C   UNL     1      45.297   7.158  11.961  0.00  0.00    +0.000 A 
ATOM      3  C   UNL     1      46.113   7.673  12.965  0.00  0.00    +0.000 A 
ATOM      4  C   UNL     1      46.984   6.831  13.658  0.00  0.00    +0.000 A 
ATOM      5  N   UNL     1      47.889   7.429  14.531  0.00  0.00    +0.000 N 
ATOM      6  N   UNL     1      47.016   5.503  13.414  0.00  0.00    +0.000 NA
ATOM      7  C   UNL     1      46.184   5.012  12.455  0.00  0.00    +0.000 A 
ATOM      8  H   UNL     1      47.460   8.052  15.204  0.00  0.00    +0.000 HD
ENDROOT
BRANCH   1  10
ATOM      9  N   UNL     1      45.239   4.723   9.511  0.00  0.00    +0.000 N 
ATOM     10  C   UNL     1      44.536   5.187  10.604  0.00  0.00    +0.000 C 
ATOM     11  O   UNL     1      43.314   5.103  10.719  0.00  0.00    +0.000 OA
ATOM     12  H   UNL     1      46.249   4.643   9.569  0.00  0.00    +0.000 HD
BRANCH   9  14
ATOM     13  C   UNL     1      44.783   2.586   8.397  0.00  0.00    +0.000 C 
ATOM     14  C   UNL     1      44.589   4.089   8.386  0.00  0.00    +0.000 C 
ENDBRANCH   9  14
ENDBRANCH   1  10
BRANCH   5  15
ATOM     15  C   UNL     1      49.064   6.664  14.947  0.00  0.00    +0.000 C 
BRANCH  15  16
ATOM     16  C   UNL     1      49.047   6.291  16.461  0.00  0.00    +0.000 C 
ATOM     17  C   UNL     1      48.722   7.553  17.297  0.00  0.00    +0.000 C 
ATOM     18  C   UNL     1      47.969   5.225  16.756  0.00  0.00    +0.000 C 
BRANCH  16  19
ATOM     19  C   UNL     1      50.422   5.720  16.866  0.00  0.00    +0.000 A 
ATOM     20  C   UNL     1      51.584   6.496  16.795  0.00  0.00    +0.000 A 
ATOM     21  C   UNL     1      52.808   5.937  17.166  0.00  0.00    +0.000 A 
ATOM     22  C   UNL     1      52.855   4.618  17.590  0.00  0.00    +0.000 A 
ATOM     23  C   UNL     1      51.672   3.908  17.624  0.00  0.00    +0.000 A 
ATOM     24  N   UNL     1      50.472   4.428  17.277  0.00  0.00    +0.000 NA
ENDBRANCH  16  19
ENDBRANCH  15  16
ENDBRANCH   5  15
TORSDOF 5
ENDMDL
