MODEL 1
REMARK VINA RESULT:    -7.582      0.000      0.000
REMARK INTER + INTRA:         -10.174
REMARK INTER:                  -9.577
REMARK INTRA:                  -0.597
REMARK UNBOUND:                -0.597
REMARK  Name = 
REMARK  5 active torsions:
REMARK  status: ('A' for Active; 'I' for Inactive)
REMARK    1  A    between atoms: N_1  and  C_2
REMARK    2  A    between atoms: C_2  and  C_3
REMARK    3  A    between atoms: C_3  and  C_4
REMARK    4  A    between atoms: C_7  and  C_8
REMARK    5  A    between atoms: C_8  and  N_9
REMARK                            x       y       z     vdW  Elec       q    Type
REMARK                         _______ _______ _______ _____ _____    ______ ____
ROOT
ATOM      1  C   UNL     1      45.838   2.608   8.277  0.00  0.00    +0.000 A 
ATOM      2  C   UNL     1      44.960   2.002   9.184  0.00  0.00    +0.000 A 
ATOM      3  C   UNL     1      44.186   2.778  10.052  0.00  0.00    +0.000 A 
ATOM      4  C   UNL     1      44.259   4.178  10.024  0.00  0.00    +0.000 A 
ATOM      5  C   UNL     1      45.139   4.781   9.117  0.00  0.00    +0.000 A 
ATOM      6  C   UNL     1      45.911   4.007   8.246  0.00  0.00    +0.000 A 
ENDROOT
BRANCH   1   7
ATOM      7  C   UNL     1      46.699   1.771   7.352  0.00  0.00    +0.000 C 
BRANCH   7   8
ATOM      8  C   UNL     1      47.895   2.541   6.792  0.00  0.00    +0.000 C 
BRANCH   8   9
ATOM      9  N   UNL     1      48.531   1.785   5.711  0.00  0.00    +0.000 NA
ATOM     10  H   UNL     1      49.538   1.945   5.734  0.00  0.00    +0.000 HD
ATOM     11  H   UNL     1      48.209   2.134   4.807  0.00  0.00    +0.000 HD
ENDBRANCH   8   9
ENDBRANCH   7   8
ENDBRANCH   1   7
BRANCH   4  12
ATOM     12  C   UNL     1      43.390   5.029  10.930  0.00  0.00    +0.000 C 
BRANCH  12  13
ATOM     13  N   UNL     1      44.102   6.139  11.533  0.00  0.00    +0.000 N 
ATOM     14  C   UNL     1      44.089   7.429  11.059  0.00  0.00    +0.000 A 
ATOM     15  C   UNL     1      44.963   8.176  11.814  0.00  0.00    +0.000 A 
ATOM     16  C   UNL     1      45.780   7.251  12.507  0.00  0.00    +0.000 A 
ATOM     17  C   UNL     1      47.026   7.357  13.151  0.00  0.00    +0.000 A 
ATOM     18  C   UNL     1      47.561   6.223  13.750  0.00  0.00    +0.000 A 
ATOM     19  F   UNL     1      48.808   6.269  14.240  0.00  0.00    +0.000 F 
ATOM     20  C   UNL     1      46.839   5.039  13.837  0.00  0.00    +0.000 A 
ATOM     21  C   UNL     1      45.596   4.912  13.208  0.00  0.00    +0.000 A 
ATOM     22  C   UNL     1      45.131   6.005  12.460  0.00  0.00    +0.000 A 
ENDBRANCH  12  13
ENDBRANCH   4  12
TORSDOF 5
ENDMDL
MODEL 2
REMARK VINA RESULT:    -7.065      1.415      2.486
REMARK INTER + INTRA:          -9.520
REMARK INTER:                  -8.940
REMARK INTRA:                  -0.581
REMARK UNBOUND:                -0.597
REMARK  Name = 
REMARK  5 active torsions:
REMARK  status: ('A' for Active; 'I' for Inactive)
REMARK    1  A    between atoms: N_1  and  C_2
REMARK    2  A    between atoms: C_2  and  C_3
REMARK    3  A    between atoms: C_3  and  C_4
REMARK    4  A    between atoms: C_7  and  C_8
REMARK    5  A    between atoms: C_8  and  N_9
REMARK                            x       y       z     vdW  Elec       q    Type
REMARK                         _______ _______ _______ _____ _____    ______ ____
ROOT
ATOM      1  C   UNL     1      45.868   2.995   7.845  0.00  0.00    +0.000 A 
ATOM      2  C   UNL     1      46.141   4.367   7.924  0.00  0.00    +0.000 A 
ATOM      3  C   UNL     1      45.781   5.100   9.060  0.00  0.00    +0.000 A 
ATOM      4  C   UNL     1      45.155   4.478  10.149  0.00  0.00    +0.000 A 
ATOM      5  C   UNL     1      44.882   3.107  10.067  0.00  0.00    +0.000 A 
ATOM      6  C   UNL     1      45.243   2.372   8.934  0.00  0.00    +0.000 A 
ENDROOT
BRANCH   1   7
ATOM      7  C   UNL     1      46.231   2.201   6.607  0.00  0.00    +0.000 C 
BRANCH   7   8
ATOM      8  C   UNL     1      47.503   1.373   6.781  0.00  0.00    +0.000 C 
BRANCH   8   9
ATOM      9  N   UNL     1      48.548   1.838   5.867  0.00  0.00    +0.000 NA
ATOM     10  H   UNL     1      49.233   2.383   6.387  0.00  0.00    +0.000 HD
ATOM     11  H   UNL     1      48.146   2.471   5.174  0.00  0.00    +0.000 HD
ENDBRANCH   8   9
ENDBRANCH   7   8
ENDBRANCH   1   7
BRANCH   4  12
ATOM     12  C   UNL     1      44.802   5.255  11.402  0.00  0.00    +0.000 C 
BRANCH  12  13
ATOM     13  N   UNL     1      45.834   5.205  12.420  0.00  0.00    +0.000 N 
ATOM     14  C   UNL     1      45.731   4.520  13.607  0.00  0.00    +0.000 A 
ATOM     15  C   UNL     1      46.847   4.793  14.363  0.00  0.00    +0.000 A 
ATOM     16  C   UNL     1      47.448   5.937  13.785  0.00  0.00    +0.000 A 
ATOM     17  C   UNL     1      48.381   6.879  14.253  0.00  0.00    +0.000 A 
ATOM     18  C   UNL     1      48.770   7.907  13.403  0.00  0.00    +0.000 A 
ATOM     19  F   UNL     1      49.543   8.892  13.880  0.00  0.00    +0.000 F 
ATOM     20  C   UNL     1      48.360   7.946  12.077  0.00  0.00    +0.000 A 
ATOM     21  C   UNL     1      47.436   7.016  11.587  0.00  0.00    +0.000 A 
ATOM     22  C   UNL     1      46.915   6.078  12.491  0.00  0.00    +0.000 A 
ENDBRANCH  12  13
ENDBRANCH   4  12
TORSDOF 5
ENDMDL
MODEL 3
REMARK VINA RESULT:    -6.930      2.672      6.505
REMARK INTER + INTRA:          -9.350
REMARK INTER:                  -8.653
REMARK INTRA:                  -0.697
REMARK UNBOUND:                -0.597
REMARK  Name = 
REMARK  5 active torsions:
REMARK  status: ('A' for Active; 'I' for Inactive)
REMARK    1  A    between atoms: N_1  and  C_2
REMARK    2  A    between atoms: C_2  and  C_3
REMARK    3  A    between atoms: C_3  and  C_4
REMARK    4  A    between atoms: C_7  and  C_8
REMARK    5  A    between atoms: C_8  and  N_9
REMARK                            x       y       z     vdW  Elec       q    Type
REMARK                         _______ _______ _______ _____ _____    ______ ____
ROOT
ATOM      1  C   UNL     1      47.054   6.159  13.256  0.00  0.00    +0.000 A 
ATOM      2  C   UNL     1      46.947   6.774  12.002  0.00  0.00    +0.000 A 
ATOM      3  C   UNL     1      45.981   6.352  11.082  0.00  0.00    +0.000 A 
ATOM      4  C   UNL     1      45.090   5.318  11.400  0.00  0.00    +0.000 A 
ATOM      5  C   UNL     1      45.199   4.705  12.654  0.00  0.00    +0.000 A 
ATOM      6  C   UNL     1      46.162   5.127  13.575  0.00  0.00    +0.000 A 
ENDROOT
BRANCH   1   7
ATOM      7  C   UNL     1      48.116   6.593  14.245  0.00  0.00    +0.000 C 
BRANCH   7   8
ATOM      8  C   UNL     1      48.407   8.092  14.189  0.00  0.00    +0.000 C 
BRANCH   8   9
ATOM      9  N   UNL     1      47.430   8.836  14.986  0.00  0.00    +0.000 NA
ATOM     10  H   UNL     1      47.854   9.699  15.322  0.00  0.00    +0.000 HD
ATOM     11  H   UNL     1      47.179   8.299  15.818  0.00  0.00    +0.000 HD
ENDBRANCH   8   9
ENDBRANCH   7   8
ENDBRANCH   1   7
BRANCH   4  12
ATOM     12  C   UNL     1      44.010   4.885  10.427  0.00  0.00    +0.000 C 
BRANCH  12  13
ATOM     13  N   UNL     1      44.325   3.655   9.727  0.00  0.00    +0.000 N 
ATOM     14  C   UNL     1      44.009   2.394  10.176  0.00  0.00    +0.000 A 
ATOM     15  C   UNL     1      44.563   1.477   9.314  0.00  0.00    +0.000 A 
ATOM     16  C   UNL     1      45.526   2.180   8.551  0.00  0.00    +0.000 A 
ATOM     17  C   UNL     1      46.623   1.774   7.770  0.00  0.00    +0.000 A 
ATOM     18  C   UNL     1      47.383   2.749   7.136  0.00  0.00    +0.000 A 
ATOM     19  F   UNL     1      48.512   2.393   6.509  0.00  0.00    +0.000 F 
ATOM     20  C   UNL     1      47.007   4.086   7.153  0.00  0.00    +0.000 A 
ATOM     21  C   UNL     1      45.917   4.513   7.919  0.00  0.00    +0.000 A 
ATOM     22  C   UNL     1      45.250   3.551   8.694  0.00  0.00    +0.000 A 
ENDBRANCH  12  13
ENDBRANCH   4  12
TORSDOF 5
ENDMDL
MODEL 4
REMARK VINA RESULT:    -6.165      2.744      6.629
REMARK INTER + INTRA:          -8.383
REMARK INTER:                  -8.166
REMARK INTRA:                  -0.217
REMARK UNBOUND:                -0.597
REMARK  Name = 
REMARK  5 active torsions:
REMARK  status: ('A' for Active; 'I' for Inactive)
REMARK    1  A    between atoms: N_1  and  C_2
REMARK    2  A    between atoms: C_2  and  C_3
REMARK    3  A    between atoms: C_3  and  C_4
REMARK    4  A    between atoms: C_7  and  C_8
REMARK    5  A    between atoms: C_8  and  N_9
REMARK                            x       y       z     vdW  Elec       q    Type
REMARK                         _______ _______ _______ _____ _____    ______ ____
ROOT
ATOM      1  C   UNL     1      47.894   6.331  14.365  0.00  0.00    +0.000 A 
ATOM      2  C   UNL     1      47.649   7.473  13.592  0.00  0.00    +0.000 A 
ATOM      3  C   UNL     1      46.626   7.480  12.638  0.00  0.00    +0.000 A 
ATOM      4  C   UNL     1      45.814   6.353  12.446  0.00  0.00    +0.000 A 
ATOM      5  C   UNL     1      46.062   5.213  13.220  0.00  0.00    +0.000 A 
ATOM      6  C   UNL     1      47.082   5.205  14.175  0.00  0.00    +0.000 A 
ENDROOT
BRANCH   1   7
ATOM      7  C   UNL     1      49.018   6.307  15.381  0.00  0.00    +0.000 C 
BRANCH   7   8
ATOM      8  C   UNL     1      48.671   5.508  16.636  0.00  0.00    +0.000 C 
BRANCH   8   9
ATOM      9  N   UNL     1      47.900   6.330  17.572  0.00  0.00    +0.000 NA
ATOM     10  H   UNL     1      46.942   6.416  17.235  0.00  0.00    +0.000 HD
ATOM     11  H   UNL     1      48.280   7.277  17.596  0.00  0.00    +0.000 HD
ENDBRANCH   8   9
ENDBRANCH   7   8
ENDBRANCH   1   7
BRANCH   4  12
ATOM     12  C   UNL     1      44.673   6.368  11.447  0.00  0.00    +0.000 C 
BRANCH  12  13
ATOM     13  N   UNL     1      44.238   5.044  11.050  0.00  0.00    +0.000 N 
ATOM     14  C   UNL     1      43.563   4.164  11.862  0.00  0.00    +0.000 A 
ATOM     15  C   UNL     1      43.420   2.974  11.187  0.00  0.00    +0.000 A 
ATOM     16  C   UNL     1      44.336   3.017  10.108  0.00  0.00    +0.000 A 
ATOM     17  C   UNL     1      44.899   2.030   9.280  0.00  0.00    +0.000 A 
ATOM     18  C   UNL     1      45.788   2.425   8.287  0.00  0.00    +0.000 A 
ATOM     19  F   UNL     1      46.443   1.489   7.586  0.00  0.00    +0.000 F 
ATOM     20  C   UNL     1      46.026   3.766   8.019  0.00  0.00    +0.000 A 
ATOM     21  C   UNL     1      45.473   4.766   8.827  0.00  0.00    +0.000 A 
ATOM     22  C   UNL     1      44.709   4.361   9.933  0.00  0.00    +0.000 A 
ENDBRANCH  12  13
ENDBRANCH   4  12
TORSDOF 5
ENDMDL
MODEL 5
REMARK VINA RESULT:    -5.403      3.229      6.383
REMARK INTER + INTRA:          -7.421
REMARK INTER:                  -6.808
REMARK INTRA:                  -0.613
REMARK UNBOUND:                -0.597
REMARK  Name = 
REMARK  5 active torsions:
REMARK  status: ('A' for Active; 'I' for Inactive)
REMARK    1  A    between atoms: N_1  and  C_2
REMARK    2  A    between atoms: C_2  and  C_3
REMARK    3  A    between atoms: C_3  and  C_4
REMARK    4  A    between atoms: C_7  and  C_8
REMARK    5  A    between atoms: C_8  and  N_9
REMARK                            x       y       z     vdW  Elec       q    Type
REMARK                         _______ _______ _______ _____ _____    ______ ____
ROOT
ATOM      1  C   UNL     1      49.339   7.721  13.771  0.00  0.00    +0.000 A 
ATOM      2  C   UNL     1      48.194   8.309  14.323  0.00  0.00    +0.000 A 
ATOM      3  C   UNL     1      46.979   8.288  13.631  0.00  0.00    +0.000 A 
ATOM      4  C   UNL     1      46.875   7.665  12.379  0.00  0.00    +0.000 A 
ATOM      5  C   UNL     1      48.022   7.078  11.829  0.00  0.00    +0.000 A 
ATOM      6  C   UNL     1      49.236   7.096  12.521  0.00  0.00    +0.000 A 
ENDROOT
BRANCH   1   7
ATOM      7  C   UNL     1      50.665   7.764  14.504  0.00  0.00    +0.000 C 
BRANCH   7   8
ATOM      8  C   UNL     1      51.679   8.699  13.846  0.00  0.00    +0.000 C 
BRANCH   8   9
ATOM      9  N   UNL     1      52.772   7.932  13.245  0.00  0.00    +0.000 NA
ATOM     10  H   UNL     1      52.487   7.604  12.324  0.00  0.00    +0.000 HD
ATOM     11  H   UNL     1      52.955   7.095  13.801  0.00  0.00    +0.000 HD
ENDBRANCH   8   9
ENDBRANCH   7   8
ENDBRANCH   1   7
BRANCH   4  12
ATOM     12  C   UNL     1      45.552   7.597  11.642  0.00  0.00    +0.000 C 
BRANCH  12  13
ATOM     13  N   UNL     1      44.850   6.342  11.833  0.00  0.00    +0.000 N 
ATOM     14  C   UNL     1      44.420   5.861  13.046  0.00  0.00    +0.000 A 
ATOM     15  C   UNL     1      43.904   4.601  12.854  0.00  0.00    +0.000 A 
ATOM     16  C   UNL     1      44.361   4.173  11.584  0.00  0.00    +0.000 A 
ATOM     17  C   UNL     1      44.465   2.913  10.969  0.00  0.00    +0.000 A 
ATOM     18  C   UNL     1      44.970   2.846   9.676  0.00  0.00    +0.000 A 
ATOM     19  F   UNL     1      45.210   1.646   9.130  0.00  0.00    +0.000 F 
ATOM     20  C   UNL     1      45.249   3.994   8.945  0.00  0.00    +0.000 A 
ATOM     21  C   UNL     1      45.149   5.258   9.535  0.00  0.00    +0.000 A 
ATOM     22  C   UNL     1      44.799   5.317  10.893  0.00  0.00    +0.000 A 
ENDBRANCH  12  13
ENDBRANCH   4  12
TORSDOF 5
ENDMDL
MODEL 6
REMARK VINA RESULT:    -5.228      3.318      5.389
REMARK INTER + INTRA:          -7.200
REMARK INTER:                  -6.643
REMARK INTRA:                  -0.557
REMARK UNBOUND:                -0.597
REMARK  Name = 
REMARK  5 active torsions:
REMARK  status: ('A' for Active; 'I' for Inactive)
REMARK    1  A    between atoms: N_1  and  C_2
REMARK    2  A    between atoms: C_2  and  C_3
REMARK    3  A    between atoms: C_3  and  C_4
REMARK    4  A    between atoms: C_7  and  C_8
REMARK    5  A    between atoms: C_8  and  N_9
REMARK                            x       y       z     vdW  Elec       q    Type
REMARK                         _______ _______ _______ _____ _____    ______ ____
ROOT
ATOM      1  C   UNL     1      44.997   5.075  11.779  0.00  0.00    +0.000 A 
ATOM      2  C   UNL     1      45.667   6.125  11.138  0.00  0.00    +0.000 A 
ATOM      3  C   UNL     1      46.835   6.665  11.687  0.00  0.00    +0.000 A 
ATOM      4  C   UNL     1      47.368   6.159  12.881  0.00  0.00    +0.000 A 
ATOM      5  C   UNL     1      46.696   5.111  13.520  0.00  0.00    +0.000 A 
ATOM      6  C   UNL     1      45.531   4.568  12.971  0.00  0.00    +0.000 A 
ENDROOT
BRANCH   1   7
ATOM      7  C   UNL     1      43.717   4.504  11.203  0.00  0.00    +0.000 C 
BRANCH   7   8
ATOM      8  C   UNL     1      43.853   3.041  10.784  0.00  0.00    +0.000 C 
BRANCH   8   9
ATOM      9  N   UNL     1      43.039   2.182  11.646  0.00  0.00    +0.000 NA
ATOM     10  H   UNL     1      42.404   2.759  12.196  0.00  0.00    +0.000 HD
ATOM     11  H   UNL     1      43.637   1.697  12.317  0.00  0.00    +0.000 HD
ENDBRANCH   8   9
ENDBRANCH   7   8
ENDBRANCH   1   7
BRANCH   4  12
ATOM     12  C   UNL     1      48.658   6.708  13.459  0.00  0.00    +0.000 C 
BRANCH  12  13
ATOM     13  N   UNL     1      48.468   7.447  14.691  0.00  0.00    +0.000 N 
ATOM     14  C   UNL     1      48.342   8.814  14.774  0.00  0.00    +0.000 A 
ATOM     15  C   UNL     1      48.293   9.164  16.103  0.00  0.00    +0.000 A 
ATOM     16  C   UNL     1      48.762   8.042  16.828  0.00  0.00    +0.000 A 
ATOM     17  C   UNL     1      49.254   7.873  18.134  0.00  0.00    +0.000 A 
ATOM     18  C   UNL     1      49.637   6.600  18.539  0.00  0.00    +0.000 A 
ATOM     19  F   UNL     1      50.241   6.446  19.725  0.00  0.00    +0.000 F 
ATOM     20  C   UNL     1      49.427   5.488  17.733  0.00  0.00    +0.000 A 
ATOM     21  C   UNL     1      48.935   5.632  16.432  0.00  0.00    +0.000 A 
ATOM     22  C   UNL     1      48.704   6.935  15.963  0.00  0.00    +0.000 A 
ENDBRANCH  12  13
ENDBRANCH   4  12
TORSDOF 5
ENDMDL
MODEL 7
REMARK VINA RESULT:    -5.205      1.808      2.673
REMARK INTER + INTRA:          -7.171
REMARK INTER:                  -6.395
REMARK INTRA:                  -0.776
REMARK UNBOUND:                -0.597
REMARK  Name = 
REMARK  5 active torsions:
REMARK  status: ('A' for Active; 'I' for Inactive)
REMARK    1  A    between atoms: N_1  and  C_2
REMARK    2  A    between atoms: C_2  and  C_3
REMARK    3  A    between atoms: C_3  and  C_4
REMARK    4  A    between atoms: C_7  and  C_8
REMARK    5  A    between atoms: C_8  and  N_9
REMARK                            x       y       z     vdW  Elec       q    Type
REMARK                         _______ _______ _______ _____ _____    ______ ____
ROOT
ATOM      1  C   UNL     1      44.588   3.484   9.965  0.00  0.00    +0.000 A 
ATOM      2  C   UNL     1      45.307   3.240  11.142  0.00  0.00    +0.000 A 
ATOM      3  C   UNL     1      45.358   4.202  12.157  0.00  0.00    +0.000 A 
ATOM      4  C   UNL     1      44.679   5.421  12.026  0.00  0.00    +0.000 A 
ATOM      5  C   UNL     1      43.961   5.662  10.848  0.00  0.00    +0.000 A 
ATOM      6  C   UNL     1      43.907   4.701   9.835  0.00  0.00    +0.000 A 
ENDROOT
BRANCH   1   7
ATOM      7  C   UNL     1      44.551   2.457   8.851  0.00  0.00    +0.000 C 
BRANCH   7   8
ATOM      8  C   UNL     1      45.122   2.985   7.535  0.00  0.00    +0.000 C 
BRANCH   8   9
ATOM      9  N   UNL     1      46.581   3.078   7.609  0.00  0.00    +0.000 NA
ATOM     10  H   UNL     1      46.909   3.781   6.948  0.00  0.00    +0.000 HD
ATOM     11  H   UNL     1      47.001   2.195   7.316  0.00  0.00    +0.000 HD
ENDBRANCH   8   9
ENDBRANCH   7   8
ENDBRANCH   1   7
BRANCH   4  12
ATOM     12  C   UNL     1      44.691   6.450  13.140  0.00  0.00    +0.000 C 
BRANCH  12  13
ATOM     13  N   UNL     1      45.520   7.604  12.849  0.00  0.00    +0.000 N 
ATOM     14  C   UNL     1      45.069   8.770  12.278  0.00  0.00    +0.000 A 
ATOM     15  C   UNL     1      46.151   9.587  12.050  0.00  0.00    +0.000 A 
ATOM     16  C   UNL     1      47.299   8.763  12.144  0.00  0.00    +0.000 A 
ATOM     17  C   UNL     1      48.627   8.904  11.706  0.00  0.00    +0.000 A 
ATOM     18  C   UNL     1      49.525   7.878  11.973  0.00  0.00    +0.000 A 
ATOM     19  F   UNL     1      50.754   7.930  11.439  0.00  0.00    +0.000 F 
ATOM     20  C   UNL     1      49.173   6.792  12.763  0.00  0.00    +0.000 A 
ATOM     21  C   UNL     1      47.858   6.633  13.214  0.00  0.00    +0.000 A 
ATOM     22  C   UNL     1      46.910   7.584  12.805  0.00  0.00    +0.000 A 
ENDBRANCH  12  13
ENDBRANCH   4  12
TORSDOF 5
ENDMDL
MODEL 8
REMARK VINA RESULT:    -4.905      3.660      6.058
REMARK INTER + INTRA:          -6.793
REMARK INTER:                  -6.365
REMARK INTRA:                  -0.428
REMARK UNBOUND:                -0.597
REMARK  Name = 
REMARK  5 active torsions:
REMARK  status: ('A' for Active; 'I' for Inactive)
REMARK    1  A    between atoms: N_1  and  C_2
REMARK    2  A    between atoms: C_2  and  C_3
REMARK    3  A    between atoms: C_3  and  C_4
REMARK    4  A    between atoms: C_7  and  C_8
REMARK    5  A    between atoms: C_8  and  N_9
REMARK                            x       y       z     vdW  Elec       q    Type
REMARK                         _______ _______ _______ _____ _____    ______ ____
ROOT
ATOM      1  C   UNL     1      44.654   5.293  12.868  0.00  0.00    +0.000 A 
ATOM      2  C   UNL     1      45.614   4.397  13.352  0.00  0.00    +0.000 A 
ATOM      3  C   UNL     1      46.893   4.843  13.702  0.00  0.00    +0.000 A 
ATOM      4  C   UNL     1      47.236   6.198  13.590  0.00  0.00    +0.000 A 
ATOM      5  C   UNL     1      46.275   7.092  13.104  0.00  0.00    +0.000 A 
ATOM      6  C   UNL     1      44.996   6.648  12.758  0.00  0.00    +0.000 A 
ENDROOT
BRANCH   1   7
ATOM      7  C   UNL     1      43.276   4.811  12.462  0.00  0.00    +0.000 C 
BRANCH   7   8
ATOM      8  C   UNL     1      43.304   3.865  11.263  0.00  0.00    +0.000 C 
BRANCH   8   9
ATOM      9  N   UNL     1      43.065   2.485  11.692  0.00  0.00    +0.000 NA
ATOM     10  H   UNL     1      42.801   1.921  10.885  0.00  0.00    +0.000 HD
ATOM     11  H   UNL     1      42.272   2.453  12.333  0.00  0.00    +0.000 HD
ENDBRANCH   8   9
ENDBRANCH   7   8
ENDBRANCH   1   7
BRANCH   4  12
ATOM     12  C   UNL     1      48.605   6.698  14.010  0.00  0.00    +0.000 C 
BRANCH  12  13
ATOM     13  N   UNL     1      48.768   6.792  15.447  0.00  0.00    +0.000 N 
ATOM     14  C   UNL     1      48.731   5.725  16.312  0.00  0.00    +0.000 A 
ATOM     15  C   UNL     1      48.806   6.207  17.598  0.00  0.00    +0.000 A 
ATOM     16  C   UNL     1      48.515   7.590  17.522  0.00  0.00    +0.000 A 
ATOM     17  C   UNL     1      48.117   8.547  18.472  0.00  0.00    +0.000 A 
ATOM     18  C   UNL     1      47.913   9.855  18.050  0.00  0.00    +0.000 A 
ATOM     19  F   UNL     1      47.395  10.745  18.909  0.00  0.00    +0.000 F 
ATOM     20  C   UNL     1      48.215  10.256  16.755  0.00  0.00    +0.000 A 
ATOM     21  C   UNL     1      48.618   9.322  15.794  0.00  0.00    +0.000 A 
ATOM     22  C   UNL     1      48.663   7.972  16.177  0.00  0.00    +0.000 A 
ENDBRANCH  12  13
ENDBRANCH   4  12
TORSDOF 5
ENDMDL
MODEL 9
REMARK VINA RESULT:    -4.802      3.754      5.870
REMARK INTER + INTRA:          -6.662
REMARK INTER:                  -6.041
REMARK INTRA:                  -0.621
REMARK UNBOUND:                -0.597
REMARK  Name = 
REMARK  5 active torsions:
REMARK  status: ('A' for Active; 'I' for Inactive)
REMARK    1  A    between atoms: N_1  and  C_2
REMARK    2  A    between atoms: C_2  and  C_3
REMARK    3  A    between atoms: C_3  and  C_4
REMARK    4  A    between atoms: C_7  and  C_8
REMARK    5  A    between atoms: C_8  and  N_9
REMARK                            x       y       z     vdW  Elec       q    Type
REMARK                         _______ _______ _______ _____ _____    ______ ____
ROOT
ATOM      1  C   UNL     1      45.128   5.339  11.633  0.00  0.00    +0.000 A 
ATOM      2  C   UNL     1      46.011   6.218  10.993  0.00  0.00    +0.000 A 
ATOM      3  C   UNL     1      47.160   6.675  11.646  0.00  0.00    +0.000 A 
ATOM      4  C   UNL     1      47.462   6.251  12.949  0.00  0.00    +0.000 A 
ATOM      5  C   UNL     1      46.577   5.373  13.586  0.00  0.00    +0.000 A 
ATOM      6  C   UNL     1      45.430   4.914  12.933  0.00  0.00    +0.000 A 
ENDROOT
BRANCH   1   7
ATOM      7  C   UNL     1      43.867   4.863  10.940  0.00  0.00    +0.000 C 
BRANCH   7   8
ATOM      8  C   UNL     1      42.595   5.464  11.537  0.00  0.00    +0.000 C 
BRANCH   8   9
ATOM      9  N   UNL     1      42.542   6.906  11.287  0.00  0.00    +0.000 NA
ATOM     10  H   UNL     1      43.221   7.149  10.568  0.00  0.00    +0.000 HD
ATOM     11  H   UNL     1      42.823   7.414  12.127  0.00  0.00    +0.000 HD
ENDBRANCH   8   9
ENDBRANCH   7   8
ENDBRANCH   1   7
BRANCH   4  12
ATOM     12  C   UNL     1      48.729   6.705  13.648  0.00  0.00    +0.000 C 
BRANCH  12  13
ATOM     13  N   UNL     1      48.949   8.136  13.570  0.00  0.00    +0.000 N 
ATOM     14  C   UNL     1      48.120   9.087  14.115  0.00  0.00    +0.000 A 
ATOM     15  C   UNL     1      48.583  10.328  13.744  0.00  0.00    +0.000 A 
ATOM     16  C   UNL     1      49.477  10.114  12.668  0.00  0.00    +0.000 A 
ATOM     17  C   UNL     1      50.004  10.951  11.669  0.00  0.00    +0.000 A 
ATOM     18  C   UNL     1      50.883  10.404  10.742  0.00  0.00    +0.000 A 
ATOM     19  F   UNL     1      51.280  11.149   9.700  0.00  0.00    +0.000 F 
ATOM     20  C   UNL     1      51.344   9.100  10.861  0.00  0.00    +0.000 A 
ATOM     21  C   UNL     1      50.838   8.250  11.850  0.00  0.00    +0.000 A 
ATOM     22  C   UNL     1      49.826   8.752  12.683  0.00  0.00    +0.000 A 
ENDBRANCH  12  13
ENDBRANCH   4  12
TORSDOF 5
ENDMDL
