MODEL 1
REMARK VINA RESULT:    -8.296      0.000      0.000
REMARK INTER + INTRA:         -11.511
REMARK INTER:                 -10.721
REMARK INTRA:                  -0.790
REMARK UNBOUND:                -0.790
REMARK  Name = 
REMARK  6 active torsions:
REMARK  status: ('A' for Active; 'I' for Inactive)
REMARK    1  A    between atoms: C_1  and  N_2
REMARK    2  A    between atoms: N_5  and  C_6
REMARK    3  A    between atoms: C_10  and  C_11
REMARK    4  A    between atoms: C_11  and  C_12
REMARK    5  A    between atoms: C_12  and  N_13
REMARK    6  A    between atoms: C_17  and  C_18
REMARK                            x       y       z     vdW  Elec       q    Type
REMARK                         _______ _______ _______ _____ _____    ______ ____
ROOT
ATOM      1  C   UNL     1      43.300   5.038  12.387  0.00  0.00    +0.000 C 
ENDROOT
BRANCH   1   6
ATOM      2  C   UNL     1      46.777   6.519  13.020  0.00  0.00    +0.000 A 
ATOM      3  C   UNL     1      47.446   5.397  13.527  0.00  0.00    +0.000 A 
ATOM      4  C   UNL     1      46.820   4.157  13.637  0.00  0.00    +0.000 A 
ATOM      5  C   UNL     1      45.491   4.011  13.257  0.00  0.00    +0.000 A 
ATOM      6  C   UNL     1      44.767   5.104  12.771  0.00  0.00    +0.000 A 
ATOM      7  C   UNL     1      45.434   6.337  12.646  0.00  0.00    +0.000 A 
BRANCH   2  12
ATOM      8  C   UNL     1      48.798  11.219  10.854  0.00  0.00    +0.000 C 
ATOM      9  N   UNL     1      48.534  10.236  11.898  0.00  0.00    +0.000 NA
ATOM     10  C   UNL     1      47.076  10.057  12.094  0.00  0.00    +0.000 C 
ATOM     11  C   UNL     1      46.760   9.009  13.184  0.00  0.00    +0.000 C 
ATOM     12  N   UNL     1      47.408   7.733  12.842  0.00  0.00    +0.000 N 
ATOM     13  C   UNL     1      48.857   7.839  12.613  0.00  0.00    +0.000 C 
ATOM     14  C   UNL     1      49.131   8.926  11.549  0.00  0.00    +0.000 C 
ENDBRANCH   2  12
ENDBRANCH   1   6
BRANCH   1  15
ATOM     15  C   UNL     1      43.038   4.408  11.018  0.00  0.00    +0.000 C 
BRANCH  15  16
ATOM     16  N   UNL     1      43.866   4.992   9.960  0.00  0.00    +0.000 N 
ATOM     17  C   UNL     1      44.638   4.003   9.313  0.00  0.00    +0.000 A 
ATOM     18  C   UNL     1      45.490   4.377   8.279  0.00  0.00    +0.000 A 
ATOM     19  C   UNL     1      46.259   3.401   7.640  0.00  0.00    +0.000 A 
ATOM     20  C   UNL     1      46.168   2.067   8.043  0.00  0.00    +0.000 A 
ATOM     21  C   UNL     1      45.286   1.784   9.068  0.00  0.00    +0.000 A 
ATOM     22  N   UNL     1      44.527   2.714   9.694  0.00  0.00    +0.000 NA
ATOM     23  H   UNL     1      44.494   5.710  10.313  0.00  0.00    +0.000 HD
BRANCH  20  24
ATOM     24  C   UNL     1      47.001   1.037   7.383  0.00  0.00    +0.000 C 
ATOM     25  N   UNL     1      46.767  -0.288   7.655  0.00  0.00    +0.000 N 
ATOM     26  O   UNL     1      47.893   1.348   6.604  0.00  0.00    +0.000 OA
ATOM     27  H   UNL     1      46.064  -0.657   8.277  0.00  0.00    +0.000 HD
ATOM     28  H   UNL     1      47.363  -0.954   7.186  0.00  0.00    +0.000 HD
ENDBRANCH  20  24
ENDBRANCH  15  16
ENDBRANCH   1  15
TORSDOF 5
ENDMDL
MODEL 2
REMARK VINA RESULT:    -8.268      2.529      4.039
REMARK INTER + INTRA:         -11.474
REMARK INTER:                 -10.759
REMARK INTRA:                  -0.715
REMARK UNBOUND:                -0.790
REMARK  Name = 
REMARK  6 active torsions:
REMARK  status: ('A' for Active; 'I' for Inactive)
REMARK    1  A    between atoms: C_1  and  N_2
REMARK    2  A    between atoms: N_5  and  C_6
REMARK    3  A    between atoms: C_10  and  C_11
REMARK    4  A    between atoms: C_11  and  C_12
REMARK    5  A    between atoms: C_12  and  N_13
REMARK    6  A    between atoms: C_17  and  C_18
REMARK                            x       y       z     vdW  Elec       q    Type
REMARK                         _______ _______ _______ _____ _____    ______ ____
ROOT
ATOM      1  C   UNL     1      43.700   4.962  12.244  0.00  0.00    +0.000 C 
ENDROOT
BRANCH   1   6
ATOM      2  C   UNL     1      47.067   5.573  13.968  0.00  0.00    +0.000 A 
ATOM      3  C   UNL     1      47.730   6.317  12.981  0.00  0.00    +0.000 A 
ATOM      4  C   UNL     1      47.108   6.666  11.784  0.00  0.00    +0.000 A 
ATOM      5  C   UNL     1      45.803   6.258  11.532  0.00  0.00    +0.000 A 
ATOM      6  C   UNL     1      45.105   5.489  12.469  0.00  0.00    +0.000 A 
ATOM      7  C   UNL     1      45.750   5.177  13.680  0.00  0.00    +0.000 A 
BRANCH   2  12
ATOM      8  C   UNL     1      48.185   5.193  19.396  0.00  0.00    +0.000 C 
ATOM      9  N   UNL     1      48.397   4.970  17.970  0.00  0.00    +0.000 NA
ATOM     10  C   UNL     1      47.255   4.235  17.378  0.00  0.00    +0.000 C 
ATOM     11  C   UNL     1      47.441   3.994  15.864  0.00  0.00    +0.000 C 
ATOM     12  N   UNL     1      47.650   5.283  15.184  0.00  0.00    +0.000 N 
ATOM     13  C   UNL     1      48.758   6.078  15.734  0.00  0.00    +0.000 C 
ATOM     14  C   UNL     1      48.556   6.258  17.257  0.00  0.00    +0.000 C 
ENDBRANCH   2  12
ENDBRANCH   1   6
BRANCH   1  15
ATOM     15  C   UNL     1      43.424   4.500  10.813  0.00  0.00    +0.000 C 
BRANCH  15  16
ATOM     16  N   UNL     1      43.837   3.114  10.578  0.00  0.00    +0.000 N 
ATOM     17  C   UNL     1      44.729   3.026   9.487  0.00  0.00    +0.000 A 
ATOM     18  C   UNL     1      45.225   1.781   9.116  0.00  0.00    +0.000 A 
ATOM     19  C   UNL     1      46.106   1.691   8.033  0.00  0.00    +0.000 A 
ATOM     20  C   UNL     1      46.475   2.844   7.338  0.00  0.00    +0.000 A 
ATOM     21  C   UNL     1      45.946   4.039   7.785  0.00  0.00    +0.000 A 
ATOM     22  N   UNL     1      45.099   4.148   8.835  0.00  0.00    +0.000 NA
ATOM     23  H   UNL     1      43.046   2.501  10.395  0.00  0.00    +0.000 HD
BRANCH  20  24
ATOM     24  C   UNL     1      47.388   2.746   6.176  0.00  0.00    +0.000 C 
ATOM     25  N   UNL     1      48.714   2.462   6.389  0.00  0.00    +0.000 N 
ATOM     26  O   UNL     1      46.980   2.916   5.035  0.00  0.00    +0.000 OA
ATOM     27  H   UNL     1      49.157   2.304   7.282  0.00  0.00    +0.000 HD
ATOM     28  H   UNL     1      49.298   2.411   5.568  0.00  0.00    +0.000 HD
ENDBRANCH  20  24
ENDBRANCH  15  16
ENDBRANCH   1  15
TORSDOF 5
ENDMDL
MODEL 3
REMARK VINA RESULT:    -7.474      4.145      8.228
REMARK INTER + INTRA:         -10.448
REMARK INTER:                  -9.901
REMARK INTRA:                  -0.547
REMARK UNBOUND:                -0.790
REMARK  Name = 
REMARK  6 active torsions:
REMARK  status: ('A' for Active; 'I' for Inactive)
REMARK    1  A    between atoms: C_1  and  N_2
REMARK    2  A    between atoms: N_5  and  C_6
REMARK    3  A    between atoms: C_10  and  C_11
REMARK    4  A    between atoms: C_11  and  C_12
REMARK    5  A    between atoms: C_12  and  N_13
REMARK    6  A    between atoms: C_17  and  C_18
REMARK                            x       y       z     vdW  Elec       q    Type
REMARK                         _______ _______ _______ _____ _____    ______ ____
ROOT
ATOM      1  C   UNL     1      46.088   6.437  13.204  0.00  0.00    +0.000 C 
ENDROOT
BRANCH   1   6
ATOM      2  C   UNL     1      44.574   4.144  10.534  0.00  0.00    +0.000 A 
ATOM      3  C   UNL     1      43.268   4.006  11.023  0.00  0.00    +0.000 A 
ATOM      4  C   UNL     1      42.843   4.666  12.175  0.00  0.00    +0.000 A 
ATOM      5  C   UNL     1      43.727   5.471  12.884  0.00  0.00    +0.000 A 
ATOM      6  C   UNL     1      45.050   5.620  12.457  0.00  0.00    +0.000 A 
ATOM      7  C   UNL     1      45.442   4.964  11.275  0.00  0.00    +0.000 A 
BRANCH   2  12
ATOM      8  C   UNL     1      47.574   1.689   6.555  0.00  0.00    +0.000 C 
ATOM      9  N   UNL     1      46.379   2.260   7.165  0.00  0.00    +0.000 NA
ATOM     10  C   UNL     1      46.024   1.531   8.405  0.00  0.00    +0.000 C 
ATOM     11  C   UNL     1      44.769   2.120   9.087  0.00  0.00    +0.000 C 
ATOM     12  N   UNL     1      44.984   3.551   9.358  0.00  0.00    +0.000 N 
ATOM     13  C   UNL     1      45.361   4.335   8.172  0.00  0.00    +0.000 C 
ATOM     14  C   UNL     1      46.592   3.687   7.497  0.00  0.00    +0.000 C 
ENDBRANCH   2  12
ENDBRANCH   1   6
BRANCH   1  15
ATOM     15  C   UNL     1      47.213   5.606  13.824  0.00  0.00    +0.000 C 
BRANCH  15  16
ATOM     16  N   UNL     1      46.721   4.625  14.795  0.00  0.00    +0.000 N 
ATOM     17  C   UNL     1      47.539   4.592  15.944  0.00  0.00    +0.000 A 
ATOM     18  C   UNL     1      47.225   3.713  16.975  0.00  0.00    +0.000 A 
ATOM     19  C   UNL     1      48.036   3.675  18.113  0.00  0.00    +0.000 A 
ATOM     20  C   UNL     1      49.150   4.512  18.203  0.00  0.00    +0.000 A 
ATOM     21  C   UNL     1      49.379   5.362  17.139  0.00  0.00    +0.000 A 
ATOM     22  N   UNL     1      48.601   5.420  16.034  0.00  0.00    +0.000 NA
ATOM     23  H   UNL     1      46.675   3.686  14.406  0.00  0.00    +0.000 HD
BRANCH  20  24
ATOM     24  C   UNL     1      50.023   4.454  19.397  0.00  0.00    +0.000 C 
ATOM     25  N   UNL     1      49.450   4.394  20.643  0.00  0.00    +0.000 N 
ATOM     26  O   UNL     1      51.243   4.461  19.290  0.00  0.00    +0.000 OA
ATOM     27  H   UNL     1      48.463   4.384  20.849  0.00  0.00    +0.000 HD
ATOM     28  H   UNL     1      50.085   4.362  21.427  0.00  0.00    +0.000 HD
ENDBRANCH  20  24
ENDBRANCH  15  16
ENDBRANCH   1  15
TORSDOF 5
ENDMDL
MODEL 4
REMARK VINA RESULT:    -7.419      1.874      2.819
REMARK INTER + INTRA:         -10.377
REMARK INTER:                  -9.724
REMARK INTRA:                  -0.654
REMARK UNBOUND:                -0.790
REMARK  Name = 
REMARK  6 active torsions:
REMARK  status: ('A' for Active; 'I' for Inactive)
REMARK    1  A    between atoms: C_1  and  N_2
REMARK    2  A    between atoms: N_5  and  C_6
REMARK    3  A    between atoms: C_10  and  C_11
REMARK    4  A    between atoms: C_11  and  C_12
REMARK    5  A    between atoms: C_12  and  N_13
REMARK    6  A    between atoms: C_17  and  C_18
REMARK                            x       y       z     vdW  Elec       q    Type
REMARK                         _______ _______ _______ _____ _____    ______ ____
ROOT
ATOM      1  C   UNL     1      44.011   4.426  12.426  0.00  0.00    +0.000 C 
ENDROOT
BRANCH   1   6
ATOM      2  C   UNL     1      46.873   6.943  12.827  0.00  0.00    +0.000 A 
ATOM      3  C   UNL     1      46.325   8.060  12.182  0.00  0.00    +0.000 A 
ATOM      4  C   UNL     1      45.037   8.043  11.651  0.00  0.00    +0.000 A 
ATOM      5  C   UNL     1      44.264   6.890  11.735  0.00  0.00    +0.000 A 
ATOM      6  C   UNL     1      44.772   5.738  12.343  0.00  0.00    +0.000 A 
ATOM      7  C   UNL     1      46.065   5.795  12.894  0.00  0.00    +0.000 A 
BRANCH   2  12
ATOM      8  C   UNL     1      51.500   8.546  15.449  0.00  0.00    +0.000 C 
ATOM      9  N   UNL     1      50.604   7.616  14.772  0.00  0.00    +0.000 NA
ATOM     10  C   UNL     1      49.320   7.498  15.503  0.00  0.00    +0.000 C 
ATOM     11  C   UNL     1      48.340   6.531  14.803  0.00  0.00    +0.000 C 
ATOM     12  N   UNL     1      48.120   6.973  13.416  0.00  0.00    +0.000 N 
ATOM     13  C   UNL     1      49.356   7.133  12.635  0.00  0.00    +0.000 C 
ATOM     14  C   UNL     1      50.324   8.071  13.390  0.00  0.00    +0.000 C 
ENDBRANCH   2  12
ENDBRANCH   1   6
BRANCH   1  15
ATOM     15  C   UNL     1      43.409   3.965  11.098  0.00  0.00    +0.000 C 
BRANCH  15  16
ATOM     16  N   UNL     1      43.863   2.629  10.705  0.00  0.00    +0.000 N 
ATOM     17  C   UNL     1      44.730   2.693   9.593  0.00  0.00    +0.000 A 
ATOM     18  C   UNL     1      45.260   1.515   9.078  0.00  0.00    +0.000 A 
ATOM     19  C   UNL     1      46.115   1.575   7.973  0.00  0.00    +0.000 A 
ATOM     20  C   UNL     1      46.426   2.809   7.399  0.00  0.00    +0.000 A 
ATOM     21  C   UNL     1      45.867   3.929   7.984  0.00  0.00    +0.000 A 
ATOM     22  N   UNL     1      45.044   3.892   9.058  0.00  0.00    +0.000 NA
ATOM     23  H   UNL     1      43.090   2.010  10.474  0.00  0.00    +0.000 HD
BRANCH  20  24
ATOM     24  C   UNL     1      47.312   2.871   6.215  0.00  0.00    +0.000 C 
ATOM     25  N   UNL     1      48.638   2.545   6.353  0.00  0.00    +0.000 N 
ATOM     26  O   UNL     1      46.881   3.210   5.119  0.00  0.00    +0.000 OA
ATOM     27  H   UNL     1      49.098   2.254   7.202  0.00  0.00    +0.000 HD
ATOM     28  H   UNL     1      49.204   2.607   5.519  0.00  0.00    +0.000 HD
ENDBRANCH  20  24
ENDBRANCH  15  16
ENDBRANCH   1  15
TORSDOF 5
ENDMDL
MODEL 5
REMARK VINA RESULT:    -7.214      1.576      2.028
REMARK INTER + INTRA:         -10.113
REMARK INTER:                  -9.477
REMARK INTRA:                  -0.636
REMARK UNBOUND:                -0.790
REMARK  Name = 
REMARK  6 active torsions:
REMARK  status: ('A' for Active; 'I' for Inactive)
REMARK    1  A    between atoms: C_1  and  N_2
REMARK    2  A    between atoms: N_5  and  C_6
REMARK    3  A    between atoms: C_10  and  C_11
REMARK    4  A    between atoms: C_11  and  C_12
REMARK    5  A    between atoms: C_12  and  N_13
REMARK    6  A    between atoms: C_17  and  C_18
REMARK                            x       y       z     vdW  Elec       q    Type
REMARK                         _______ _______ _______ _____ _____    ______ ____
ROOT
ATOM      1  C   UNL     1      43.930   6.214  11.645  0.00  0.00    +0.000 C 
ENDROOT
BRANCH   1   6
ATOM      2  C   UNL     1      47.508   6.971  12.787  0.00  0.00    +0.000 A 
ATOM      3  C   UNL     1      47.764   5.851  13.591  0.00  0.00    +0.000 A 
ATOM      4  C   UNL     1      46.828   4.831  13.747  0.00  0.00    +0.000 A 
ATOM      5  C   UNL     1      45.592   4.915  13.114  0.00  0.00    +0.000 A 
ATOM      6  C   UNL     1      45.274   6.024  12.324  0.00  0.00    +0.000 A 
ATOM      7  C   UNL     1      46.250   7.024  12.162  0.00  0.00    +0.000 A 
BRANCH   2  12
ATOM      8  C   UNL     1      50.929  11.309  13.363  0.00  0.00    +0.000 C 
ATOM      9  N   UNL     1      50.314  10.176  12.683  0.00  0.00    +0.000 NA
ATOM     10  C   UNL     1      50.546   8.922  13.437  0.00  0.00    +0.000 C 
ATOM     11  C   UNL     1      49.893   7.701  12.751  0.00  0.00    +0.000 C 
ATOM     12  N   UNL     1      48.454   7.951  12.570  0.00  0.00    +0.000 N 
ATOM     13  C   UNL     1      48.148   9.194  11.845  0.00  0.00    +0.000 C 
ATOM     14  C   UNL     1      48.855  10.381  12.538  0.00  0.00    +0.000 C 
ENDBRANCH   2  12
ENDBRANCH   1   6
BRANCH   1  15
ATOM     15  C   UNL     1      43.841   5.601  10.246  0.00  0.00    +0.000 C 
BRANCH  15  16
ATOM     16  N   UNL     1      43.885   4.137  10.268  0.00  0.00    +0.000 N 
ATOM     17  C   UNL     1      44.801   3.641   9.315  0.00  0.00    +0.000 A 
ATOM     18  C   UNL     1      44.973   2.267   9.191  0.00  0.00    +0.000 A 
ATOM     19  C   UNL     1      45.876   1.773   8.244  0.00  0.00    +0.000 A 
ATOM     20  C   UNL     1      46.591   2.658   7.435  0.00  0.00    +0.000 A 
ATOM     21  C   UNL     1      46.367   4.006   7.636  0.00  0.00    +0.000 A 
ATOM     22  N   UNL     1      45.504   4.504   8.552  0.00  0.00    +0.000 NA
ATOM     23  H   UNL     1      42.976   3.720  10.086  0.00  0.00    +0.000 HD
BRANCH  20  24
ATOM     24  C   UNL     1      47.528   2.135   6.416  0.00  0.00    +0.000 C 
ATOM     25  N   UNL     1      48.001   2.981   5.444  0.00  0.00    +0.000 N 
ATOM     26  O   UNL     1      47.883   0.963   6.425  0.00  0.00    +0.000 OA
ATOM     27  H   UNL     1      47.776   3.959   5.340  0.00  0.00    +0.000 HD
ATOM     28  H   UNL     1      48.632   2.579   4.768  0.00  0.00    +0.000 HD
ENDBRANCH  20  24
ENDBRANCH  15  16
ENDBRANCH   1  15
TORSDOF 5
ENDMDL
MODEL 6
REMARK VINA RESULT:    -6.687      3.576      7.622
REMARK INTER + INTRA:          -9.432
REMARK INTER:                  -8.627
REMARK INTRA:                  -0.805
REMARK UNBOUND:                -0.790
REMARK  Name = 
REMARK  6 active torsions:
REMARK  status: ('A' for Active; 'I' for Inactive)
REMARK    1  A    between atoms: C_1  and  N_2
REMARK    2  A    between atoms: N_5  and  C_6
REMARK    3  A    between atoms: C_10  and  C_11
REMARK    4  A    between atoms: C_11  and  C_12
REMARK    5  A    between atoms: C_12  and  N_13
REMARK    6  A    between atoms: C_17  and  C_18
REMARK                            x       y       z     vdW  Elec       q    Type
REMARK                         _______ _______ _______ _____ _____    ______ ____
ROOT
ATOM      1  C   UNL     1      48.487   9.158  12.905  0.00  0.00    +0.000 C 
ENDROOT
BRANCH   1   6
ATOM      2  C   UNL     1      45.148   7.826  11.578  0.00  0.00    +0.000 A 
ATOM      3  C   UNL     1      44.451   9.027  11.384  0.00  0.00    +0.000 A 
ATOM      4  C   UNL     1      45.040  10.266  11.631  0.00  0.00    +0.000 A 
ATOM      5  C   UNL     1      46.346  10.335  12.103  0.00  0.00    +0.000 A 
ATOM      6  C   UNL     1      47.077   9.167  12.341  0.00  0.00    +0.000 A 
ATOM      7  C   UNL     1      46.466   7.933  12.055  0.00  0.00    +0.000 A 
BRANCH   2  12
ATOM      8  C   UNL     1      43.302   2.592  11.811  0.00  0.00    +0.000 C 
ATOM      9  N   UNL     1      43.568   3.888  11.196  0.00  0.00    +0.000 NA
ATOM     10  C   UNL     1      42.873   4.970  11.931  0.00  0.00    +0.000 C 
ATOM     11  C   UNL     1      43.146   6.360  11.315  0.00  0.00    +0.000 C 
ATOM     12  N   UNL     1      44.598   6.600  11.269  0.00  0.00    +0.000 N 
ATOM     13  C   UNL     1      45.357   5.551  10.570  0.00  0.00    +0.000 C 
ATOM     14  C   UNL     1      45.021   4.175  11.188  0.00  0.00    +0.000 C 
ENDBRANCH   2  12
ENDBRANCH   1   6
BRANCH   1  15
ATOM     15  C   UNL     1      48.991   7.773  13.312  0.00  0.00    +0.000 C 
BRANCH  15  16
ATOM     16  N   UNL     1      49.583   7.759  14.652  0.00  0.00    +0.000 N 
ATOM     17  C   UNL     1      49.084   6.683  15.418  0.00  0.00    +0.000 A 
ATOM     18  C   UNL     1      49.535   6.514  16.722  0.00  0.00    +0.000 A 
ATOM     19  C   UNL     1      49.039   5.452  17.485  0.00  0.00    +0.000 A 
ATOM     20  C   UNL     1      48.101   4.577  16.935  0.00  0.00    +0.000 A 
ATOM     21  C   UNL     1      47.720   4.812  15.627  0.00  0.00    +0.000 A 
ATOM     22  N   UNL     1      48.194   5.829  14.871  0.00  0.00    +0.000 NA
ATOM     23  H   UNL     1      49.409   8.622  15.160  0.00  0.00    +0.000 HD
BRANCH  20  24
ATOM     24  C   UNL     1      47.557   3.468  17.750  0.00  0.00    +0.000 C 
ATOM     25  N   UNL     1      48.231   3.075  18.880  0.00  0.00    +0.000 N 
ATOM     26  O   UNL     1      46.523   2.896  17.431  0.00  0.00    +0.000 OA
ATOM     27  H   UNL     1      49.088   3.472  19.235  0.00  0.00    +0.000 HD
ATOM     28  H   UNL     1      47.826   2.312  19.400  0.00  0.00    +0.000 HD
ENDBRANCH  20  24
ENDBRANCH  15  16
ENDBRANCH   1  15
TORSDOF 5
ENDMDL
MODEL 7
REMARK VINA RESULT:    -6.674      2.725      3.760
REMARK INTER + INTRA:          -9.415
REMARK INTER:                  -8.781
REMARK INTRA:                  -0.634
REMARK UNBOUND:                -0.790
REMARK  Name = 
REMARK  6 active torsions:
REMARK  status: ('A' for Active; 'I' for Inactive)
REMARK    1  A    between atoms: C_1  and  N_2
REMARK    2  A    between atoms: N_5  and  C_6
REMARK    3  A    between atoms: C_10  and  C_11
REMARK    4  A    between atoms: C_11  and  C_12
REMARK    5  A    between atoms: C_12  and  N_13
REMARK    6  A    between atoms: C_17  and  C_18
REMARK                            x       y       z     vdW  Elec       q    Type
REMARK                         _______ _______ _______ _____ _____    ______ ____
ROOT
ATOM      1  C   UNL     1      44.786   6.284  12.405  0.00  0.00    +0.000 C 
ENDROOT
BRANCH   1   6
ATOM      2  C   UNL     1      48.181   6.893  14.071  0.00  0.00    +0.000 A 
ATOM      3  C   UNL     1      48.973   7.172  12.949  0.00  0.00    +0.000 A 
ATOM      4  C   UNL     1      48.436   7.209  11.663  0.00  0.00    +0.000 A 
ATOM      5  C   UNL     1      47.085   6.946  11.464  0.00  0.00    +0.000 A 
ATOM      6  C   UNL     1      46.256   6.634  12.546  0.00  0.00    +0.000 A 
ATOM      7  C   UNL     1      46.821   6.632  13.834  0.00  0.00    +0.000 A 
BRANCH   2  12
ATOM      8  C   UNL     1      51.555   6.729  18.482  0.00  0.00    +0.000 C 
ATOM      9  N   UNL     1      50.289   6.885  17.775  0.00  0.00    +0.000 NA
ATOM     10  C   UNL     1      50.363   8.002  16.804  0.00  0.00    +0.000 C 
ATOM     11  C   UNL     1      49.042   8.184  16.025  0.00  0.00    +0.000 C 
ATOM     12  N   UNL     1      48.690   6.923  15.353  0.00  0.00    +0.000 N 
ATOM     13  C   UNL     1      48.618   5.763  16.256  0.00  0.00    +0.000 C 
ATOM     14  C   UNL     1      49.941   5.643  17.046  0.00  0.00    +0.000 C 
ENDBRANCH   2  12
ENDBRANCH   1   6
BRANCH   1  15
ATOM     15  C   UNL     1      44.385   5.811  11.007  0.00  0.00    +0.000 C 
BRANCH  15  16
ATOM     16  N   UNL     1      44.245   4.355  10.922  0.00  0.00    +0.000 N 
ATOM     17  C   UNL     1      44.938   3.841   9.804  0.00  0.00    +0.000 A 
ATOM     18  C   UNL     1      44.914   2.472   9.562  0.00  0.00    +0.000 A 
ATOM     19  C   UNL     1      45.596   1.961   8.453  0.00  0.00    +0.000 A 
ATOM     20  C   UNL     1      46.290   2.824   7.603  0.00  0.00    +0.000 A 
ATOM     21  C   UNL     1      46.272   4.167   7.928  0.00  0.00    +0.000 A 
ATOM     22  N   UNL     1      45.625   4.679   9.000  0.00  0.00    +0.000 NA
ATOM     23  H   UNL     1      43.273   4.063  10.858  0.00  0.00    +0.000 HD
BRANCH  20  24
ATOM     24  C   UNL     1      46.991   2.287   6.416  0.00  0.00    +0.000 C 
ATOM     25  N   UNL     1      47.194   3.104   5.331  0.00  0.00    +0.000 N 
ATOM     26  O   UNL     1      47.388   1.129   6.386  0.00  0.00    +0.000 OA
ATOM     27  H   UNL     1      46.910   4.068   5.246  0.00  0.00    +0.000 HD
ATOM     28  H   UNL     1      47.671   2.691   4.543  0.00  0.00    +0.000 HD
ENDBRANCH  20  24
ENDBRANCH  15  16
ENDBRANCH   1  15
TORSDOF 5
ENDMDL
MODEL 8
REMARK VINA RESULT:    -6.458      2.628      7.026
REMARK INTER + INTRA:          -9.135
REMARK INTER:                  -8.501
REMARK INTRA:                  -0.635
REMARK UNBOUND:                -0.790
REMARK  Name = 
REMARK  6 active torsions:
REMARK  status: ('A' for Active; 'I' for Inactive)
REMARK    1  A    between atoms: C_1  and  N_2
REMARK    2  A    between atoms: N_5  and  C_6
REMARK    3  A    between atoms: C_10  and  C_11
REMARK    4  A    between atoms: C_11  and  C_12
REMARK    5  A    between atoms: C_12  and  N_13
REMARK    6  A    between atoms: C_17  and  C_18
REMARK                            x       y       z     vdW  Elec       q    Type
REMARK                         _______ _______ _______ _____ _____    ______ ____
ROOT
ATOM      1  C   UNL     1      44.774   7.756  11.912  0.00  0.00    +0.000 C 
ENDROOT
BRANCH   1   6
ATOM      2  C   UNL     1      44.782   4.185  10.520  0.00  0.00    +0.000 A 
ATOM      3  C   UNL     1      44.241   3.484  11.607  0.00  0.00    +0.000 A 
ATOM      4  C   UNL     1      43.832   4.135  12.770  0.00  0.00    +0.000 A 
ATOM      5  C   UNL     1      43.975   5.514  12.884  0.00  0.00    +0.000 A 
ATOM      6  C   UNL     1      44.536   6.258  11.842  0.00  0.00    +0.000 A 
ATOM      7  C   UNL     1      44.913   5.577  10.670  0.00  0.00    +0.000 A 
BRANCH   2  12
ATOM      8  C   UNL     1      47.529   1.539   6.482  0.00  0.00    +0.000 C 
ATOM      9  N   UNL     1      46.383   2.174   7.122  0.00  0.00    +0.000 NA
ATOM     10  C   UNL     1      46.034   1.479   8.383  0.00  0.00    +0.000 C 
ATOM     11  C   UNL     1      44.832   2.137   9.096  0.00  0.00    +0.000 C 
ATOM     12  N   UNL     1      45.124   3.559   9.340  0.00  0.00    +0.000 N 
ATOM     13  C   UNL     1      45.500   4.310   8.131  0.00  0.00    +0.000 C 
ATOM     14  C   UNL     1      46.675   3.594   7.426  0.00  0.00    +0.000 C 
ENDBRANCH   2  12
ENDBRANCH   1   6
BRANCH   1  15
ATOM     15  C   UNL     1      45.803   8.179  12.961  0.00  0.00    +0.000 C 
BRANCH  15  16
ATOM     16  N   UNL     1      46.560   9.368  12.562  0.00  0.00    +0.000 N 
ATOM     17  C   UNL     1      47.877   9.029  12.183  0.00  0.00    +0.000 A 
ATOM     18  C   UNL     1      48.745  10.036  11.775  0.00  0.00    +0.000 A 
ATOM     19  C   UNL     1      50.052   9.704  11.403  0.00  0.00    +0.000 A 
ATOM     20  C   UNL     1      50.471   8.373  11.445  0.00  0.00    +0.000 A 
ATOM     21  C   UNL     1      49.539   7.437  11.848  0.00  0.00    +0.000 A 
ATOM     22  N   UNL     1      48.268   7.738  12.205  0.00  0.00    +0.000 NA
ATOM     23  H   UNL     1      46.609  10.062  13.304  0.00  0.00    +0.000 HD
BRANCH  20  24
ATOM     24  C   UNL     1      51.861   8.024  11.075  0.00  0.00    +0.000 C 
ATOM     25  N   UNL     1      52.092   7.348   9.902  0.00  0.00    +0.000 N 
ATOM     26  O   UNL     1      52.803   8.325  11.797  0.00  0.00    +0.000 OA
ATOM     27  H   UNL     1      51.396   7.051   9.236  0.00  0.00    +0.000 HD
ATOM     28  H   UNL     1      53.055   7.128   9.695  0.00  0.00    +0.000 HD
ENDBRANCH  20  24
ENDBRANCH  15  16
ENDBRANCH   1  15
TORSDOF 5
ENDMDL
MODEL 9
REMARK VINA RESULT:    -6.208      4.051      8.276
REMARK INTER + INTRA:          -8.813
REMARK INTER:                  -7.826
REMARK INTRA:                  -0.987
REMARK UNBOUND:                -0.790
REMARK  Name = 
REMARK  6 active torsions:
REMARK  status: ('A' for Active; 'I' for Inactive)
REMARK    1  A    between atoms: C_1  and  N_2
REMARK    2  A    between atoms: N_5  and  C_6
REMARK    3  A    between atoms: C_10  and  C_11
REMARK    4  A    between atoms: C_11  and  C_12
REMARK    5  A    between atoms: C_12  and  N_13
REMARK    6  A    between atoms: C_17  and  C_18
REMARK                            x       y       z     vdW  Elec       q    Type
REMARK                         _______ _______ _______ _____ _____    ______ ____
ROOT
ATOM      1  C   UNL     1      49.559   8.238  12.067  0.00  0.00    +0.000 C 
ENDROOT
BRANCH   1   6
ATOM      2  C   UNL     1      45.940   7.105  12.616  0.00  0.00    +0.000 A 
ATOM      3  C   UNL     1      45.271   8.335  12.545  0.00  0.00    +0.000 A 
ATOM      4  C   UNL     1      45.949   9.524  12.284  0.00  0.00    +0.000 A 
ATOM      5  C   UNL     1      47.328   9.516  12.106  0.00  0.00    +0.000 A 
ATOM      6  C   UNL     1      48.048   8.321  12.196  0.00  0.00    +0.000 A 
ATOM      7  C   UNL     1      47.333   7.133  12.432  0.00  0.00    +0.000 A 
BRANCH   2  12
ATOM      8  C   UNL     1      43.406   2.224  11.831  0.00  0.00    +0.000 C 
ATOM      9  N   UNL     1      43.921   3.352  12.597  0.00  0.00    +0.000 NA
ATOM     10  C   UNL     1      45.386   3.483  12.419  0.00  0.00    +0.000 C 
ATOM     11  C   UNL     1      45.963   4.681  13.207  0.00  0.00    +0.000 C 
ATOM     12  N   UNL     1      45.269   5.914  12.803  0.00  0.00    +0.000 N 
ATOM     13  C   UNL     1      43.805   5.849  12.935  0.00  0.00    +0.000 C 
ATOM     14  C   UNL     1      43.275   4.614  12.170  0.00  0.00    +0.000 C 
ENDBRANCH   2  12
ENDBRANCH   1   6
BRANCH   1  15
ATOM     15  C   UNL     1      50.271   7.761  13.333  0.00  0.00    +0.000 C 
BRANCH  15  16
ATOM     16  N   UNL     1      50.003   8.620  14.489  0.00  0.00    +0.000 N 
ATOM     17  C   UNL     1      49.483   7.874  15.569  0.00  0.00    +0.000 A 
ATOM     18  C   UNL     1      49.166   8.527  16.754  0.00  0.00    +0.000 A 
ATOM     19  C   UNL     1      48.646   7.791  17.824  0.00  0.00    +0.000 A 
ATOM     20  C   UNL     1      48.450   6.416  17.693  0.00  0.00    +0.000 A 
ATOM     21  C   UNL     1      48.806   5.847  16.485  0.00  0.00    +0.000 A 
ATOM     22  N   UNL     1      49.317   6.541  15.442  0.00  0.00    +0.000 NA
ATOM     23  H   UNL     1      49.349   9.368  14.272  0.00  0.00    +0.000 HD
BRANCH  20  24
ATOM     24  C   UNL     1      47.876   5.640  18.816  0.00  0.00    +0.000 C 
ATOM     25  N   UNL     1      46.520   5.429  18.860  0.00  0.00    +0.000 N 
ATOM     26  O   UNL     1      48.590   5.191  19.703  0.00  0.00    +0.000 OA
ATOM     27  H   UNL     1      45.842   5.752  18.187  0.00  0.00    +0.000 HD
ATOM     28  H   UNL     1      46.175   4.900  19.647  0.00  0.00    +0.000 HD
ENDBRANCH  20  24
ENDBRANCH  15  16
ENDBRANCH   1  15
TORSDOF 5
ENDMDL
