MODEL 1
REMARK VINA RESULT:    -7.526      0.000      0.000
REMARK INTER + INTRA:         -10.109
REMARK INTER:                  -9.506
REMARK INTRA:                  -0.602
REMARK UNBOUND:                -0.602
REMARK  Name = 
REMARK  5 active torsions:
REMARK  status: ('A' for Active; 'I' for Inactive)
REMARK    1  A    between atoms: N_1  and  C_2
REMARK    2  A    between atoms: C_2  and  C_3
REMARK    3  A    between atoms: C_3  and  C_4
REMARK    4  A    between atoms: C_7  and  C_8
REMARK    5  A    between atoms: C_8  and  N_9
REMARK                            x       y       z     vdW  Elec       q    Type
REMARK                         _______ _______ _______ _____ _____    ______ ____
ROOT
ATOM      1  C   UNL     1      45.989   2.591   7.924  0.00  0.00    +0.000 A 
ATOM      2  C   UNL     1      45.290   2.064   9.017  0.00  0.00    +0.000 A 
ATOM      3  C   UNL     1      44.796   2.905  10.019  0.00  0.00    +0.000 A 
ATOM      4  C   UNL     1      44.985   4.292   9.947  0.00  0.00    +0.000 A 
ATOM      5  C   UNL     1      45.658   4.819   8.836  0.00  0.00    +0.000 A 
ATOM      6  C   UNL     1      46.149   3.979   7.832  0.00  0.00    +0.000 A 
ENDROOT
BRANCH   1   7
ATOM      7  C   UNL     1      46.582   1.677   6.880  0.00  0.00    +0.000 C 
BRANCH   7   8
ATOM      8  C   UNL     1      47.301   2.432   5.758  0.00  0.00    +0.000 C 
BRANCH   8   9
ATOM      9  N   UNL     1      48.580   1.795   5.441  0.00  0.00    +0.000 NA
ATOM     10  H   UNL     1      49.266   2.511   5.205  0.00  0.00    +0.000 HD
ATOM     11  H   UNL     1      48.478   1.216   4.608  0.00  0.00    +0.000 HD
ENDBRANCH   8   9
ENDBRANCH   7   8
ENDBRANCH   1   7
BRANCH   4  12
ATOM     12  C   UNL     1      44.481   5.200  11.040  0.00  0.00    +0.000 C 
BRANCH  12  13
ATOM     13  N   UNL     1      45.375   5.240  12.194  0.00  0.00    +0.000 N 
ATOM     14  C   UNL     1      45.263   4.409  13.288  0.00  0.00    +0.000 A 
ATOM     15  C   UNL     1      46.351   4.624  14.104  0.00  0.00    +0.000 A 
ATOM     16  C   UNL     1      47.157   5.606  13.484  0.00  0.00    +0.000 A 
ATOM     17  N   UNL     1      48.342   6.113  13.903  0.00  0.00    +0.000 NA
ATOM     18  C   UNL     1      48.887   7.035  13.083  0.00  0.00    +0.000 A 
ATOM     19  C   UNL     1      48.327   7.485  11.896  0.00  0.00    +0.000 A 
ATOM     20  C   UNL     1      47.108   6.961  11.472  0.00  0.00    +0.000 A 
ATOM     21  C   UNL     1      46.529   5.991  12.297  0.00  0.00    +0.000 A 
ENDBRANCH  12  13
ENDBRANCH   4  12
TORSDOF 5
ENDMDL
MODEL 2
REMARK VINA RESULT:    -7.451      1.392      2.015
REMARK INTER + INTRA:         -10.014
REMARK INTER:                  -9.455
REMARK INTRA:                  -0.559
REMARK UNBOUND:                -0.602
REMARK  Name = 
REMARK  5 active torsions:
REMARK  status: ('A' for Active; 'I' for Inactive)
REMARK    1  A    between atoms: N_1  and  C_2
REMARK    2  A    between atoms: C_2  and  C_3
REMARK    3  A    between atoms: C_3  and  C_4
REMARK    4  A    between atoms: C_7  and  C_8
REMARK    5  A    between atoms: C_8  and  N_9
REMARK                            x       y       z     vdW  Elec       q    Type
REMARK                         _______ _______ _______ _____ _____    ______ ____
ROOT
ATOM      1  C   UNL     1      46.107   2.238   7.787  0.00  0.00    +0.000 A 
ATOM      2  C   UNL     1      45.320   1.604   8.756  0.00  0.00    +0.000 A 
ATOM      3  C   UNL     1      44.544   2.354   9.645  0.00  0.00    +0.000 A 
ATOM      4  C   UNL     1      44.533   3.754   9.580  0.00  0.00    +0.000 A 
ATOM      5  C   UNL     1      45.297   4.384   8.588  0.00  0.00    +0.000 A 
ATOM      6  C   UNL     1      46.071   3.634   7.697  0.00  0.00    +0.000 A 
ENDROOT
BRANCH   1   7
ATOM      7  C   UNL     1      46.998   1.430   6.874  0.00  0.00    +0.000 C 
BRANCH   7   8
ATOM      8  C   UNL     1      48.276   2.171   6.473  0.00  0.00    +0.000 C 
BRANCH   8   9
ATOM      9  N   UNL     1      48.274   2.473   5.040  0.00  0.00    +0.000 NA
ATOM     10  H   UNL     1      47.781   3.349   4.879  0.00  0.00    +0.000 HD
ATOM     11  H   UNL     1      47.749   1.755   4.540  0.00  0.00    +0.000 HD
ENDBRANCH   8   9
ENDBRANCH   7   8
ENDBRANCH   1   7
BRANCH   4  12
ATOM     12  C   UNL     1      43.721   4.569  10.555  0.00  0.00    +0.000 C 
BRANCH  12  13
ATOM     13  N   UNL     1      44.551   5.426  11.399  0.00  0.00    +0.000 N 
ATOM     14  C   UNL     1      44.427   6.797  11.466  0.00  0.00    +0.000 A 
ATOM     15  C   UNL     1      45.260   7.254  12.463  0.00  0.00    +0.000 A 
ATOM     16  C   UNL     1      45.901   6.128  13.029  0.00  0.00    +0.000 A 
ATOM     17  N   UNL     1      46.782   6.087  14.058  0.00  0.00    +0.000 NA
ATOM     18  C   UNL     1      47.213   4.853  14.386  0.00  0.00    +0.000 A 
ATOM     19  C   UNL     1      46.837   3.675  13.755  0.00  0.00    +0.000 A 
ATOM     20  C   UNL     1      45.932   3.726  12.697  0.00  0.00    +0.000 A 
ATOM     21  C   UNL     1      45.458   4.993  12.346  0.00  0.00    +0.000 A 
ENDBRANCH  12  13
ENDBRANCH   4  12
TORSDOF 5
ENDMDL
MODEL 3
REMARK VINA RESULT:    -7.293      1.523      2.098
REMARK INTER + INTRA:          -9.814
REMARK INTER:                  -9.261
REMARK INTRA:                  -0.553
REMARK UNBOUND:                -0.602
REMARK  Name = 
REMARK  5 active torsions:
REMARK  status: ('A' for Active; 'I' for Inactive)
REMARK    1  A    between atoms: N_1  and  C_2
REMARK    2  A    between atoms: C_2  and  C_3
REMARK    3  A    between atoms: C_3  and  C_4
REMARK    4  A    between atoms: C_7  and  C_8
REMARK    5  A    between atoms: C_8  and  N_9
REMARK                            x       y       z     vdW  Elec       q    Type
REMARK                         _______ _______ _______ _____ _____    ______ ____
ROOT
ATOM      1  C   UNL     1      46.146   2.356   7.834  0.00  0.00    +0.000 A 
ATOM      2  C   UNL     1      46.220   3.755   7.817  0.00  0.00    +0.000 A 
ATOM      3  C   UNL     1      45.460   4.518   8.709  0.00  0.00    +0.000 A 
ATOM      4  C   UNL     1      44.616   3.900   9.641  0.00  0.00    +0.000 A 
ATOM      5  C   UNL     1      44.568   2.500   9.676  0.00  0.00    +0.000 A 
ATOM      6  C   UNL     1      45.330   1.735   8.787  0.00  0.00    +0.000 A 
ENDROOT
BRANCH   1   7
ATOM      7  C   UNL     1      46.913   1.536   6.825  0.00  0.00    +0.000 C 
BRANCH   7   8
ATOM      8  C   UNL     1      48.253   2.164   6.433  0.00  0.00    +0.000 C 
BRANCH   8   9
ATOM      9  N   UNL     1      48.263   2.526   5.014  0.00  0.00    +0.000 NA
ATOM     10  H   UNL     1      47.383   2.979   4.774  0.00  0.00    +0.000 HD
ATOM     11  H   UNL     1      48.311   1.680   4.446  0.00  0.00    +0.000 HD
ENDBRANCH   8   9
ENDBRANCH   7   8
ENDBRANCH   1   7
BRANCH   4  12
ATOM     12  C   UNL     1      43.772   4.720  10.585  0.00  0.00    +0.000 C 
BRANCH  12  13
ATOM     13  N   UNL     1      44.555   5.318  11.663  0.00  0.00    +0.000 N 
ATOM     14  C   UNL     1      45.290   4.596  12.578  0.00  0.00    +0.000 A 
ATOM     15  C   UNL     1      46.011   5.483  13.345  0.00  0.00    +0.000 A 
ATOM     16  C   UNL     1      45.718   6.784  12.877  0.00  0.00    +0.000 A 
ATOM     17  N   UNL     1      46.217   7.968  13.307  0.00  0.00    +0.000 NA
ATOM     18  C   UNL     1      45.756   9.051  12.648  0.00  0.00    +0.000 A 
ATOM     19  C   UNL     1      44.834   9.029  11.611  0.00  0.00    +0.000 A 
ATOM     20  C   UNL     1      44.324   7.808  11.176  0.00  0.00    +0.000 A 
ATOM     21  C   UNL     1      44.798   6.668  11.833  0.00  0.00    +0.000 A 
ENDBRANCH  12  13
ENDBRANCH   4  12
TORSDOF 5
ENDMDL
MODEL 4
REMARK VINA RESULT:    -5.868      2.173      6.493
REMARK INTER + INTRA:          -8.014
REMARK INTER:                  -7.498
REMARK INTRA:                  -0.516
REMARK UNBOUND:                -0.602
REMARK  Name = 
REMARK  5 active torsions:
REMARK  status: ('A' for Active; 'I' for Inactive)
REMARK    1  A    between atoms: N_1  and  C_2
REMARK    2  A    between atoms: C_2  and  C_3
REMARK    3  A    between atoms: C_3  and  C_4
REMARK    4  A    between atoms: C_7  and  C_8
REMARK    5  A    between atoms: C_8  and  N_9
REMARK                            x       y       z     vdW  Elec       q    Type
REMARK                         _______ _______ _______ _____ _____    ______ ____
ROOT
ATOM      1  C   UNL     1      45.613   6.633  12.098  0.00  0.00    +0.000 A 
ATOM      2  C   UNL     1      44.355   6.022  12.179  0.00  0.00    +0.000 A 
ATOM      3  C   UNL     1      43.885   5.220  11.133  0.00  0.00    +0.000 A 
ATOM      4  C   UNL     1      44.666   5.006   9.989  0.00  0.00    +0.000 A 
ATOM      5  C   UNL     1      45.937   5.593   9.926  0.00  0.00    +0.000 A 
ATOM      6  C   UNL     1      46.409   6.393  10.972  0.00  0.00    +0.000 A 
ENDROOT
BRANCH   1   7
ATOM      7  C   UNL     1      46.089   7.554  13.195  0.00  0.00    +0.000 C 
BRANCH   7   8
ATOM      8  C   UNL     1      46.158   9.021  12.760  0.00  0.00    +0.000 C 
BRANCH   8   9
ATOM      9  N   UNL     1      44.826   9.628  12.769  0.00  0.00    +0.000 NA
ATOM     10  H   UNL     1      44.520   9.760  13.731  0.00  0.00    +0.000 HD
ATOM     11  H   UNL     1      44.155   8.990  12.342  0.00  0.00    +0.000 HD
ENDBRANCH   8   9
ENDBRANCH   7   8
ENDBRANCH   1   7
BRANCH   4  12
ATOM     12  C   UNL     1      44.152   4.166   8.847  0.00  0.00    +0.000 C 
BRANCH  12  13
ATOM     13  N   UNL     1      45.002   3.010   8.573  0.00  0.00    +0.000 N 
ATOM     14  C   UNL     1      44.833   1.772   9.153  0.00  0.00    +0.000 A 
ATOM     15  C   UNL     1      45.710   0.895   8.555  0.00  0.00    +0.000 A 
ATOM     16  C   UNL     1      46.426   1.615   7.572  0.00  0.00    +0.000 A 
ATOM     17  N   UNL     1      47.371   1.162   6.714  0.00  0.00    +0.000 NA
ATOM     18  C   UNL     1      47.866   2.091   5.872  0.00  0.00    +0.000 A 
ATOM     19  C   UNL     1      47.494   3.428   5.842  0.00  0.00    +0.000 A 
ATOM     20  C   UNL     1      46.523   3.888   6.728  0.00  0.00    +0.000 A 
ATOM     21  C   UNL     1      45.982   2.939   7.602  0.00  0.00    +0.000 A 
ENDBRANCH  12  13
ENDBRANCH   4  12
TORSDOF 5
ENDMDL
MODEL 5
REMARK VINA RESULT:    -5.851      2.086      5.995
REMARK INTER + INTRA:          -7.993
REMARK INTER:                  -7.468
REMARK INTRA:                  -0.525
REMARK UNBOUND:                -0.602
REMARK  Name = 
REMARK  5 active torsions:
REMARK  status: ('A' for Active; 'I' for Inactive)
REMARK    1  A    between atoms: N_1  and  C_2
REMARK    2  A    between atoms: C_2  and  C_3
REMARK    3  A    between atoms: C_3  and  C_4
REMARK    4  A    between atoms: C_7  and  C_8
REMARK    5  A    between atoms: C_8  and  N_9
REMARK                            x       y       z     vdW  Elec       q    Type
REMARK                         _______ _______ _______ _____ _____    ______ ____
ROOT
ATOM      1  C   UNL     1      48.334   7.427  13.116  0.00  0.00    +0.000 A 
ATOM      2  C   UNL     1      47.501   8.406  12.560  0.00  0.00    +0.000 A 
ATOM      3  C   UNL     1      46.210   8.083  12.132  0.00  0.00    +0.000 A 
ATOM      4  C   UNL     1      45.721   6.775  12.256  0.00  0.00    +0.000 A 
ATOM      5  C   UNL     1      46.546   5.804  12.841  0.00  0.00    +0.000 A 
ATOM      6  C   UNL     1      47.837   6.128  13.272  0.00  0.00    +0.000 A 
ENDROOT
BRANCH   1   7
ATOM      7  C   UNL     1      49.752   7.761  13.512  0.00  0.00    +0.000 C 
BRANCH   7   8
ATOM      8  C   UNL     1      50.561   8.391  12.375  0.00  0.00    +0.000 C 
BRANCH   8   9
ATOM      9  N   UNL     1      50.908   7.388  11.367  0.00  0.00    +0.000 NA
ATOM     10  H   UNL     1      50.195   7.376  10.641  0.00  0.00    +0.000 HD
ATOM     11  H   UNL     1      50.899   6.459  11.790  0.00  0.00    +0.000 HD
ENDBRANCH   8   9
ENDBRANCH   7   8
ENDBRANCH   1   7
BRANCH   4  12
ATOM     12  C   UNL     1      44.341   6.415  11.768  0.00  0.00    +0.000 C 
BRANCH  12  13
ATOM     13  N   UNL     1      44.206   4.992  11.464  0.00  0.00    +0.000 N 
ATOM     14  C   UNL     1      43.476   4.105  12.224  0.00  0.00    +0.000 A 
ATOM     15  C   UNL     1      43.448   2.896  11.564  0.00  0.00    +0.000 A 
ATOM     16  C   UNL     1      44.171   3.055  10.360  0.00  0.00    +0.000 A 
ATOM     17  N   UNL     1      44.385   2.146   9.377  0.00  0.00    +0.000 NA
ATOM     18  C   UNL     1      45.105   2.599   8.332  0.00  0.00    +0.000 A 
ATOM     19  C   UNL     1      45.630   3.878   8.211  0.00  0.00    +0.000 A 
ATOM     20  C   UNL     1      45.408   4.806   9.226  0.00  0.00    +0.000 A 
ATOM     21  C   UNL     1      44.649   4.366  10.315  0.00  0.00    +0.000 A 
ENDBRANCH  12  13
ENDBRANCH   4  12
TORSDOF 5
ENDMDL
MODEL 6
REMARK VINA RESULT:    -5.121      1.830      3.459
REMARK INTER + INTRA:          -7.070
REMARK INTER:                  -6.643
REMARK INTRA:                  -0.427
REMARK UNBOUND:                -0.602
REMARK  Name = 
REMARK  5 active torsions:
REMARK  status: ('A' for Active; 'I' for Inactive)
REMARK    1  A    between atoms: N_1  and  C_2
REMARK    2  A    between atoms: C_2  and  C_3
REMARK    3  A    between atoms: C_3  and  C_4
REMARK    4  A    between atoms: C_7  and  C_8
REMARK    5  A    between atoms: C_8  and  N_9
REMARK                            x       y       z     vdW  Elec       q    Type
REMARK                         _______ _______ _______ _____ _____    ______ ____
ROOT
ATOM      1  C   UNL     1      44.910   3.612  10.566  0.00  0.00    +0.000 A 
ATOM      2  C   UNL     1      45.348   3.376  11.875  0.00  0.00    +0.000 A 
ATOM      3  C   UNL     1      45.733   4.439  12.699  0.00  0.00    +0.000 A 
ATOM      4  C   UNL     1      45.682   5.760  12.234  0.00  0.00    +0.000 A 
ATOM      5  C   UNL     1      45.213   5.995  10.934  0.00  0.00    +0.000 A 
ATOM      6  C   UNL     1      44.825   4.933  10.111  0.00  0.00    +0.000 A 
ENDROOT
BRANCH   1   7
ATOM      7  C   UNL     1      44.561   2.460   9.655  0.00  0.00    +0.000 C 
BRANCH   7   8
ATOM      8  C   UNL     1      45.498   2.343   8.449  0.00  0.00    +0.000 C 
BRANCH   8   9
ATOM      9  N   UNL     1      46.066   0.997   8.362  0.00  0.00    +0.000 NA
ATOM     10  H   UNL     1      46.431   0.843   7.423  0.00  0.00    +0.000 HD
ATOM     11  H   UNL     1      45.330   0.304   8.498  0.00  0.00    +0.000 HD
ENDBRANCH   8   9
ENDBRANCH   7   8
ENDBRANCH   1   7
BRANCH   4  12
ATOM     12  C   UNL     1      46.124   6.906  13.108  0.00  0.00    +0.000 C 
BRANCH  12  13
ATOM     13  N   UNL     1      47.546   7.208  12.963  0.00  0.00    +0.000 N 
ATOM     14  C   UNL     1      48.104   7.776  11.838  0.00  0.00    +0.000 A 
ATOM     15  C   UNL     1      49.426   8.051  12.108  0.00  0.00    +0.000 A 
ATOM     16  C   UNL     1      49.679   7.651  13.440  0.00  0.00    +0.000 A 
ATOM     17  N   UNL     1      50.829   7.755  14.149  0.00  0.00    +0.000 NA
ATOM     18  C   UNL     1      50.759   7.297  15.415  0.00  0.00    +0.000 A 
ATOM     19  C   UNL     1      49.635   6.737  16.006  0.00  0.00    +0.000 A 
ATOM     20  C   UNL     1      48.457   6.631  15.270  0.00  0.00    +0.000 A 
ATOM     21  C   UNL     1      48.499   7.114  13.959  0.00  0.00    +0.000 A 
ENDBRANCH  12  13
ENDBRANCH   4  12
TORSDOF 5
ENDMDL
MODEL 7
REMARK VINA RESULT:    -5.014      3.571      5.491
REMARK INTER + INTRA:          -6.935
REMARK INTER:                  -6.367
REMARK INTRA:                  -0.568
REMARK UNBOUND:                -0.602
REMARK  Name = 
REMARK  5 active torsions:
REMARK  status: ('A' for Active; 'I' for Inactive)
REMARK    1  A    between atoms: N_1  and  C_2
REMARK    2  A    between atoms: C_2  and  C_3
REMARK    3  A    between atoms: C_3  and  C_4
REMARK    4  A    between atoms: C_7  and  C_8
REMARK    5  A    between atoms: C_8  and  N_9
REMARK                            x       y       z     vdW  Elec       q    Type
REMARK                         _______ _______ _______ _____ _____    ______ ____
ROOT
ATOM      1  C   UNL     1      45.346   5.152  12.025  0.00  0.00    +0.000 A 
ATOM      2  C   UNL     1      45.939   4.692  13.207  0.00  0.00    +0.000 A 
ATOM      3  C   UNL     1      47.119   5.273  13.684  0.00  0.00    +0.000 A 
ATOM      4  C   UNL     1      47.726   6.331  12.993  0.00  0.00    +0.000 A 
ATOM      5  C   UNL     1      47.112   6.809  11.828  0.00  0.00    +0.000 A 
ATOM      6  C   UNL     1      45.931   6.230  11.351  0.00  0.00    +0.000 A 
ENDROOT
BRANCH   1   7
ATOM      7  C   UNL     1      44.112   4.477  11.474  0.00  0.00    +0.000 C 
BRANCH   7   8
ATOM      8  C   UNL     1      43.544   3.407  12.409  0.00  0.00    +0.000 C 
BRANCH   8   9
ATOM      9  N   UNL     1      43.054   2.257  11.647  0.00  0.00    +0.000 NA
ATOM     10  H   UNL     1      43.764   1.969  10.975  0.00  0.00    +0.000 HD
ATOM     11  H   UNL     1      42.239   2.531  11.099  0.00  0.00    +0.000 HD
ENDBRANCH   8   9
ENDBRANCH   7   8
ENDBRANCH   1   7
BRANCH   4  12
ATOM     12  C   UNL     1      49.013   6.941  13.487  0.00  0.00    +0.000 C 
BRANCH  12  13
ATOM     13  N   UNL     1      48.841   7.680  14.736  0.00  0.00    +0.000 N 
ATOM     14  C   UNL     1      48.319   8.953  14.815  0.00  0.00    +0.000 A 
ATOM     15  C   UNL     1      48.167   9.272  16.146  0.00  0.00    +0.000 A 
ATOM     16  C   UNL     1      48.597   8.157  16.901  0.00  0.00    +0.000 A 
ATOM     17  N   UNL     1      48.602   8.000  18.247  0.00  0.00    +0.000 NA
ATOM     18  C   UNL     1      49.059   6.807  18.677  0.00  0.00    +0.000 A 
ATOM     19  C   UNL     1      49.518   5.781  17.863  0.00  0.00    +0.000 A 
ATOM     20  C   UNL     1      49.511   5.950  16.481  0.00  0.00    +0.000 A 
ATOM     21  C   UNL     1      49.027   7.173  16.007  0.00  0.00    +0.000 A 
ENDBRANCH  12  13
ENDBRANCH   4  12
TORSDOF 5
ENDMDL
MODEL 8
REMARK VINA RESULT:    -4.985      2.397      6.358
REMARK INTER + INTRA:          -6.898
REMARK INTER:                  -6.383
REMARK INTRA:                  -0.515
REMARK UNBOUND:                -0.602
REMARK  Name = 
REMARK  5 active torsions:
REMARK  status: ('A' for Active; 'I' for Inactive)
REMARK    1  A    between atoms: N_1  and  C_2
REMARK    2  A    between atoms: C_2  and  C_3
REMARK    3  A    between atoms: C_3  and  C_4
REMARK    4  A    between atoms: C_7  and  C_8
REMARK    5  A    between atoms: C_8  and  N_9
REMARK                            x       y       z     vdW  Elec       q    Type
REMARK                         _______ _______ _______ _____ _____    ______ ____
ROOT
ATOM      1  C   UNL     1      49.485   8.753  12.765  0.00  0.00    +0.000 A 
ATOM      2  C   UNL     1      48.380   9.398  13.336  0.00  0.00    +0.000 A 
ATOM      3  C   UNL     1      47.079   8.991  13.025  0.00  0.00    +0.000 A 
ATOM      4  C   UNL     1      46.854   7.926  12.143  0.00  0.00    +0.000 A 
ATOM      5  C   UNL     1      47.961   7.262  11.598  0.00  0.00    +0.000 A 
ATOM      6  C   UNL     1      49.263   7.667  11.910  0.00  0.00    +0.000 A 
ENDROOT
BRANCH   1   7
ATOM      7  C   UNL     1      50.886   9.239  13.046  0.00  0.00    +0.000 C 
BRANCH   7   8
ATOM      8  C   UNL     1      51.948   8.532  12.199  0.00  0.00    +0.000 C 
BRANCH   8   9
ATOM      9  N   UNL     1      52.985   7.944  13.050  0.00  0.00    +0.000 NA
ATOM     10  H   UNL     1      53.887   8.354  12.816  0.00  0.00    +0.000 HD
ATOM     11  H   UNL     1      53.066   6.947  12.852  0.00  0.00    +0.000 HD
ENDBRANCH   8   9
ENDBRANCH   7   8
ENDBRANCH   1   7
BRANCH   4  12
ATOM     12  C   UNL     1      45.452   7.502  11.782  0.00  0.00    +0.000 C 
BRANCH  12  13
ATOM     13  N   UNL     1      45.252   6.060  11.905  0.00  0.00    +0.000 N 
ATOM     14  C   UNL     1      44.908   5.425  13.078  0.00  0.00    +0.000 A 
ATOM     15  C   UNL     1      44.660   4.101  12.792  0.00  0.00    +0.000 A 
ATOM     16  C   UNL     1      44.845   3.926  11.401  0.00  0.00    +0.000 A 
ATOM     17  N   UNL     1      44.682   2.802  10.663  0.00  0.00    +0.000 NA
ATOM     18  C   UNL     1      44.919   2.950   9.344  0.00  0.00    +0.000 A 
ATOM     19  C   UNL     1      45.314   4.128   8.725  0.00  0.00    +0.000 A 
ATOM     20  C   UNL     1      45.481   5.279   9.491  0.00  0.00    +0.000 A 
ATOM     21  C   UNL     1      45.226   5.156  10.861  0.00  0.00    +0.000 A 
ENDBRANCH  12  13
ENDBRANCH   4  12
TORSDOF 5
ENDMDL
MODEL 9
REMARK VINA RESULT:    -4.822      3.608      7.559
REMARK INTER + INTRA:          -6.694
REMARK INTER:                  -6.204
REMARK INTRA:                  -0.490
REMARK UNBOUND:                -0.602
REMARK  Name = 
REMARK  5 active torsions:
REMARK  status: ('A' for Active; 'I' for Inactive)
REMARK    1  A    between atoms: N_1  and  C_2
REMARK    2  A    between atoms: C_2  and  C_3
REMARK    3  A    between atoms: C_3  and  C_4
REMARK    4  A    between atoms: C_7  and  C_8
REMARK    5  A    between atoms: C_8  and  N_9
REMARK                            x       y       z     vdW  Elec       q    Type
REMARK                         _______ _______ _______ _____ _____    ______ ____
ROOT
ATOM      1  C   UNL     1      48.175   5.393  17.193  0.00  0.00    +0.000 A 
ATOM      2  C   UNL     1      47.480   4.439  16.439  0.00  0.00    +0.000 A 
ATOM      3  C   UNL     1      47.338   4.590  15.056  0.00  0.00    +0.000 A 
ATOM      4  C   UNL     1      47.894   5.695  14.396  0.00  0.00    +0.000 A 
ATOM      5  C   UNL     1      48.616   6.631  15.149  0.00  0.00    +0.000 A 
ATOM      6  C   UNL     1      48.760   6.479  16.532  0.00  0.00    +0.000 A 
ENDROOT
BRANCH   1   7
ATOM      7  C   UNL     1      48.267   5.265  18.695  0.00  0.00    +0.000 C 
BRANCH   7   8
ATOM      8  C   UNL     1      49.689   4.987  19.188  0.00  0.00    +0.000 C 
BRANCH   8   9
ATOM      9  N   UNL     1      50.124   3.646  18.790  0.00  0.00    +0.000 NA
ATOM     10  H   UNL     1      51.119   3.662  18.576  0.00  0.00    +0.000 HD
ATOM     11  H   UNL     1      49.652   3.375  17.927  0.00  0.00    +0.000 HD
ENDBRANCH   8   9
ENDBRANCH   7   8
ENDBRANCH   1   7
BRANCH   4  12
ATOM     12  C   UNL     1      47.718   5.878  12.910  0.00  0.00    +0.000 C 
BRANCH  12  13
ATOM     13  N   UNL     1      46.343   6.207  12.543  0.00  0.00    +0.000 N 
ATOM     14  C   UNL     1      45.884   7.491  12.341  0.00  0.00    +0.000 A 
ATOM     15  C   UNL     1      44.593   7.415  11.867  0.00  0.00    +0.000 A 
ATOM     16  C   UNL     1      44.260   6.045  11.763  0.00  0.00    +0.000 A 
ATOM     17  N   UNL     1      43.109   5.487  11.315  0.00  0.00    +0.000 NA
ATOM     18  C   UNL     1      43.092   4.139  11.320  0.00  0.00    +0.000 A 
ATOM     19  C   UNL     1      44.130   3.324  11.748  0.00  0.00    +0.000 A 
ATOM     20  C   UNL     1      45.309   3.904  12.209  0.00  0.00    +0.000 A 
ATOM     21  C   UNL     1      45.358   5.301  12.201  0.00  0.00    +0.000 A 
ENDBRANCH  12  13
ENDBRANCH   4  12
TORSDOF 5
ENDMDL
