MODEL 1
REMARK VINA RESULT:    -7.453      0.000      0.000
REMARK INTER + INTRA:         -10.613
REMARK INTER:                  -9.631
REMARK INTRA:                  -0.982
REMARK UNBOUND:                -0.982
REMARK  Name = 
REMARK  5 active torsions:
REMARK  status: ('A' for Active; 'I' for Inactive)
REMARK    1  A    between atoms: C_2  and  C_3
REMARK    2  A    between atoms: N_7  and  C_8
REMARK    3  A    between atoms: C_8  and  C_9
REMARK    4  A    between atoms: C_13  and  C_14
REMARK    5  A    between atoms: C_24  and  C_25
REMARK                            x       y       z     vdW  Elec       q    Type
REMARK                         _______ _______ _______ _____ _____    ______ ____
ROOT
ATOM      1  C   UNL     1      48.590   7.848  13.313  0.00  0.00    +0.000 C 
ATOM      2  C   UNL     1      49.691   8.423  12.425  0.00  0.00    +0.000 C 
ATOM      3  C   UNL     1      49.093   9.266  13.503  0.00  0.00    +0.000 C 
ENDROOT
BRANCH   1   8
ATOM      4  C   UNL     1      48.371   5.688  18.000  0.00  0.00    +0.000 A 
ATOM      5  N   UNL     1      48.502   7.020  17.735  0.00  0.00    +0.000 NA
ATOM      6  C   UNL     1      48.666   7.359  16.429  0.00  0.00    +0.000 A 
ATOM      7  C   UNL     1      48.716   6.432  15.411  0.00  0.00    +0.000 A 
ATOM      8  N   UNL     1      49.066   6.695  14.095  0.00  0.00    +0.000 N 
ATOM      9  N   UNL     1      48.537   5.121  15.682  0.00  0.00    +0.000 NA
ATOM     10  C   UNL     1      48.358   4.740  16.986  0.00  0.00    +0.000 A 
ATOM     11  H   UNL     1      48.965   5.801  13.616  0.00  0.00    +0.000 HD
BRANCH  10  12
ATOM     12  C   UNL     1      48.161   3.264  17.241  0.00  0.00    +0.000 C 
ATOM     13  F   UNL     1      46.949   2.917  17.749  0.00  0.00    +0.000 F 
ATOM     14  F   UNL     1      48.302   2.521  16.106  0.00  0.00    +0.000 F 
ATOM     15  F   UNL     1      49.074   2.765  18.124  0.00  0.00    +0.000 F 
ENDBRANCH  10  12
BRANCH   4  17
ATOM     16  N   UNL     1      48.294   5.122  20.533  0.00  0.00    +0.000 NA
ATOM     17  C   UNL     1      48.313   5.365  19.399  0.00  0.00    +0.000 C 
ENDBRANCH   4  17
ENDBRANCH   1   8
BRANCH   1  18
ATOM     18  C   UNL     1      47.191   7.632  12.737  0.00  0.00    +0.000 A 
ATOM     19  C   UNL     1      46.210   8.628  12.866  0.00  0.00    +0.000 A 
ATOM     20  C   UNL     1      45.006   8.552  12.171  0.00  0.00    +0.000 A 
ATOM     21  C   UNL     1      44.731   7.444  11.371  0.00  0.00    +0.000 A 
ATOM     22  C   UNL     1      45.640   6.379  11.260  0.00  0.00    +0.000 A 
ATOM     23  C   UNL     1      46.868   6.508  11.945  0.00  0.00    +0.000 A 
BRANCH  22  24
ATOM     24  C   UNL     1      45.322   5.177  10.449  0.00  0.00    +0.000 A 
ATOM     25  C   UNL     1      45.701   5.077   9.097  0.00  0.00    +0.000 A 
ATOM     26  C   UNL     1      45.368   3.960   8.321  0.00  0.00    +0.000 A 
ATOM     27  C   UNL     1      44.659   2.906   8.885  0.00  0.00    +0.000 A 
ATOM     28  C   UNL     1      44.281   2.969  10.223  0.00  0.00    +0.000 A 
ATOM     29  C   UNL     1      44.605   4.093  10.991  0.00  0.00    +0.000 A 
ENDBRANCH  22  24
ENDBRANCH   1  18
TORSDOF 5
ENDMDL
MODEL 2
REMARK VINA RESULT:    -6.562      3.776      7.020
REMARK INTER + INTRA:          -9.461
REMARK INTER:                  -9.502
REMARK INTRA:                   0.041
REMARK UNBOUND:                -0.982
REMARK  Name = 
REMARK  5 active torsions:
REMARK  status: ('A' for Active; 'I' for Inactive)
REMARK    1  A    between atoms: C_2  and  C_3
REMARK    2  A    between atoms: N_7  and  C_8
REMARK    3  A    between atoms: C_8  and  C_9
REMARK    4  A    between atoms: C_13  and  C_14
REMARK    5  A    between atoms: C_24  and  C_25
REMARK                            x       y       z     vdW  Elec       q    Type
REMARK                         _______ _______ _______ _____ _____    ______ ____
ROOT
ATOM      1  C   UNL     1      47.409   8.482  12.800  0.00  0.00    +0.000 C 
ATOM      2  C   UNL     1      46.072   9.216  12.740  0.00  0.00    +0.000 C 
ATOM      3  C   UNL     1      47.304   9.878  12.218  0.00  0.00    +0.000 C 
ENDROOT
BRANCH   1   8
ATOM      4  C   UNL     1      44.557   4.317  11.702  0.00  0.00    +0.000 A 
ATOM      5  N   UNL     1      44.729   4.871  12.938  0.00  0.00    +0.000 NA
ATOM      6  C   UNL     1      45.623   5.890  13.021  0.00  0.00    +0.000 A 
ATOM      7  C   UNL     1      46.342   6.350  11.939  0.00  0.00    +0.000 A 
ATOM      8  N   UNL     1      47.395   7.251  11.993  0.00  0.00    +0.000 N 
ATOM      9  N   UNL     1      46.128   5.827  10.713  0.00  0.00    +0.000 NA
ATOM     10  C   UNL     1      45.226   4.803  10.587  0.00  0.00    +0.000 A 
ATOM     11  H   UNL     1      47.668   7.392  11.021  0.00  0.00    +0.000 HD
BRANCH  10  12
ATOM     12  C   UNL     1      45.018   4.248   9.197  0.00  0.00    +0.000 C 
ATOM     13  F   UNL     1      43.777   4.430   8.675  0.00  0.00    +0.000 F 
ATOM     14  F   UNL     1      45.875   4.799   8.289  0.00  0.00    +0.000 F 
ATOM     15  F   UNL     1      45.235   2.902   9.139  0.00  0.00    +0.000 F 
ENDBRANCH  10  12
BRANCH   4  17
ATOM     16  N   UNL     1      43.003   2.238  11.692  0.00  0.00    +0.000 NA
ATOM     17  C   UNL     1      43.691   3.172  11.681  0.00  0.00    +0.000 C 
ENDBRANCH   4  17
ENDBRANCH   1   8
BRANCH   1  18
ATOM     18  C   UNL     1      48.107   8.295  14.147  0.00  0.00    +0.000 A 
ATOM     19  C   UNL     1      48.436   9.409  14.936  0.00  0.00    +0.000 A 
ATOM     20  C   UNL     1      48.871   9.262  16.250  0.00  0.00    +0.000 A 
ATOM     21  C   UNL     1      49.041   7.988  16.791  0.00  0.00    +0.000 A 
ATOM     22  C   UNL     1      48.801   6.833  16.029  0.00  0.00    +0.000 A 
ATOM     23  C   UNL     1      48.322   7.019  14.714  0.00  0.00    +0.000 A 
BRANCH  22  24
ATOM     24  C   UNL     1      49.033   5.479  16.590  0.00  0.00    +0.000 A 
ATOM     25  C   UNL     1      50.253   5.132  17.202  0.00  0.00    +0.000 A 
ATOM     26  C   UNL     1      50.486   3.844  17.698  0.00  0.00    +0.000 A 
ATOM     27  C   UNL     1      49.496   2.872  17.606  0.00  0.00    +0.000 A 
ATOM     28  C   UNL     1      48.275   3.188  17.018  0.00  0.00    +0.000 A 
ATOM     29  C   UNL     1      48.050   4.473  16.513  0.00  0.00    +0.000 A 
ENDBRANCH  22  24
ENDBRANCH   1  18
TORSDOF 5
ENDMDL
MODEL 3
REMARK VINA RESULT:    -6.229      3.192      6.929
REMARK INTER + INTRA:          -9.031
REMARK INTER:                  -8.557
REMARK INTRA:                  -0.474
REMARK UNBOUND:                -0.982
REMARK  Name = 
REMARK  5 active torsions:
REMARK  status: ('A' for Active; 'I' for Inactive)
REMARK    1  A    between atoms: C_2  and  C_3
REMARK    2  A    between atoms: N_7  and  C_8
REMARK    3  A    between atoms: C_8  and  C_9
REMARK    4  A    between atoms: C_13  and  C_14
REMARK    5  A    between atoms: C_24  and  C_25
REMARK                            x       y       z     vdW  Elec       q    Type
REMARK                         _______ _______ _______ _____ _____    ______ ____
ROOT
ATOM      1  C   UNL     1      47.750   8.683  13.570  0.00  0.00    +0.000 C 
ATOM      2  C   UNL     1      47.997  10.115  13.104  0.00  0.00    +0.000 C 
ATOM      3  C   UNL     1      48.809   9.000  12.532  0.00  0.00    +0.000 C 
ENDROOT
BRANCH   1   8
ATOM      4  C   UNL     1      45.133   5.161  10.843  0.00  0.00    +0.000 A 
ATOM      5  N   UNL     1      46.243   5.839  10.426  0.00  0.00    +0.000 NA
ATOM      6  C   UNL     1      46.698   6.813  11.256  0.00  0.00    +0.000 A 
ATOM      7  C   UNL     1      46.088   7.132  12.449  0.00  0.00    +0.000 A 
ATOM      8  N   UNL     1      46.388   8.229  13.243  0.00  0.00    +0.000 N 
ATOM      9  N   UNL     1      45.020   6.422  12.873  0.00  0.00    +0.000 NA
ATOM     10  C   UNL     1      44.536   5.423  12.069  0.00  0.00    +0.000 A 
ATOM     11  H   UNL     1      45.778   8.138  14.054  0.00  0.00    +0.000 HD
BRANCH  10  12
ATOM     12  C   UNL     1      43.342   4.655  12.583  0.00  0.00    +0.000 C 
ATOM     13  F   UNL     1      42.737   5.183  13.680  0.00  0.00    +0.000 F 
ATOM     14  F   UNL     1      42.356   4.547  11.646  0.00  0.00    +0.000 F 
ATOM     15  F   UNL     1      43.660   3.375  12.933  0.00  0.00    +0.000 F 
ENDBRANCH  10  12
BRANCH   4  17
ATOM     16  N   UNL     1      44.195   3.484   9.097  0.00  0.00    +0.000 NA
ATOM     17  C   UNL     1      44.620   4.219   9.887  0.00  0.00    +0.000 C 
ENDBRANCH   4  17
ENDBRANCH   1   8
BRANCH   1  18
ATOM     18  C   UNL     1      48.192   8.258  14.970  0.00  0.00    +0.000 A 
ATOM     19  C   UNL     1      48.144   9.171  16.036  0.00  0.00    +0.000 A 
ATOM     20  C   UNL     1      48.332   8.758  17.352  0.00  0.00    +0.000 A 
ATOM     21  C   UNL     1      48.630   7.424  17.628  0.00  0.00    +0.000 A 
ATOM     22  C   UNL     1      48.766   6.478  16.600  0.00  0.00    +0.000 A 
ATOM     23  C   UNL     1      48.528   6.923  15.281  0.00  0.00    +0.000 A 
BRANCH  22  24
ATOM     24  C   UNL     1      49.135   5.070  16.893  0.00  0.00    +0.000 A 
ATOM     25  C   UNL     1      50.401   4.730  17.407  0.00  0.00    +0.000 A 
ATOM     26  C   UNL     1      50.763   3.400  17.648  0.00  0.00    +0.000 A 
ATOM     27  C   UNL     1      49.860   2.374  17.395  0.00  0.00    +0.000 A 
ATOM     28  C   UNL     1      48.596   2.679  16.898  0.00  0.00    +0.000 A 
ATOM     29  C   UNL     1      48.242   4.009  16.646  0.00  0.00    +0.000 A 
ENDBRANCH  22  24
ENDBRANCH   1  18
TORSDOF 5
ENDMDL
MODEL 4
REMARK VINA RESULT:    -6.221      1.693      2.061
REMARK INTER + INTRA:          -9.021
REMARK INTER:                  -8.988
REMARK INTRA:                  -0.032
REMARK UNBOUND:                -0.982
REMARK  Name = 
REMARK  5 active torsions:
REMARK  status: ('A' for Active; 'I' for Inactive)
REMARK    1  A    between atoms: C_2  and  C_3
REMARK    2  A    between atoms: N_7  and  C_8
REMARK    3  A    between atoms: C_8  and  C_9
REMARK    4  A    between atoms: C_13  and  C_14
REMARK    5  A    between atoms: C_24  and  C_25
REMARK                            x       y       z     vdW  Elec       q    Type
REMARK                         _______ _______ _______ _____ _____    ______ ____
ROOT
ATOM      1  C   UNL     1      48.703   8.093  12.643  0.00  0.00    +0.000 C 
ATOM      2  C   UNL     1      49.841   7.543  11.788  0.00  0.00    +0.000 C 
ATOM      3  C   UNL     1      49.478   8.988  11.696  0.00  0.00    +0.000 C 
ENDROOT
BRANCH   1   8
ATOM      4  C   UNL     1      48.651   4.747  16.579  0.00  0.00    +0.000 A 
ATOM      5  N   UNL     1      47.695   4.865  15.612  0.00  0.00    +0.000 NA
ATOM      6  C   UNL     1      47.845   5.897  14.741  0.00  0.00    +0.000 A 
ATOM      7  C   UNL     1      48.885   6.799  14.815  0.00  0.00    +0.000 A 
ATOM      8  N   UNL     1      48.991   7.971  14.082  0.00  0.00    +0.000 N 
ATOM      9  N   UNL     1      49.849   6.643  15.747  0.00  0.00    +0.000 NA
ATOM     10  C   UNL     1      49.739   5.608  16.637  0.00  0.00    +0.000 A 
ATOM     11  H   UNL     1      49.887   8.371  14.358  0.00  0.00    +0.000 HD
BRANCH  10  12
ATOM     12  C   UNL     1      50.841   5.472  17.661  0.00  0.00    +0.000 C 
ATOM     13  F   UNL     1      50.448   5.570  18.959  0.00  0.00    +0.000 F 
ATOM     14  F   UNL     1      51.484   4.272  17.570  0.00  0.00    +0.000 F 
ATOM     15  F   UNL     1      51.809   6.421  17.510  0.00  0.00    +0.000 F 
ENDBRANCH  10  12
BRANCH   4  17
ATOM     16  N   UNL     1      48.216   2.884  18.334  0.00  0.00    +0.000 NA
ATOM     17  C   UNL     1      48.393   3.715  17.544  0.00  0.00    +0.000 C 
ENDBRANCH   4  17
ENDBRANCH   1   8
BRANCH   1  18
ATOM     18  C   UNL     1      47.258   7.731  12.300  0.00  0.00    +0.000 A 
ATOM     19  C   UNL     1      46.214   8.622  12.600  0.00  0.00    +0.000 A 
ATOM     20  C   UNL     1      44.927   8.419  12.109  0.00  0.00    +0.000 A 
ATOM     21  C   UNL     1      44.640   7.285  11.351  0.00  0.00    +0.000 A 
ATOM     22  C   UNL     1      45.623   6.319  11.081  0.00  0.00    +0.000 A 
ATOM     23  C   UNL     1      46.926   6.577  11.558  0.00  0.00    +0.000 A 
BRANCH  22  24
ATOM     24  C   UNL     1      45.301   5.087  10.318  0.00  0.00    +0.000 A 
ATOM     25  C   UNL     1      45.698   4.923   8.977  0.00  0.00    +0.000 A 
ATOM     26  C   UNL     1      45.363   3.778   8.246  0.00  0.00    +0.000 A 
ATOM     27  C   UNL     1      44.632   2.758   8.844  0.00  0.00    +0.000 A 
ATOM     28  C   UNL     1      44.235   2.884  10.172  0.00  0.00    +0.000 A 
ATOM     29  C   UNL     1      44.562   4.036  10.896  0.00  0.00    +0.000 A 
ENDBRANCH  22  24
ENDBRANCH   1  18
TORSDOF 5
ENDMDL
MODEL 5
REMARK VINA RESULT:    -5.856      3.815      7.843
REMARK INTER + INTRA:          -8.549
REMARK INTER:                  -7.446
REMARK INTRA:                  -1.104
REMARK UNBOUND:                -0.982
REMARK  Name = 
REMARK  5 active torsions:
REMARK  status: ('A' for Active; 'I' for Inactive)
REMARK    1  A    between atoms: C_2  and  C_3
REMARK    2  A    between atoms: N_7  and  C_8
REMARK    3  A    between atoms: C_8  and  C_9
REMARK    4  A    between atoms: C_13  and  C_14
REMARK    5  A    between atoms: C_24  and  C_25
REMARK                            x       y       z     vdW  Elec       q    Type
REMARK                         _______ _______ _______ _____ _____    ______ ____
ROOT
ATOM      1  C   UNL     1      48.505   6.957  18.089  0.00  0.00    +0.000 C 
ATOM      2  C   UNL     1      47.740   7.479  19.303  0.00  0.00    +0.000 C 
ATOM      3  C   UNL     1      49.228   7.584  19.265  0.00  0.00    +0.000 C 
ENDROOT
BRANCH   1   8
ATOM      4  C   UNL     1      50.162   8.042  13.318  0.00  0.00    +0.000 A 
ATOM      5  N   UNL     1      50.927   8.015  14.448  0.00  0.00    +0.000 NA
ATOM      6  C   UNL     1      50.264   7.830  15.619  0.00  0.00    +0.000 A 
ATOM      7  C   UNL     1      48.895   7.688  15.694  0.00  0.00    +0.000 A 
ATOM      8  N   UNL     1      48.146   7.685  16.861  0.00  0.00    +0.000 N 
ATOM      9  N   UNL     1      48.155   7.668  14.565  0.00  0.00    +0.000 NA
ATOM     10  C   UNL     1      48.789   7.842  13.363  0.00  0.00    +0.000 A 
ATOM     11  H   UNL     1      47.186   7.528  16.554  0.00  0.00    +0.000 HD
BRANCH  10  12
ATOM     12  C   UNL     1      47.922   7.811  12.127  0.00  0.00    +0.000 C 
ATOM     13  F   UNL     1      48.444   7.144  11.064  0.00  0.00    +0.000 F 
ATOM     14  F   UNL     1      46.712   7.226  12.360  0.00  0.00    +0.000 F 
ATOM     15  F   UNL     1      47.642   9.062  11.659  0.00  0.00    +0.000 F 
ENDBRANCH  10  12
BRANCH   4  17
ATOM     16  N   UNL     1      51.447   8.616  11.137  0.00  0.00    +0.000 NA
ATOM     17  C   UNL     1      50.888   8.352  12.118  0.00  0.00    +0.000 C 
ENDBRANCH   4  17
ENDBRANCH   1   8
BRANCH   1  18
ATOM     18  C   UNL     1      48.627   5.450  17.865  0.00  0.00    +0.000 A 
ATOM     19  C   UNL     1      47.511   4.700  17.458  0.00  0.00    +0.000 A 
ATOM     20  C   UNL     1      47.640   3.379  17.041  0.00  0.00    +0.000 A 
ATOM     21  C   UNL     1      48.886   2.755  17.075  0.00  0.00    +0.000 A 
ATOM     22  C   UNL     1      50.027   3.427  17.543  0.00  0.00    +0.000 A 
ATOM     23  C   UNL     1      49.868   4.778  17.919  0.00  0.00    +0.000 A 
BRANCH  22  24
ATOM     24  C   UNL     1      51.342   2.743  17.627  0.00  0.00    +0.000 A 
ATOM     25  C   UNL     1      51.472   1.360  17.398  0.00  0.00    +0.000 A 
ATOM     26  C   UNL     1      52.706   0.709  17.514  0.00  0.00    +0.000 A 
ATOM     27  C   UNL     1      53.846   1.430  17.850  0.00  0.00    +0.000 A 
ATOM     28  C   UNL     1      53.752   2.800  18.071  0.00  0.00    +0.000 A 
ATOM     29  C   UNL     1      52.515   3.446  17.966  0.00  0.00    +0.000 A 
ENDBRANCH  22  24
ENDBRANCH   1  18
TORSDOF 5
ENDMDL
MODEL 6
REMARK VINA RESULT:    -5.690      1.555      2.446
REMARK INTER + INTRA:          -8.334
REMARK INTER:                  -7.469
REMARK INTRA:                  -0.865
REMARK UNBOUND:                -0.982
REMARK  Name = 
REMARK  5 active torsions:
REMARK  status: ('A' for Active; 'I' for Inactive)
REMARK    1  A    between atoms: C_2  and  C_3
REMARK    2  A    between atoms: N_7  and  C_8
REMARK    3  A    between atoms: C_8  and  C_9
REMARK    4  A    between atoms: C_13  and  C_14
REMARK    5  A    between atoms: C_24  and  C_25
REMARK                            x       y       z     vdW  Elec       q    Type
REMARK                         _______ _______ _______ _____ _____    ______ ____
ROOT
ATOM      1  C   UNL     1      50.428   8.337  14.653  0.00  0.00    +0.000 C 
ATOM      2  C   UNL     1      51.753   8.748  14.015  0.00  0.00    +0.000 C 
ATOM      3  C   UNL     1      51.263   9.463  15.230  0.00  0.00    +0.000 C 
ENDROOT
BRANCH   1   8
ATOM      4  C   UNL     1      49.049   5.349  18.635  0.00  0.00    +0.000 A 
ATOM      5  N   UNL     1      49.577   6.605  18.718  0.00  0.00    +0.000 NA
ATOM      6  C   UNL     1      49.986   7.163  17.548  0.00  0.00    +0.000 A 
ATOM      7  C   UNL     1      49.899   6.516  16.335  0.00  0.00    +0.000 A 
ATOM      8  N   UNL     1      50.465   6.950  15.145  0.00  0.00    +0.000 N 
ATOM      9  N   UNL     1      49.331   5.293  16.260  0.00  0.00    +0.000 NA
ATOM     10  C   UNL     1      48.897   4.701  17.416  0.00  0.00    +0.000 A 
ATOM     11  H   UNL     1      50.180   6.259  14.453  0.00  0.00    +0.000 HD
BRANCH  10  12
ATOM     12  C   UNL     1      48.267   3.334  17.285  0.00  0.00    +0.000 C 
ATOM     13  F   UNL     1      48.199   2.842  16.019  0.00  0.00    +0.000 F 
ATOM     14  F   UNL     1      48.936   2.387  18.003  0.00  0.00    +0.000 F 
ATOM     15  F   UNL     1      46.984   3.308  17.747  0.00  0.00    +0.000 F 
ENDBRANCH  10  12
BRANCH   4  17
ATOM     16  N   UNL     1      48.481   4.302  20.941  0.00  0.00    +0.000 NA
ATOM     17  C   UNL     1      48.735   4.753  19.903  0.00  0.00    +0.000 C 
ENDBRANCH   4  17
ENDBRANCH   1   8
BRANCH   1  18
ATOM     18  C   UNL     1      49.114   8.677  13.950  0.00  0.00    +0.000 A 
ATOM     19  C   UNL     1      48.857   9.991  13.525  0.00  0.00    +0.000 A 
ATOM     20  C   UNL     1      47.777  10.286  12.699  0.00  0.00    +0.000 A 
ATOM     21  C   UNL     1      46.891   9.277  12.323  0.00  0.00    +0.000 A 
ATOM     22  C   UNL     1      47.051   7.957  12.776  0.00  0.00    +0.000 A 
ATOM     23  C   UNL     1      48.180   7.686  13.579  0.00  0.00    +0.000 A 
BRANCH  22  24
ATOM     24  C   UNL     1      46.076   6.897  12.417  0.00  0.00    +0.000 A 
ATOM     25  C   UNL     1      46.329   5.539  12.688  0.00  0.00    +0.000 A 
ATOM     26  C   UNL     1      45.428   4.535  12.315  0.00  0.00    +0.000 A 
ATOM     27  C   UNL     1      44.241   4.867  11.672  0.00  0.00    +0.000 A 
ATOM     28  C   UNL     1      43.957   6.202  11.401  0.00  0.00    +0.000 A 
ATOM     29  C   UNL     1      44.866   7.201  11.764  0.00  0.00    +0.000 A 
ENDBRANCH  22  24
ENDBRANCH   1  18
TORSDOF 5
ENDMDL
MODEL 7
REMARK VINA RESULT:    -5.639      3.793      7.015
REMARK INTER + INTRA:          -8.270
REMARK INTER:                  -8.153
REMARK INTRA:                  -0.116
REMARK UNBOUND:                -0.982
REMARK  Name = 
REMARK  5 active torsions:
REMARK  status: ('A' for Active; 'I' for Inactive)
REMARK    1  A    between atoms: C_2  and  C_3
REMARK    2  A    between atoms: N_7  and  C_8
REMARK    3  A    between atoms: C_8  and  C_9
REMARK    4  A    between atoms: C_13  and  C_14
REMARK    5  A    between atoms: C_24  and  C_25
REMARK                            x       y       z     vdW  Elec       q    Type
REMARK                         _______ _______ _______ _____ _____    ______ ____
ROOT
ATOM      1  C   UNL     1      47.788   8.292  13.934  0.00  0.00    +0.000 C 
ATOM      2  C   UNL     1      48.340   7.191  14.837  0.00  0.00    +0.000 C 
ATOM      3  C   UNL     1      48.174   8.574  15.374  0.00  0.00    +0.000 C 
ENDROOT
BRANCH   1   8
ATOM      4  C   UNL     1      45.040   5.277  10.765  0.00  0.00    +0.000 A 
ATOM      5  N   UNL     1      46.231   5.877  10.472  0.00  0.00    +0.000 NA
ATOM      6  C   UNL     1      46.720   6.731  11.409  0.00  0.00    +0.000 A 
ATOM      7  C   UNL     1      46.066   7.007  12.590  0.00  0.00    +0.000 A 
ATOM      8  N   UNL     1      46.414   8.000  13.493  0.00  0.00    +0.000 N 
ATOM      9  N   UNL     1      44.913   6.371  12.889  0.00  0.00    +0.000 NA
ATOM     10  C   UNL     1      44.392   5.494  11.974  0.00  0.00    +0.000 A 
ATOM     11  H   UNL     1      45.747   7.903  14.258  0.00  0.00    +0.000 HD
BRANCH  10  12
ATOM     12  C   UNL     1      43.102   4.806  12.350  0.00  0.00    +0.000 C 
ATOM     13  F   UNL     1      43.097   3.454  12.204  0.00  0.00    +0.000 F 
ATOM     14  F   UNL     1      42.760   5.028  13.652  0.00  0.00    +0.000 F 
ATOM     15  F   UNL     1      42.043   5.248  11.611  0.00  0.00    +0.000 F 
ENDBRANCH  10  12
BRANCH   4  17
ATOM     16  N   UNL     1      44.082   3.845   8.823  0.00  0.00    +0.000 NA
ATOM     17  C   UNL     1      44.505   4.472   9.702  0.00  0.00    +0.000 C 
ENDBRANCH   4  17
ENDBRANCH   1   8
BRANCH   1  18
ATOM     18  C   UNL     1      48.659   8.856  12.813  0.00  0.00    +0.000 A 
ATOM     19  C   UNL     1      48.362  10.105  12.243  0.00  0.00    +0.000 A 
ATOM     20  C   UNL     1      49.252  10.737  11.380  0.00  0.00    +0.000 A 
ATOM     21  C   UNL     1      50.441  10.106  11.019  0.00  0.00    +0.000 A 
ATOM     22  C   UNL     1      50.762   8.824  11.496  0.00  0.00    +0.000 A 
ATOM     23  C   UNL     1      49.856   8.230  12.401  0.00  0.00    +0.000 A 
BRANCH  22  24
ATOM     24  C   UNL     1      52.004   8.133  11.069  0.00  0.00    +0.000 A 
ATOM     25  C   UNL     1      51.995   7.155  10.056  0.00  0.00    +0.000 A 
ATOM     26  C   UNL     1      53.160   6.476   9.680  0.00  0.00    +0.000 A 
ATOM     27  C   UNL     1      54.369   6.770  10.299  0.00  0.00    +0.000 A 
ATOM     28  C   UNL     1      54.414   7.741  11.294  0.00  0.00    +0.000 A 
ATOM     29  C   UNL     1      53.245   8.409  11.677  0.00  0.00    +0.000 A 
ENDBRANCH  22  24
ENDBRANCH   1  18
TORSDOF 5
ENDMDL
MODEL 8
REMARK VINA RESULT:    -5.442      1.640      4.489
REMARK INTER + INTRA:          -8.015
REMARK INTER:                  -9.115
REMARK INTRA:                   1.100
REMARK UNBOUND:                -0.982
REMARK  Name = 
REMARK  5 active torsions:
REMARK  status: ('A' for Active; 'I' for Inactive)
REMARK    1  A    between atoms: C_2  and  C_3
REMARK    2  A    between atoms: N_7  and  C_8
REMARK    3  A    between atoms: C_8  and  C_9
REMARK    4  A    between atoms: C_13  and  C_14
REMARK    5  A    between atoms: C_24  and  C_25
REMARK                            x       y       z     vdW  Elec       q    Type
REMARK                         _______ _______ _______ _____ _____    ______ ____
ROOT
ATOM      1  C   UNL     1      45.732   5.096  12.414  0.00  0.00    +0.000 C 
ATOM      2  C   UNL     1      44.273   4.757  12.704  0.00  0.00    +0.000 C 
ATOM      3  C   UNL     1      44.836   4.500  11.346  0.00  0.00    +0.000 C 
ENDROOT
BRANCH   1   8
ATOM      4  C   UNL     1      48.513   5.271  16.764  0.00  0.00    +0.000 A 
ATOM      5  N   UNL     1      48.374   6.282  15.858  0.00  0.00    +0.000 NA
ATOM      6  C   UNL     1      47.698   5.979  14.719  0.00  0.00    +0.000 A 
ATOM      7  C   UNL     1      47.184   4.728  14.459  0.00  0.00    +0.000 A 
ATOM      8  N   UNL     1      46.654   4.307  13.249  0.00  0.00    +0.000 N 
ATOM      9  N   UNL     1      47.285   3.750  15.385  0.00  0.00    +0.000 NA
ATOM     10  C   UNL     1      47.952   4.019  16.551  0.00  0.00    +0.000 A 
ATOM     11  H   UNL     1      46.341   3.352  13.419  0.00  0.00    +0.000 HD
BRANCH  10  12
ATOM     12  C   UNL     1      48.040   2.896  17.558  0.00  0.00    +0.000 C 
ATOM     13  F   UNL     1      48.414   3.264  18.812  0.00  0.00    +0.000 F 
ATOM     14  F   UNL     1      46.850   2.247  17.713  0.00  0.00    +0.000 F 
ATOM     15  F   UNL     1      48.937   1.937  17.186  0.00  0.00    +0.000 F 
ENDBRANCH  10  12
BRANCH   4  17
ATOM     16  N   UNL     1      50.013   5.871  18.796  0.00  0.00    +0.000 NA
ATOM     17  C   UNL     1      49.329   5.600  17.900  0.00  0.00    +0.000 C 
ENDBRANCH   4  17
ENDBRANCH   1   8
BRANCH   1  18
ATOM     18  C   UNL     1      46.157   6.559  12.290  0.00  0.00    +0.000 A 
ATOM     19  C   UNL     1      45.293   7.586  12.708  0.00  0.00    +0.000 A 
ATOM     20  C   UNL     1      45.731   8.903  12.809  0.00  0.00    +0.000 A 
ATOM     21  C   UNL     1      47.033   9.236  12.438  0.00  0.00    +0.000 A 
ATOM     22  C   UNL     1      47.921   8.268  11.942  0.00  0.00    +0.000 A 
ATOM     23  C   UNL     1      47.458   6.935  11.892  0.00  0.00    +0.000 A 
BRANCH  22  24
ATOM     24  C   UNL     1      49.290   8.635  11.499  0.00  0.00    +0.000 A 
ATOM     25  C   UNL     1      50.296   7.665  11.329  0.00  0.00    +0.000 A 
ATOM     26  C   UNL     1      51.597   8.014  10.948  0.00  0.00    +0.000 A 
ATOM     27  C   UNL     1      51.921   9.345  10.713  0.00  0.00    +0.000 A 
ATOM     28  C   UNL     1      50.945  10.327  10.861  0.00  0.00    +0.000 A 
ATOM     29  C   UNL     1      49.649   9.974  11.254  0.00  0.00    +0.000 A 
ENDBRANCH  22  24
ENDBRANCH   1  18
TORSDOF 5
ENDMDL
MODEL 9
REMARK VINA RESULT:    -5.408      3.734      4.919
REMARK INTER + INTRA:          -7.970
REMARK INTER:                  -7.279
REMARK INTRA:                  -0.692
REMARK UNBOUND:                -0.982
REMARK  Name = 
REMARK  5 active torsions:
REMARK  status: ('A' for Active; 'I' for Inactive)
REMARK    1  A    between atoms: C_2  and  C_3
REMARK    2  A    between atoms: N_7  and  C_8
REMARK    3  A    between atoms: C_8  and  C_9
REMARK    4  A    between atoms: C_13  and  C_14
REMARK    5  A    between atoms: C_24  and  C_25
REMARK                            x       y       z     vdW  Elec       q    Type
REMARK                         _______ _______ _______ _____ _____    ______ ____
ROOT
ATOM      1  C   UNL     1      48.205   4.715  16.786  0.00  0.00    +0.000 C 
ATOM      2  C   UNL     1      47.063   4.504  17.776  0.00  0.00    +0.000 C 
ATOM      3  C   UNL     1      47.620   3.337  17.030  0.00  0.00    +0.000 C 
ENDROOT
BRANCH   1   8
ATOM      4  C   UNL     1      53.135   3.549  17.796  0.00  0.00    +0.000 A 
ATOM      5  N   UNL     1      52.078   2.688  17.853  0.00  0.00    +0.000 NA
ATOM      6  C   UNL     1      50.847   3.234  17.671  0.00  0.00    +0.000 A 
ATOM      7  C   UNL     1      50.646   4.580  17.454  0.00  0.00    +0.000 A 
ATOM      8  N   UNL     1      49.417   5.223  17.449  0.00  0.00    +0.000 N 
ATOM      9  N   UNL     1      51.703   5.413  17.352  0.00  0.00    +0.000 NA
ATOM     10  C   UNL     1      52.962   4.899  17.519  0.00  0.00    +0.000 A 
ATOM     11  H   UNL     1      49.632   6.194  17.227  0.00  0.00    +0.000 HD
BRANCH  10  12
ATOM     12  C   UNL     1      54.115   5.867  17.396  0.00  0.00    +0.000 C 
ATOM     13  F   UNL     1      54.881   6.008  18.509  0.00  0.00    +0.000 F 
ATOM     14  F   UNL     1      54.982   5.513  16.404  0.00  0.00    +0.000 F 
ATOM     15  F   UNL     1      53.699   7.130  17.088  0.00  0.00    +0.000 F 
ENDBRANCH  10  12
BRANCH   4  17
ATOM     16  N   UNL     1      55.443   2.497  18.350  0.00  0.00    +0.000 NA
ATOM     17  C   UNL     1      54.404   2.951  18.105  0.00  0.00    +0.000 C 
ENDBRANCH   4  17
ENDBRANCH   1   8
BRANCH   1  18
ATOM     18  C   UNL     1      47.929   5.408  15.452  0.00  0.00    +0.000 A 
ATOM     19  C   UNL     1      48.699   6.513  15.055  0.00  0.00    +0.000 A 
ATOM     20  C   UNL     1      48.616   7.026  13.763  0.00  0.00    +0.000 A 
ATOM     21  C   UNL     1      47.715   6.478  12.852  0.00  0.00    +0.000 A 
ATOM     22  C   UNL     1      46.863   5.421  13.212  0.00  0.00    +0.000 A 
ATOM     23  C   UNL     1      47.003   4.899  14.516  0.00  0.00    +0.000 A 
BRANCH  22  24
ATOM     24  C   UNL     1      45.868   4.875  12.255  0.00  0.00    +0.000 A 
ATOM     25  C   UNL     1      45.560   5.537  11.052  0.00  0.00    +0.000 A 
ATOM     26  C   UNL     1      44.594   5.042  10.167  0.00  0.00    +0.000 A 
ATOM     27  C   UNL     1      43.922   3.861  10.459  0.00  0.00    +0.000 A 
ATOM     28  C   UNL     1      44.214   3.176  11.635  0.00  0.00    +0.000 A 
ATOM     29  C   UNL     1      45.170   3.681  12.522  0.00  0.00    +0.000 A 
ENDBRANCH  22  24
ENDBRANCH   1  18
TORSDOF 5
ENDMDL
