MODEL 1
REMARK VINA RESULT:    -7.938      0.000      0.000
REMARK INTER + INTRA:         -11.357
REMARK INTER:                 -10.722
REMARK INTRA:                  -0.635
REMARK UNBOUND:                -0.635
REMARK  Name = 
REMARK  6 active torsions:
REMARK  status: ('A' for Active; 'I' for Inactive)
REMARK    1  A    between atoms: C_2  and  C_3
REMARK    2  A    between atoms: C_6  and  N_7
REMARK    3  A    between atoms: N_7  and  C_8
REMARK    4  A    between atoms: C_8  and  C_9
REMARK    5  A    between atoms: C_13  and  O_14
REMARK    6  A    between atoms: O_14  and  C_15
REMARK                            x       y       z     vdW  Elec       q    Type
REMARK                         _______ _______ _______ _____ _____    ______ ____
ROOT
ATOM      1  C   UNL     1      43.932   4.847  11.347  0.00  0.00    +0.000 C 
ATOM      2  C   UNL     1      42.692   4.855  12.226  0.00  0.00    +0.000 C 
ATOM      3  C   UNL     1      42.985   6.021  11.346  0.00  0.00    +0.000 C 
ENDROOT
BRANCH   1   4
ATOM      4  C   UNL     1      45.305   4.973  11.984  0.00  0.00    +0.000 A 
ATOM      5  C   UNL     1      46.047   6.163  11.869  0.00  0.00    +0.000 A 
ATOM      6  C   UNL     1      47.162   6.399  12.671  0.00  0.00    +0.000 A 
ATOM      7  C   UNL     1      47.580   5.426  13.573  0.00  0.00    +0.000 A 
ATOM      8  C   UNL     1      46.930   4.193  13.637  0.00  0.00    +0.000 A 
ATOM      9  C   UNL     1      45.790   3.981  12.862  0.00  0.00    +0.000 A 
BRANCH   8  10
ATOM     10  O   UNL     1      47.453   3.322  14.544  0.00  0.00    +0.000 OA
BRANCH  10  11
ATOM     11  C   UNL     1      47.502   3.702  15.910  0.00  0.00    +0.000 C 
ATOM     12  F   UNL     1      48.530   4.523  16.211  0.00  0.00    +0.000 F 
ATOM     13  F   UNL     1      46.355   4.353  16.211  0.00  0.00    +0.000 F 
ATOM     14  F   UNL     1      47.577   2.601  16.687  0.00  0.00    +0.000 F 
ENDBRANCH  10  11
ENDBRANCH   8  10
ENDBRANCH   1   4
BRANCH   1  15
ATOM     15  N   UNL     1      43.918   3.820  10.318  0.00  0.00    +0.000 N 
ATOM     16  H   UNL     1      43.243   3.063  10.372  0.00  0.00    +0.000 HD
BRANCH  15  20
ATOM     17  C   UNL     1      46.637   2.677   7.489  0.00  0.00    +0.000 A 
ATOM     18  C   UNL     1      46.071   1.798   8.391  0.00  0.00    +0.000 A 
ATOM     19  N   UNL     1      45.207   2.194   9.356  0.00  0.00    +0.000 NA
ATOM     20  C   UNL     1      44.898   3.508   9.394  0.00  0.00    +0.000 A 
ATOM     21  C   UNL     1      45.500   4.391   8.500  0.00  0.00    +0.000 A 
ATOM     22  N   UNL     1      46.375   4.007   7.530  0.00  0.00    +0.000 NA
BRANCH  17  24
ATOM     23  N   UNL     1      48.199   1.756   5.636  0.00  0.00    +0.000 NA
ATOM     24  C   UNL     1      47.503   2.204   6.457  0.00  0.00    +0.000 C 
ENDBRANCH  17  24
ENDBRANCH  15  20
ENDBRANCH   1  15
TORSDOF 6
ENDMDL
MODEL 2
REMARK VINA RESULT:    -7.377      2.269      2.841
REMARK INTER + INTRA:         -10.600
REMARK INTER:                  -9.703
REMARK INTRA:                  -0.897
REMARK UNBOUND:                -0.635
REMARK  Name = 
REMARK  6 active torsions:
REMARK  status: ('A' for Active; 'I' for Inactive)
REMARK    1  A    between atoms: C_2  and  C_3
REMARK    2  A    between atoms: C_6  and  N_7
REMARK    3  A    between atoms: N_7  and  C_8
REMARK    4  A    between atoms: C_8  and  C_9
REMARK    5  A    between atoms: C_13  and  O_14
REMARK    6  A    between atoms: O_14  and  C_15
REMARK                            x       y       z     vdW  Elec       q    Type
REMARK                         _______ _______ _______ _____ _____    ______ ____
ROOT
ATOM      1  C   UNL     1      43.755   5.028  11.290  0.00  0.00    +0.000 C 
ATOM      2  C   UNL     1      42.357   5.335  11.803  0.00  0.00    +0.000 C 
ATOM      3  C   UNL     1      43.059   6.318  10.930  0.00  0.00    +0.000 C 
ENDROOT
BRANCH   1   4
ATOM      4  C   UNL     1      44.927   5.037  12.256  0.00  0.00    +0.000 A 
ATOM      5  C   UNL     1      45.423   3.837  12.798  0.00  0.00    +0.000 A 
ATOM      6  C   UNL     1      46.654   3.794  13.448  0.00  0.00    +0.000 A 
ATOM      7  C   UNL     1      47.391   4.963  13.607  0.00  0.00    +0.000 A 
ATOM      8  C   UNL     1      46.879   6.187  13.175  0.00  0.00    +0.000 A 
ATOM      9  C   UNL     1      45.666   6.215  12.487  0.00  0.00    +0.000 A 
BRANCH   8  10
ATOM     10  O   UNL     1      47.689   7.256  13.411  0.00  0.00    +0.000 OA
BRANCH  10  11
ATOM     11  C   UNL     1      48.649   7.619  12.432  0.00  0.00    +0.000 C 
ATOM     12  F   UNL     1      48.275   7.331  11.168  0.00  0.00    +0.000 F 
ATOM     13  F   UNL     1      48.848   8.955  12.508  0.00  0.00    +0.000 F 
ATOM     14  F   UNL     1      49.822   7.004  12.694  0.00  0.00    +0.000 F 
ENDBRANCH  10  11
ENDBRANCH   8  10
ENDBRANCH   1   4
BRANCH   1  15
ATOM     15  N   UNL     1      43.816   3.887  10.392  0.00  0.00    +0.000 N 
ATOM     16  H   UNL     1      43.213   3.086  10.555  0.00  0.00    +0.000 HD
BRANCH  15  20
ATOM     17  C   UNL     1      46.556   2.683   7.608  0.00  0.00    +0.000 A 
ATOM     18  C   UNL     1      45.935   1.813   8.483  0.00  0.00    +0.000 A 
ATOM     19  N   UNL     1      45.064   2.227   9.434  0.00  0.00    +0.000 NA
ATOM     20  C   UNL     1      44.805   3.551   9.486  0.00  0.00    +0.000 A 
ATOM     21  C   UNL     1      45.462   4.424   8.621  0.00  0.00    +0.000 A 
ATOM     22  N   UNL     1      46.345   4.021   7.666  0.00  0.00    +0.000 NA
BRANCH  17  24
ATOM     23  N   UNL     1      48.178   1.844   5.769  0.00  0.00    +0.000 NA
ATOM     24  C   UNL     1      47.427   2.193   6.589  0.00  0.00    +0.000 C 
ENDBRANCH  17  24
ENDBRANCH  15  20
ENDBRANCH   1  15
TORSDOF 6
ENDMDL
MODEL 3
REMARK VINA RESULT:    -7.045      4.927      7.306
REMARK INTER + INTRA:         -10.151
REMARK INTER:                  -9.567
REMARK INTRA:                  -0.584
REMARK UNBOUND:                -0.635
REMARK  Name = 
REMARK  6 active torsions:
REMARK  status: ('A' for Active; 'I' for Inactive)
REMARK    1  A    between atoms: C_2  and  C_3
REMARK    2  A    between atoms: C_6  and  N_7
REMARK    3  A    between atoms: N_7  and  C_8
REMARK    4  A    between atoms: C_8  and  C_9
REMARK    5  A    between atoms: C_13  and  O_14
REMARK    6  A    between atoms: O_14  and  C_15
REMARK                            x       y       z     vdW  Elec       q    Type
REMARK                         _______ _______ _______ _____ _____    ______ ____
ROOT
ATOM      1  C   UNL     1      45.395   5.777  11.792  0.00  0.00    +0.000 C 
ATOM      2  C   UNL     1      44.843   7.151  11.445  0.00  0.00    +0.000 C 
ATOM      3  C   UNL     1      44.174   6.324  12.489  0.00  0.00    +0.000 C 
ENDROOT
BRANCH   1   4
ATOM      4  C   UNL     1      45.260   4.641  10.793  0.00  0.00    +0.000 A 
ATOM      5  C   UNL     1      44.559   3.466  11.127  0.00  0.00    +0.000 A 
ATOM      6  C   UNL     1      44.183   2.548  10.150  0.00  0.00    +0.000 A 
ATOM      7  C   UNL     1      44.541   2.767   8.824  0.00  0.00    +0.000 A 
ATOM      8  C   UNL     1      45.326   3.866   8.474  0.00  0.00    +0.000 A 
ATOM      9  C   UNL     1      45.662   4.803   9.452  0.00  0.00    +0.000 A 
BRANCH   8  10
ATOM     10  O   UNL     1      45.626   3.952   7.149  0.00  0.00    +0.000 OA
BRANCH  10  11
ATOM     11  C   UNL     1      46.663   3.137   6.626  0.00  0.00    +0.000 C 
ATOM     12  F   UNL     1      46.425   1.814   6.734  0.00  0.00    +0.000 F 
ATOM     13  F   UNL     1      46.805   3.424   5.311  0.00  0.00    +0.000 F 
ATOM     14  F   UNL     1      47.827   3.426   7.247  0.00  0.00    +0.000 F 
ENDBRANCH  10  11
ENDBRANCH   8  10
ENDBRANCH   1   4
BRANCH   1  15
ATOM     15  N   UNL     1      46.722   5.807  12.383  0.00  0.00    +0.000 N 
ATOM     16  H   UNL     1      47.528   6.013  11.801  0.00  0.00    +0.000 HD
BRANCH  15  20
ATOM     17  C   UNL     1      47.873   4.530  16.091  0.00  0.00    +0.000 A 
ATOM     18  C   UNL     1      48.267   5.740  15.553  0.00  0.00    +0.000 A 
ATOM     19  N   UNL     1      47.919   6.135  14.305  0.00  0.00    +0.000 NA
ATOM     20  C   UNL     1      47.142   5.289  13.595  0.00  0.00    +0.000 A 
ATOM     21  C   UNL     1      46.778   4.057  14.134  0.00  0.00    +0.000 A 
ATOM     22  N   UNL     1      47.127   3.646  15.385  0.00  0.00    +0.000 NA
BRANCH  17  24
ATOM     23  N   UNL     1      48.458   3.936  18.546  0.00  0.00    +0.000 NA
ATOM     24  C   UNL     1      48.222   4.182  17.431  0.00  0.00    +0.000 C 
ENDBRANCH  17  24
ENDBRANCH  15  20
ENDBRANCH   1  15
TORSDOF 6
ENDMDL
MODEL 4
REMARK VINA RESULT:    -6.969      4.960      6.991
REMARK INTER + INTRA:         -10.048
REMARK INTER:                  -9.438
REMARK INTRA:                  -0.610
REMARK UNBOUND:                -0.635
REMARK  Name = 
REMARK  6 active torsions:
REMARK  status: ('A' for Active; 'I' for Inactive)
REMARK    1  A    between atoms: C_2  and  C_3
REMARK    2  A    between atoms: C_6  and  N_7
REMARK    3  A    between atoms: N_7  and  C_8
REMARK    4  A    between atoms: C_8  and  C_9
REMARK    5  A    between atoms: C_13  and  O_14
REMARK    6  A    between atoms: O_14  and  C_15
REMARK                            x       y       z     vdW  Elec       q    Type
REMARK                         _______ _______ _______ _____ _____    ______ ____
ROOT
ATOM      1  C   UNL     1      44.435   5.562  11.299  0.00  0.00    +0.000 C 
ATOM      2  C   UNL     1      43.028   6.137  11.312  0.00  0.00    +0.000 C 
ATOM      3  C   UNL     1      43.521   5.358  12.483  0.00  0.00    +0.000 C 
ENDROOT
BRANCH   1   4
ATOM      4  C   UNL     1      44.762   4.401  10.377  0.00  0.00    +0.000 A 
ATOM      5  C   UNL     1      44.423   3.081  10.730  0.00  0.00    +0.000 A 
ATOM      6  C   UNL     1      44.453   2.052   9.792  0.00  0.00    +0.000 A 
ATOM      7  C   UNL     1      44.868   2.318   8.491  0.00  0.00    +0.000 A 
ATOM      8  C   UNL     1      45.312   3.592   8.135  0.00  0.00    +0.000 A 
ATOM      9  C   UNL     1      45.237   4.626   9.069  0.00  0.00    +0.000 A 
BRANCH   8  10
ATOM     10  O   UNL     1      45.711   3.713   6.840  0.00  0.00    +0.000 OA
BRANCH  10  11
ATOM     11  C   UNL     1      46.830   2.963   6.394  0.00  0.00    +0.000 C 
ATOM     12  F   UNL     1      46.621   1.630   6.375  0.00  0.00    +0.000 F 
ATOM     13  F   UNL     1      47.125   3.351   5.132  0.00  0.00    +0.000 F 
ATOM     14  F   UNL     1      47.898   3.229   7.176  0.00  0.00    +0.000 F 
ENDBRANCH  10  11
ENDBRANCH   8  10
ENDBRANCH   1   4
BRANCH   1  15
ATOM     15  N   UNL     1      45.483   6.569  11.276  0.00  0.00    +0.000 N 
ATOM     16  H   UNL     1      45.568   7.188  10.475  0.00  0.00    +0.000 HD
BRANCH  15  20
ATOM     17  C   UNL     1      48.759   7.053  13.671  0.00  0.00    +0.000 A 
ATOM     18  C   UNL     1      48.300   8.032  12.812  0.00  0.00    +0.000 A 
ATOM     19  N   UNL     1      47.242   7.847  11.988  0.00  0.00    +0.000 NA
ATOM     20  C   UNL     1      46.626   6.646  12.049  0.00  0.00    +0.000 A 
ATOM     21  C   UNL     1      47.118   5.654  12.895  0.00  0.00    +0.000 A 
ATOM     22  N   UNL     1      48.185   5.826  13.723  0.00  0.00    +0.000 NA
BRANCH  17  24
ATOM     23  N   UNL     1      50.713   7.590  15.288  0.00  0.00    +0.000 NA
ATOM     24  C   UNL     1      49.846   7.314  14.559  0.00  0.00    +0.000 C 
ENDBRANCH  17  24
ENDBRANCH  15  20
ENDBRANCH   1  15
TORSDOF 6
ENDMDL
MODEL 5
REMARK VINA RESULT:    -6.454      4.556      7.139
REMARK INTER + INTRA:          -9.353
REMARK INTER:                  -8.581
REMARK INTRA:                  -0.772
REMARK UNBOUND:                -0.635
REMARK  Name = 
REMARK  6 active torsions:
REMARK  status: ('A' for Active; 'I' for Inactive)
REMARK    1  A    between atoms: C_2  and  C_3
REMARK    2  A    between atoms: C_6  and  N_7
REMARK    3  A    between atoms: N_7  and  C_8
REMARK    4  A    between atoms: C_8  and  C_9
REMARK    5  A    between atoms: C_13  and  O_14
REMARK    6  A    between atoms: O_14  and  C_15
REMARK                            x       y       z     vdW  Elec       q    Type
REMARK                         _______ _______ _______ _____ _____    ______ ____
ROOT
ATOM      1  C   UNL     1      46.398   7.080  12.658  0.00  0.00    +0.000 C 
ATOM      2  C   UNL     1      46.694   8.388  11.942  0.00  0.00    +0.000 C 
ATOM      3  C   UNL     1      45.940   8.400  13.228  0.00  0.00    +0.000 C 
ENDROOT
BRANCH   1   4
ATOM      4  C   UNL     1      45.388   6.113  12.065  0.00  0.00    +0.000 A 
ATOM      5  C   UNL     1      44.114   5.955  12.643  0.00  0.00    +0.000 A 
ATOM      6  C   UNL     1      43.090   5.301  11.963  0.00  0.00    +0.000 A 
ATOM      7  C   UNL     1      43.336   4.753  10.708  0.00  0.00    +0.000 A 
ATOM      8  C   UNL     1      44.615   4.798  10.153  0.00  0.00    +0.000 A 
ATOM      9  C   UNL     1      45.624   5.492  10.822  0.00  0.00    +0.000 A 
BRANCH   8  10
ATOM     10  O   UNL     1      44.726   4.205   8.933  0.00  0.00    +0.000 OA
BRANCH  10  11
ATOM     11  C   UNL     1      45.114   2.842   8.866  0.00  0.00    +0.000 C 
ATOM     12  F   UNL     1      46.126   2.604   8.005  0.00  0.00    +0.000 F 
ATOM     13  F   UNL     1      45.524   2.456  10.097  0.00  0.00    +0.000 F 
ATOM     14  F   UNL     1      44.054   2.082   8.519  0.00  0.00    +0.000 F 
ENDBRANCH  10  11
ENDBRANCH   8  10
ENDBRANCH   1   4
BRANCH   1  15
ATOM     15  N   UNL     1      47.583   6.385  13.131  0.00  0.00    +0.000 N 
ATOM     16  H   UNL     1      48.322   6.148  12.476  0.00  0.00    +0.000 HD
BRANCH  15  20
ATOM     17  C   UNL     1      48.089   4.587  16.766  0.00  0.00    +0.000 A 
ATOM     18  C   UNL     1      48.809   5.696  16.366  0.00  0.00    +0.000 A 
ATOM     19  N   UNL     1      48.669   6.257  15.141  0.00  0.00    +0.000 NA
ATOM     20  C   UNL     1      47.765   5.690  14.312  0.00  0.00    +0.000 A 
ATOM     21  C   UNL     1      47.069   4.552  14.715  0.00  0.00    +0.000 A 
ATOM     22  N   UNL     1      47.206   3.975  15.940  0.00  0.00    +0.000 NA
BRANCH  17  24
ATOM     23  N   UNL     1      48.357   3.698  19.187  0.00  0.00    +0.000 NA
ATOM     24  C   UNL     1      48.235   4.064  18.087  0.00  0.00    +0.000 C 
ENDBRANCH  17  24
ENDBRANCH  15  20
ENDBRANCH   1  15
TORSDOF 6
ENDMDL
MODEL 6
REMARK VINA RESULT:    -6.031      4.439      6.322
REMARK INTER + INTRA:          -8.782
REMARK INTER:                  -7.890
REMARK INTRA:                  -0.891
REMARK UNBOUND:                -0.635
REMARK  Name = 
REMARK  6 active torsions:
REMARK  status: ('A' for Active; 'I' for Inactive)
REMARK    1  A    between atoms: C_2  and  C_3
REMARK    2  A    between atoms: C_6  and  N_7
REMARK    3  A    between atoms: N_7  and  C_8
REMARK    4  A    between atoms: C_8  and  C_9
REMARK    5  A    between atoms: C_13  and  O_14
REMARK    6  A    between atoms: O_14  and  C_15
REMARK                            x       y       z     vdW  Elec       q    Type
REMARK                         _______ _______ _______ _____ _____    ______ ____
ROOT
ATOM      1  C   UNL     1      46.417   4.804  13.953  0.00  0.00    +0.000 C 
ATOM      2  C   UNL     1      46.567   4.126  15.306  0.00  0.00    +0.000 C 
ATOM      3  C   UNL     1      47.449   3.725  14.173  0.00  0.00    +0.000 C 
ENDROOT
BRANCH   1   4
ATOM      4  C   UNL     1      45.187   4.524  13.107  0.00  0.00    +0.000 A 
ATOM      5  C   UNL     1      44.067   5.373  13.159  0.00  0.00    +0.000 A 
ATOM      6  C   UNL     1      43.060   5.301  12.199  0.00  0.00    +0.000 A 
ATOM      7  C   UNL     1      43.136   4.344  11.192  0.00  0.00    +0.000 A 
ATOM      8  C   UNL     1      44.179   3.417  11.173  0.00  0.00    +0.000 A 
ATOM      9  C   UNL     1      45.205   3.524  12.113  0.00  0.00    +0.000 A 
BRANCH   8  10
ATOM     10  O   UNL     1      44.123   2.520  10.150  0.00  0.00    +0.000 OA
BRANCH  10  11
ATOM     11  C   UNL     1      44.985   2.696   9.037  0.00  0.00    +0.000 C 
ATOM     12  F   UNL     1      45.898   1.712   8.893  0.00  0.00    +0.000 F 
ATOM     13  F   UNL     1      44.228   2.721   7.915  0.00  0.00    +0.000 F 
ATOM     14  F   UNL     1      45.626   3.879   9.138  0.00  0.00    +0.000 F 
ENDBRANCH  10  11
ENDBRANCH   8  10
ENDBRANCH   1   4
BRANCH   1  15
ATOM     15  N   UNL     1      46.741   6.220  13.964  0.00  0.00    +0.000 N 
ATOM     16  H   UNL     1      46.055   6.891  14.297  0.00  0.00    +0.000 HD
BRANCH  15  20
ATOM     17  C   UNL     1      49.923   7.976  12.094  0.00  0.00    +0.000 A 
ATOM     18  C   UNL     1      49.901   7.702  13.448  0.00  0.00    +0.000 A 
ATOM     19  N   UNL     1      48.823   7.162  14.068  0.00  0.00    +0.000 NA
ATOM     20  C   UNL     1      47.754   6.882  13.293  0.00  0.00    +0.000 A 
ATOM     21  C   UNL     1      47.775   7.194  11.935  0.00  0.00    +0.000 A 
ATOM     22  N   UNL     1      48.849   7.742  11.302  0.00  0.00    +0.000 NA
BRANCH  17  24
ATOM     23  N   UNL     1      52.084   8.860  10.966  0.00  0.00    +0.000 NA
ATOM     24  C   UNL     1      51.101   8.497  11.477  0.00  0.00    +0.000 C 
ENDBRANCH  17  24
ENDBRANCH  15  20
ENDBRANCH   1  15
TORSDOF 6
ENDMDL
MODEL 7
REMARK VINA RESULT:    -5.870      3.278      4.842
REMARK INTER + INTRA:          -8.563
REMARK INTER:                  -7.821
REMARK INTRA:                  -0.742
REMARK UNBOUND:                -0.635
REMARK  Name = 
REMARK  6 active torsions:
REMARK  status: ('A' for Active; 'I' for Inactive)
REMARK    1  A    between atoms: C_2  and  C_3
REMARK    2  A    between atoms: C_6  and  N_7
REMARK    3  A    between atoms: N_7  and  C_8
REMARK    4  A    between atoms: C_8  and  C_9
REMARK    5  A    between atoms: C_13  and  O_14
REMARK    6  A    between atoms: O_14  and  C_15
REMARK                            x       y       z     vdW  Elec       q    Type
REMARK                         _______ _______ _______ _____ _____    ______ ____
ROOT
ATOM      1  C   UNL     1      47.648   7.737  13.100  0.00  0.00    +0.000 C 
ATOM      2  C   UNL     1      48.084   8.898  12.220  0.00  0.00    +0.000 C 
ATOM      3  C   UNL     1      48.473   7.505  11.858  0.00  0.00    +0.000 C 
ENDROOT
BRANCH   1   4
ATOM      4  C   UNL     1      48.271   7.562  14.474  0.00  0.00    +0.000 A 
ATOM      5  C   UNL     1      48.381   8.650  15.360  0.00  0.00    +0.000 A 
ATOM      6  C   UNL     1      48.680   8.457  16.707  0.00  0.00    +0.000 A 
ATOM      7  C   UNL     1      48.919   7.171  17.182  0.00  0.00    +0.000 A 
ATOM      8  C   UNL     1      48.923   6.083  16.309  0.00  0.00    +0.000 A 
ATOM      9  C   UNL     1      48.580   6.280  14.971  0.00  0.00    +0.000 A 
BRANCH   8  10
ATOM     10  O   UNL     1      49.194   4.885  16.897  0.00  0.00    +0.000 OA
BRANCH  10  11
ATOM     11  C   UNL     1      48.129   3.973  17.118  0.00  0.00    +0.000 C 
ATOM     12  F   UNL     1      46.925   4.564  17.262  0.00  0.00    +0.000 F 
ATOM     13  F   UNL     1      48.054   3.142  16.053  0.00  0.00    +0.000 F 
ATOM     14  F   UNL     1      48.387   3.229  18.214  0.00  0.00    +0.000 F 
ENDBRANCH  10  11
ENDBRANCH   8  10
ENDBRANCH   1   4
BRANCH   1  15
ATOM     15  N   UNL     1      46.209   7.538  13.141  0.00  0.00    +0.000 N 
ATOM     16  H   UNL     1      45.621   8.214  13.618  0.00  0.00    +0.000 HD
BRANCH  15  20
ATOM     17  C   UNL     1      44.150   4.157  12.124  0.00  0.00    +0.000 A 
ATOM     18  C   UNL     1      43.971   5.370  11.489  0.00  0.00    +0.000 A 
ATOM     19  N   UNL     1      44.623   6.497  11.863  0.00  0.00    +0.000 NA
ATOM     20  C   UNL     1      45.488   6.384  12.894  0.00  0.00    +0.000 A 
ATOM     21  C   UNL     1      45.636   5.163  13.549  0.00  0.00    +0.000 A 
ATOM     22  N   UNL     1      44.981   4.026  13.187  0.00  0.00    +0.000 NA
BRANCH  17  24
ATOM     23  N   UNL     1      42.971   1.994  11.317  0.00  0.00    +0.000 NA
ATOM     24  C   UNL     1      43.479   2.986  11.659  0.00  0.00    +0.000 C 
ENDBRANCH  17  24
ENDBRANCH  15  20
ENDBRANCH   1  15
TORSDOF 6
ENDMDL
MODEL 8
REMARK VINA RESULT:    -5.667      4.519      7.428
REMARK INTER + INTRA:          -8.290
REMARK INTER:                  -7.277
REMARK INTRA:                  -1.013
REMARK UNBOUND:                -0.635
REMARK  Name = 
REMARK  6 active torsions:
REMARK  status: ('A' for Active; 'I' for Inactive)
REMARK    1  A    between atoms: C_2  and  C_3
REMARK    2  A    between atoms: C_6  and  N_7
REMARK    3  A    between atoms: N_7  and  C_8
REMARK    4  A    between atoms: C_8  and  C_9
REMARK    5  A    between atoms: C_13  and  O_14
REMARK    6  A    between atoms: O_14  and  C_15
REMARK                            x       y       z     vdW  Elec       q    Type
REMARK                         _______ _______ _______ _____ _____    ______ ____
ROOT
ATOM      1  C   UNL     1      48.645   7.711  12.610  0.00  0.00    +0.000 C 
ATOM      2  C   UNL     1      49.558   7.971  11.423  0.00  0.00    +0.000 C 
ATOM      3  C   UNL     1      49.150   9.100  12.306  0.00  0.00    +0.000 C 
ENDROOT
BRANCH   1   4
ATOM      4  C   UNL     1      47.186   7.359  12.372  0.00  0.00    +0.000 A 
ATOM      5  C   UNL     1      46.216   8.367  12.225  0.00  0.00    +0.000 A 
ATOM      6  C   UNL     1      44.946   8.080  11.730  0.00  0.00    +0.000 A 
ATOM      7  C   UNL     1      44.610   6.768  11.415  0.00  0.00    +0.000 A 
ATOM      8  C   UNL     1      45.512   5.729  11.649  0.00  0.00    +0.000 A 
ATOM      9  C   UNL     1      46.796   6.031  12.104  0.00  0.00    +0.000 A 
BRANCH   8  10
ATOM     10  O   UNL     1      45.052   4.491  11.319  0.00  0.00    +0.000 OA
BRANCH  10  11
ATOM     11  C   UNL     1      44.807   3.553  12.354  0.00  0.00    +0.000 C 
ATOM     12  F   UNL     1      45.893   2.834  12.708  0.00  0.00    +0.000 F 
ATOM     13  F   UNL     1      44.388   4.228  13.449  0.00  0.00    +0.000 F 
ATOM     14  F   UNL     1      43.824   2.707  11.980  0.00  0.00    +0.000 F 
ENDBRANCH  10  11
ENDBRANCH   8  10
ENDBRANCH   1   4
BRANCH   1  15
ATOM     15  N   UNL     1      49.235   6.863  13.632  0.00  0.00    +0.000 N 
ATOM     16  H   UNL     1      49.769   6.043  13.360  0.00  0.00    +0.000 HD
BRANCH  15  20
ATOM     17  C   UNL     1      48.530   6.431  17.635  0.00  0.00    +0.000 A 
ATOM     18  C   UNL     1      48.377   5.402  16.727  0.00  0.00    +0.000 A 
ATOM     19  N   UNL     1      48.568   5.566  15.395  0.00  0.00    +0.000 NA
ATOM     20  C   UNL     1      48.937   6.798  14.981  0.00  0.00    +0.000 A 
ATOM     21  C   UNL     1      49.055   7.836  15.902  0.00  0.00    +0.000 A 
ATOM     22  N   UNL     1      48.860   7.686  17.242  0.00  0.00    +0.000 NA
BRANCH  17  24
ATOM     23  N   UNL     1      48.191   5.960  20.162  0.00  0.00    +0.000 NA
ATOM     24  C   UNL     1      48.369   6.196  19.034  0.00  0.00    +0.000 C 
ENDBRANCH  17  24
ENDBRANCH  15  20
ENDBRANCH   1  15
TORSDOF 6
ENDMDL
MODEL 9
REMARK VINA RESULT:    -5.425      5.476      8.109
REMARK INTER + INTRA:          -7.963
REMARK INTER:                  -7.401
REMARK INTRA:                  -0.562
REMARK UNBOUND:                -0.635
REMARK  Name = 
REMARK  6 active torsions:
REMARK  status: ('A' for Active; 'I' for Inactive)
REMARK    1  A    between atoms: C_2  and  C_3
REMARK    2  A    between atoms: C_6  and  N_7
REMARK    3  A    between atoms: N_7  and  C_8
REMARK    4  A    between atoms: C_8  and  C_9
REMARK    5  A    between atoms: C_13  and  O_14
REMARK    6  A    between atoms: O_14  and  C_15
REMARK                            x       y       z     vdW  Elec       q    Type
REMARK                         _______ _______ _______ _____ _____    ______ ____
ROOT
ATOM      1  C   UNL     1      48.162   4.584  17.031  0.00  0.00    +0.000 C 
ATOM      2  C   UNL     1      47.259   4.861  18.222  0.00  0.00    +0.000 C 
ATOM      3  C   UNL     1      47.202   3.537  17.540  0.00  0.00    +0.000 C 
ENDROOT
BRANCH   1   4
ATOM      4  C   UNL     1      47.897   5.286  15.710  0.00  0.00    +0.000 A 
ATOM      5  C   UNL     1      48.664   6.398  15.317  0.00  0.00    +0.000 A 
ATOM      6  C   UNL     1      48.632   6.872  14.008  0.00  0.00    +0.000 A 
ATOM      7  C   UNL     1      47.794   6.266  13.077  0.00  0.00    +0.000 A 
ATOM      8  C   UNL     1      46.942   5.229  13.459  0.00  0.00    +0.000 A 
ATOM      9  C   UNL     1      47.013   4.733  14.761  0.00  0.00    +0.000 A 
BRANCH   8  10
ATOM     10  O   UNL     1      46.159   4.740  12.459  0.00  0.00    +0.000 OA
BRANCH  10  11
ATOM     11  C   UNL     1      44.831   5.223  12.330  0.00  0.00    +0.000 C 
ATOM     12  F   UNL     1      43.885   4.289  12.562  0.00  0.00    +0.000 F 
ATOM     13  F   UNL     1      44.653   6.220  13.228  0.00  0.00    +0.000 F 
ATOM     14  F   UNL     1      44.649   5.733  11.094  0.00  0.00    +0.000 F 
ENDBRANCH  10  11
ENDBRANCH   8  10
ENDBRANCH   1   4
BRANCH   1  15
ATOM     15  N   UNL     1      49.579   4.581  17.354  0.00  0.00    +0.000 N 
ATOM     16  H   UNL     1      50.104   5.450  17.328  0.00  0.00    +0.000 HD
BRANCH  15  20
ATOM     17  C   UNL     1      52.211   1.484  17.787  0.00  0.00    +0.000 A 
ATOM     18  C   UNL     1      52.511   2.785  18.140  0.00  0.00    +0.000 A 
ATOM     19  N   UNL     1      51.650   3.813  17.950  0.00  0.00    +0.000 NA
ATOM     20  C   UNL     1      50.453   3.510  17.404  0.00  0.00    +0.000 A 
ATOM     21  C   UNL     1      50.173   2.200  17.021  0.00  0.00    +0.000 A 
ATOM     22  N   UNL     1      51.033   1.159  17.200  0.00  0.00    +0.000 NA
BRANCH  17  24
ATOM     23  N   UNL     1      53.899  -0.407  18.331  0.00  0.00    +0.000 NA
ATOM     24  C   UNL     1      53.132   0.426  18.055  0.00  0.00    +0.000 C 
ENDBRANCH  17  24
ENDBRANCH  15  20
ENDBRANCH   1  15
TORSDOF 6
ENDMDL
