MODEL 1
REMARK VINA RESULT:    -7.269      0.000      0.000
REMARK INTER + INTRA:         -10.900
REMARK INTER:                  -9.818
REMARK INTRA:                  -1.082
REMARK UNBOUND:                -1.082
REMARK  Name = 
REMARK  6 active torsions:
REMARK  status: ('A' for Active; 'I' for Inactive)
REMARK    1  A    between atoms: C_2  and  C_3
REMARK    2  A    between atoms: N_10  and  C_11
REMARK    3  A    between atoms: C_11  and  C_12
REMARK    4  A    between atoms: C_15  and  C_16
REMARK    5  A    between atoms: C_16  and  N_17
REMARK    6  A    between atoms: C_18  and  C_20
REMARK                            x       y       z     vdW  Elec       q    Type
REMARK                         _______ _______ _______ _____ _____    ______ ____
ROOT
ATOM      1  C   UNL     1      49.337   6.315  17.623  0.00  0.00    +0.000 A 
ATOM      2  C   UNL     1      49.445   7.709  17.513  0.00  0.00    +0.000 A 
ATOM      3  C   UNL     1      49.012   8.373  16.357  0.00  0.00    +0.000 A 
ATOM      4  C   UNL     1      48.451   7.651  15.293  0.00  0.00    +0.000 A 
ATOM      5  C   UNL     1      48.359   6.258  15.397  0.00  0.00    +0.000 A 
ATOM      6  C   UNL     1      48.785   5.597  16.550  0.00  0.00    +0.000 A 
ENDROOT
BRANCH   1   7
ATOM      7  C   UNL     1      49.830   5.595  18.850  0.00  0.00    +0.000 C 
BRANCH   7  15
ATOM      8  C   UNL     1      51.768   1.834  17.575  0.00  0.00    +0.000 A 
ATOM      9  C   UNL     1      52.664   0.795  17.760  0.00  0.00    +0.000 A 
ATOM     10  C   UNL     1      53.784   1.310  18.445  0.00  0.00    +0.000 A 
ATOM     11  C   UNL     1      53.560   2.654  18.625  0.00  0.00    +0.000 A 
ATOM     12  N   UNL     1      52.297   2.981  18.146  0.00  0.00    +0.000 N 
ATOM     13  C   UNL     1      51.757   4.280  18.209  0.00  0.00    +0.000 C 
ATOM     14  O   UNL     1      52.499   5.242  18.079  0.00  0.00    +0.000 OA
ATOM     15  N   UNL     1      50.425   4.308  18.560  0.00  0.00    +0.000 N 
ATOM     16  H   UNL     1      49.945   3.478  18.886  0.00  0.00    +0.000 HD
BRANCH   8  18
ATOM     17  N   UNL     1      49.582   1.732  16.206  0.00  0.00    +0.000 NA
ATOM     18  C   UNL     1      50.564   1.777  16.819  0.00  0.00    +0.000 C 
ENDBRANCH   8  18
ENDBRANCH   7  15
ENDBRANCH   1   7
BRANCH   4  19
ATOM     19  C   UNL     1      47.969   8.357  14.047  0.00  0.00    +0.000 C 
BRANCH  19  20
ATOM     20  N   UNL     1      46.703   7.844  13.592  0.00  0.00    +0.000 N 
ATOM     21  C   UNL     1      46.637   7.022  12.496  0.00  0.00    +0.000 C 
ATOM     22  O   UNL     1      47.612   6.816  11.778  0.00  0.00    +0.000 OA
ATOM     23  H   UNL     1      45.934   7.854  14.254  0.00  0.00    +0.000 HD
BRANCH  21  24
ATOM     24  C   UNL     1      45.347   6.387  12.205  0.00  0.00    +0.000 A 
ATOM     25  C   UNL     1      44.300   7.143  11.693  0.00  0.00    +0.000 A 
ATOM     26  S   UNL     1      42.908   6.228  11.328  0.00  0.00    +0.000 S 
ATOM     27  C   UNL     1      43.680   4.780  11.773  0.00  0.00    +0.000 A 
ATOM     28  N   UNL     1      43.074   3.576  11.585  0.00  0.00    +0.000 NA
ATOM     29  C   UNL     1      43.782   2.561  11.952  0.00  0.00    +0.000 A 
ATOM     30  N   UNL     1      45.024   2.642  12.529  0.00  0.00    +0.000 N 
ATOM     31  C   UNL     1      45.657   3.837  12.775  0.00  0.00    +0.000 A 
ATOM     32  O   UNL     1      46.729   3.880  13.369  0.00  0.00    +0.000 OA
ATOM     33  C   UNL     1      44.939   5.004  12.301  0.00  0.00    +0.000 A 
ATOM     34  H   UNL     1      45.500   1.811  12.846  0.00  0.00    +0.000 HD
ENDBRANCH  21  24
ENDBRANCH  19  20
ENDBRANCH   4  19
TORSDOF 6
ENDMDL
MODEL 2
REMARK VINA RESULT:    -7.067      4.083      8.871
REMARK INTER + INTRA:         -10.628
REMARK INTER:                  -9.749
REMARK INTRA:                  -0.879
REMARK UNBOUND:                -1.082
REMARK  Name = 
REMARK  6 active torsions:
REMARK  status: ('A' for Active; 'I' for Inactive)
REMARK    1  A    between atoms: C_2  and  C_3
REMARK    2  A    between atoms: N_10  and  C_11
REMARK    3  A    between atoms: C_11  and  C_12
REMARK    4  A    between atoms: C_15  and  C_16
REMARK    5  A    between atoms: C_16  and  N_17
REMARK    6  A    between atoms: C_18  and  C_20
REMARK                            x       y       z     vdW  Elec       q    Type
REMARK                         _______ _______ _______ _____ _____    ______ ____
ROOT
ATOM      1  C   UNL     1      45.402   4.193  11.224  0.00  0.00    +0.000 A 
ATOM      2  C   UNL     1      45.818   4.042  12.555  0.00  0.00    +0.000 A 
ATOM      3  C   UNL     1      46.377   5.118  13.258  0.00  0.00    +0.000 A 
ATOM      4  C   UNL     1      46.520   6.371  12.642  0.00  0.00    +0.000 A 
ATOM      5  C   UNL     1      46.120   6.515  11.308  0.00  0.00    +0.000 A 
ATOM      6  C   UNL     1      45.557   5.446  10.609  0.00  0.00    +0.000 A 
ENDROOT
BRANCH   1   7
ATOM      7  C   UNL     1      44.829   3.032  10.455  0.00  0.00    +0.000 C 
BRANCH   7  15
ATOM      8  C   UNL     1      46.961   1.648   6.840  0.00  0.00    +0.000 A 
ATOM      9  C   UNL     1      47.796   1.858   5.756  0.00  0.00    +0.000 A 
ATOM     10  C   UNL     1      47.598   3.181   5.309  0.00  0.00    +0.000 A 
ATOM     11  C   UNL     1      46.621   3.729   6.106  0.00  0.00    +0.000 A 
ATOM     12  N   UNL     1      46.259   2.817   7.089  0.00  0.00    +0.000 N 
ATOM     13  C   UNL     1      45.297   3.089   8.082  0.00  0.00    +0.000 C 
ATOM     14  O   UNL     1      44.333   3.786   7.803  0.00  0.00    +0.000 OA
ATOM     15  N   UNL     1      45.648   2.628   9.331  0.00  0.00    +0.000 N 
ATOM     16  H   UNL     1      46.577   2.272   9.524  0.00  0.00    +0.000 HD
BRANCH   8  18
ATOM     17  N   UNL     1      46.584  -0.596   8.060  0.00  0.00    +0.000 NA
ATOM     18  C   UNL     1      46.754   0.411   7.510  0.00  0.00    +0.000 C 
ENDBRANCH   8  18
ENDBRANCH   7  15
ENDBRANCH   1   7
BRANCH   4  19
ATOM     19  C   UNL     1      47.110   7.541  13.394  0.00  0.00    +0.000 C 
BRANCH  19  20
ATOM     20  N   UNL     1      47.560   7.165  14.708  0.00  0.00    +0.000 N 
ATOM     21  C   UNL     1      48.896   6.985  14.962  0.00  0.00    +0.000 C 
ATOM     22  O   UNL     1      49.735   6.986  14.064  0.00  0.00    +0.000 OA
ATOM     23  H   UNL     1      46.924   7.332  15.481  0.00  0.00    +0.000 HD
BRANCH  21  24
ATOM     24  C   UNL     1      49.297   6.791  16.359  0.00  0.00    +0.000 A 
ATOM     25  C   UNL     1      49.924   7.820  17.052  0.00  0.00    +0.000 A 
ATOM     26  S   UNL     1      50.235   7.455  18.688  0.00  0.00    +0.000 S 
ATOM     27  C   UNL     1      49.479   5.939  18.548  0.00  0.00    +0.000 A 
ATOM     28  N   UNL     1      49.289   5.146  19.638  0.00  0.00    +0.000 NA
ATOM     29  C   UNL     1      48.687   4.032  19.387  0.00  0.00    +0.000 A 
ATOM     30  N   UNL     1      48.295   3.619  18.140  0.00  0.00    +0.000 N 
ATOM     31  C   UNL     1      48.503   4.367  17.005  0.00  0.00    +0.000 A 
ATOM     32  O   UNL     1      48.219   3.933  15.894  0.00  0.00    +0.000 OA
ATOM     33  C   UNL     1      49.098   5.667  17.246  0.00  0.00    +0.000 A 
ATOM     34  H   UNL     1      47.880   2.709  18.004  0.00  0.00    +0.000 HD
ENDBRANCH  21  24
ENDBRANCH  19  20
ENDBRANCH   4  19
TORSDOF 6
ENDMDL
MODEL 3
REMARK VINA RESULT:    -7.059      3.389      9.388
REMARK INTER + INTRA:         -10.617
REMARK INTER:                  -9.669
REMARK INTRA:                  -0.948
REMARK UNBOUND:                -1.082
REMARK  Name = 
REMARK  6 active torsions:
REMARK  status: ('A' for Active; 'I' for Inactive)
REMARK    1  A    between atoms: C_2  and  C_3
REMARK    2  A    between atoms: N_10  and  C_11
REMARK    3  A    between atoms: C_11  and  C_12
REMARK    4  A    between atoms: C_15  and  C_16
REMARK    5  A    between atoms: C_16  and  N_17
REMARK    6  A    between atoms: C_18  and  C_20
REMARK                            x       y       z     vdW  Elec       q    Type
REMARK                         _______ _______ _______ _____ _____    ______ ____
ROOT
ATOM      1  C   UNL     1      47.210   5.829  14.109  0.00  0.00    +0.000 A 
ATOM      2  C   UNL     1      48.245   6.573  14.695  0.00  0.00    +0.000 A 
ATOM      3  C   UNL     1      48.863   6.136  15.875  0.00  0.00    +0.000 A 
ATOM      4  C   UNL     1      48.462   4.937  16.483  0.00  0.00    +0.000 A 
ATOM      5  C   UNL     1      47.417   4.204  15.906  0.00  0.00    +0.000 A 
ATOM      6  C   UNL     1      46.806   4.636  14.728  0.00  0.00    +0.000 A 
ENDROOT
BRANCH   1   7
ATOM      7  C   UNL     1      46.523   6.311  12.858  0.00  0.00    +0.000 C 
BRANCH   7  15
ATOM      8  C   UNL     1      44.560   3.247  10.350  0.00  0.00    +0.000 A 
ATOM      9  C   UNL     1      44.489   2.455   9.217  0.00  0.00    +0.000 A 
ATOM     10  C   UNL     1      45.043   3.187   8.145  0.00  0.00    +0.000 A 
ATOM     11  C   UNL     1      45.401   4.416   8.643  0.00  0.00    +0.000 A 
ATOM     12  N   UNL     1      45.163   4.449  10.012  0.00  0.00    +0.000 N 
ATOM     13  C   UNL     1      45.450   5.565  10.822  0.00  0.00    +0.000 C 
ATOM     14  O   UNL     1      45.311   6.688  10.361  0.00  0.00    +0.000 OA
ATOM     15  N   UNL     1      46.004   5.236  12.038  0.00  0.00    +0.000 N 
ATOM     16  H   UNL     1      46.310   4.292  12.245  0.00  0.00    +0.000 HD
BRANCH   8  18
ATOM     17  N   UNL     1      43.539   2.693  12.655  0.00  0.00    +0.000 NA
ATOM     18  C   UNL     1      43.999   2.943  11.621  0.00  0.00    +0.000 C 
ENDBRANCH   8  18
ENDBRANCH   7  15
ENDBRANCH   1   7
BRANCH   4  19
ATOM     19  C   UNL     1      49.129   4.449  17.748  0.00  0.00    +0.000 C 
BRANCH  19  20
ATOM     20  N   UNL     1      50.505   4.090  17.528  0.00  0.00    +0.000 N 
ATOM     21  C   UNL     1      51.404   4.106  18.564  0.00  0.00    +0.000 C 
ATOM     22  O   UNL     1      51.117   4.564  19.667  0.00  0.00    +0.000 OA
ATOM     23  H   UNL     1      50.716   3.553  16.693  0.00  0.00    +0.000 HD
BRANCH  21  24
ATOM     24  C   UNL     1      52.737   3.550  18.309  0.00  0.00    +0.000 A 
ATOM     25  C   UNL     1      53.865   4.345  18.471  0.00  0.00    +0.000 A 
ATOM     26  S   UNL     1      55.333   3.513  18.224  0.00  0.00    +0.000 S 
ATOM     27  C   UNL     1      54.516   2.044  17.963  0.00  0.00    +0.000 A 
ATOM     28  N   UNL     1      55.201   0.879  17.810  0.00  0.00    +0.000 NA
ATOM     29  C   UNL     1      54.453  -0.159  17.636  0.00  0.00    +0.000 A 
ATOM     30  N   UNL     1      53.083  -0.132  17.559  0.00  0.00    +0.000 N 
ATOM     31  C   UNL     1      52.352   1.027  17.667  0.00  0.00    +0.000 A 
ATOM     32  O   UNL     1      51.136   1.031  17.508  0.00  0.00    +0.000 OA
ATOM     33  C   UNL     1      53.142   2.209  17.950  0.00  0.00    +0.000 A 
ATOM     34  H   UNL     1      52.561  -0.973  17.364  0.00  0.00    +0.000 HD
ENDBRANCH  21  24
ENDBRANCH  19  20
ENDBRANCH   4  19
TORSDOF 6
ENDMDL
MODEL 4
REMARK VINA RESULT:    -6.709      3.361      9.319
REMARK INTER + INTRA:         -10.144
REMARK INTER:                  -9.271
REMARK INTRA:                  -0.873
REMARK UNBOUND:                -1.082
REMARK  Name = 
REMARK  6 active torsions:
REMARK  status: ('A' for Active; 'I' for Inactive)
REMARK    1  A    between atoms: C_2  and  C_3
REMARK    2  A    between atoms: N_10  and  C_11
REMARK    3  A    between atoms: C_11  and  C_12
REMARK    4  A    between atoms: C_15  and  C_16
REMARK    5  A    between atoms: C_16  and  N_17
REMARK    6  A    between atoms: C_18  and  C_20
REMARK                            x       y       z     vdW  Elec       q    Type
REMARK                         _______ _______ _______ _____ _____    ______ ____
ROOT
ATOM      1  C   UNL     1      47.513   5.373  14.727  0.00  0.00    +0.000 A 
ATOM      2  C   UNL     1      47.107   4.053  14.971  0.00  0.00    +0.000 A 
ATOM      3  C   UNL     1      47.488   3.392  16.148  0.00  0.00    +0.000 A 
ATOM      4  C   UNL     1      48.275   4.048  17.107  0.00  0.00    +0.000 A 
ATOM      5  C   UNL     1      48.693   5.360  16.853  0.00  0.00    +0.000 A 
ATOM      6  C   UNL     1      48.309   6.021  15.685  0.00  0.00    +0.000 A 
ENDROOT
BRANCH   1   7
ATOM      7  C   UNL     1      47.132   6.076  13.450  0.00  0.00    +0.000 C 
BRANCH   7  15
ATOM      8  C   UNL     1      44.662   3.724  10.640  0.00  0.00    +0.000 A 
ATOM      9  C   UNL     1      44.428   3.149   9.403  0.00  0.00    +0.000 A 
ATOM     10  C   UNL     1      45.004   3.986   8.424  0.00  0.00    +0.000 A 
ATOM     11  C   UNL     1      45.540   5.064   9.085  0.00  0.00    +0.000 A 
ATOM     12  N   UNL     1      45.388   4.890  10.455  0.00  0.00    +0.000 N 
ATOM     13  C   UNL     1      45.858   5.813  11.411  0.00  0.00    +0.000 C 
ATOM     14  O   UNL     1      45.832   7.006  11.150  0.00  0.00    +0.000 OA
ATOM     15  N   UNL     1      46.437   5.221  12.510  0.00  0.00    +0.000 N 
ATOM     16  H   UNL     1      46.635   4.228  12.536  0.00  0.00    +0.000 HD
BRANCH   8  18
ATOM     17  N   UNL     1      43.717   2.905  12.899  0.00  0.00    +0.000 NA
ATOM     18  C   UNL     1      44.143   3.272  11.885  0.00  0.00    +0.000 C 
ENDBRANCH   8  18
ENDBRANCH   7  15
ENDBRANCH   1   7
BRANCH   4  19
ATOM     19  C   UNL     1      48.682   3.351  18.384  0.00  0.00    +0.000 C 
BRANCH  19  20
ATOM     20  N   UNL     1      50.110   3.205  18.487  0.00  0.00    +0.000 N 
ATOM     21  C   UNL     1      50.783   2.336  17.667  0.00  0.00    +0.000 C 
ATOM     22  O   UNL     1      50.194   1.549  16.930  0.00  0.00    +0.000 OA
ATOM     23  H   UNL     1      50.620   3.952  18.948  0.00  0.00    +0.000 HD
BRANCH  21  24
ATOM     24  C   UNL     1      52.249   2.379  17.696  0.00  0.00    +0.000 A 
ATOM     25  C   UNL     1      52.980   1.198  17.647  0.00  0.00    +0.000 A 
ATOM     26  S   UNL     1      54.667   1.437  17.597  0.00  0.00    +0.000 S 
ATOM     27  C   UNL     1      54.479   3.127  17.565  0.00  0.00    +0.000 A 
ATOM     28  N   UNL     1      55.550   3.949  17.398  0.00  0.00    +0.000 NA
ATOM     29  C   UNL     1      55.258   5.206  17.376  0.00  0.00    +0.000 A 
ATOM     30  N   UNL     1      53.998   5.719  17.548  0.00  0.00    +0.000 N 
ATOM     31  C   UNL     1      52.893   4.929  17.761  0.00  0.00    +0.000 A 
ATOM     32  O   UNL     1      51.794   5.420  17.997  0.00  0.00    +0.000 OA
ATOM     33  C   UNL     1      53.155   3.505  17.707  0.00  0.00    +0.000 A 
ATOM     34  H   UNL     1      53.846   6.716  17.578  0.00  0.00    +0.000 HD
ENDBRANCH  21  24
ENDBRANCH  19  20
ENDBRANCH   4  19
TORSDOF 6
ENDMDL
MODEL 5
REMARK VINA RESULT:    -6.690      5.657      6.614
REMARK INTER + INTRA:         -10.118
REMARK INTER:                  -9.206
REMARK INTRA:                  -0.913
REMARK UNBOUND:                -1.082
REMARK  Name = 
REMARK  6 active torsions:
REMARK  status: ('A' for Active; 'I' for Inactive)
REMARK    1  A    between atoms: C_2  and  C_3
REMARK    2  A    between atoms: N_10  and  C_11
REMARK    3  A    between atoms: C_11  and  C_12
REMARK    4  A    between atoms: C_15  and  C_16
REMARK    5  A    between atoms: C_16  and  N_17
REMARK    6  A    between atoms: C_18  and  C_20
REMARK                            x       y       z     vdW  Elec       q    Type
REMARK                         _______ _______ _______ _____ _____    ______ ____
ROOT
ATOM      1  C   UNL     1      50.386   8.976  11.322  0.00  0.00    +0.000 A 
ATOM      2  C   UNL     1      49.927   7.693  11.657  0.00  0.00    +0.000 A 
ATOM      3  C   UNL     1      48.595   7.486  12.043  0.00  0.00    +0.000 A 
ATOM      4  C   UNL     1      47.694   8.562  12.087  0.00  0.00    +0.000 A 
ATOM      5  C   UNL     1      48.158   9.843  11.769  0.00  0.00    +0.000 A 
ATOM      6  C   UNL     1      49.483  10.049  11.379  0.00  0.00    +0.000 A 
ENDROOT
BRANCH   1   7
ATOM      7  C   UNL     1      51.823   9.207  10.937  0.00  0.00    +0.000 C 
BRANCH   7  15
ATOM      8  C   UNL     1      53.885   6.096   8.571  0.00  0.00    +0.000 A 
ATOM      9  C   UNL     1      54.597   4.915   8.460  0.00  0.00    +0.000 A 
ATOM     10  C   UNL     1      55.423   4.802   9.598  0.00  0.00    +0.000 A 
ATOM     11  C   UNL     1      55.221   5.932  10.352  0.00  0.00    +0.000 A 
ATOM     12  N   UNL     1      54.234   6.713   9.763  0.00  0.00    +0.000 N 
ATOM     13  C   UNL     1      53.779   7.929  10.308  0.00  0.00    +0.000 C 
ATOM     14  O   UNL     1      54.568   8.652  10.895  0.00  0.00    +0.000 OA
ATOM     15  N   UNL     1      52.414   8.092  10.227  0.00  0.00    +0.000 N 
ATOM     16  H   UNL     1      51.804   7.335   9.942  0.00  0.00    +0.000 HD
BRANCH   8  18
ATOM     17  N   UNL     1      52.337   7.111   6.771  0.00  0.00    +0.000 NA
ATOM     18  C   UNL     1      53.032   6.657   7.580  0.00  0.00    +0.000 C 
ENDBRANCH   8  18
ENDBRANCH   7  15
ENDBRANCH   1   7
BRANCH   4  19
ATOM     19  C   UNL     1      46.253   8.349  12.489  0.00  0.00    +0.000 C 
BRANCH  19  20
ATOM     20  N   UNL     1      45.861   6.968  12.377  0.00  0.00    +0.000 N 
ATOM     21  C   UNL     1      44.732   6.619  11.680  0.00  0.00    +0.000 C 
ATOM     22  O   UNL     1      43.940   7.459  11.261  0.00  0.00    +0.000 OA
ATOM     23  H   UNL     1      46.573   6.268  12.555  0.00  0.00    +0.000 HD
BRANCH  21  24
ATOM     24  C   UNL     1      44.499   5.190  11.447  0.00  0.00    +0.000 A 
ATOM     25  C   UNL     1      43.785   4.441  12.375  0.00  0.00    +0.000 A 
ATOM     26  S   UNL     1      43.528   2.824  11.901  0.00  0.00    +0.000 S 
ATOM     27  C   UNL     1      44.298   3.085  10.407  0.00  0.00    +0.000 A 
ATOM     28  N   UNL     1      44.319   2.118   9.451  0.00  0.00    +0.000 NA
ATOM     29  C   UNL     1      44.922   2.459   8.362  0.00  0.00    +0.000 A 
ATOM     30  N   UNL     1      45.543   3.665   8.157  0.00  0.00    +0.000 N 
ATOM     31  C   UNL     1      45.583   4.656   9.110  0.00  0.00    +0.000 A 
ATOM     32  O   UNL     1      46.219   5.689   8.929  0.00  0.00    +0.000 OA
ATOM     33  C   UNL     1      44.844   4.354  10.320  0.00  0.00    +0.000 A 
ATOM     34  H   UNL     1      46.047   3.847   7.302  0.00  0.00    +0.000 HD
ENDBRANCH  21  24
ENDBRANCH  19  20
ENDBRANCH   4  19
TORSDOF 6
ENDMDL
MODEL 6
REMARK VINA RESULT:    -6.653      1.925      2.564
REMARK INTER + INTRA:         -10.069
REMARK INTER:                  -9.156
REMARK INTRA:                  -0.913
REMARK UNBOUND:                -1.082
REMARK  Name = 
REMARK  6 active torsions:
REMARK  status: ('A' for Active; 'I' for Inactive)
REMARK    1  A    between atoms: C_2  and  C_3
REMARK    2  A    between atoms: N_10  and  C_11
REMARK    3  A    between atoms: C_11  and  C_12
REMARK    4  A    between atoms: C_15  and  C_16
REMARK    5  A    between atoms: C_16  and  N_17
REMARK    6  A    between atoms: C_18  and  C_20
REMARK                            x       y       z     vdW  Elec       q    Type
REMARK                         _______ _______ _______ _____ _____    ______ ____
ROOT
ATOM      1  C   UNL     1      50.321   7.386  15.793  0.00  0.00    +0.000 A 
ATOM      2  C   UNL     1      51.089   7.815  14.700  0.00  0.00    +0.000 A 
ATOM      3  C   UNL     1      50.498   8.020  13.445  0.00  0.00    +0.000 A 
ATOM      4  C   UNL     1      49.122   7.809  13.266  0.00  0.00    +0.000 A 
ATOM      5  C   UNL     1      48.361   7.364  14.353  0.00  0.00    +0.000 A 
ATOM      6  C   UNL     1      48.948   7.166  15.605  0.00  0.00    +0.000 A 
ENDROOT
BRANCH   1   7
ATOM      7  C   UNL     1      50.958   7.135  17.134  0.00  0.00    +0.000 C 
BRANCH   7  15
ATOM      8  C   UNL     1      52.564   3.101  17.957  0.00  0.00    +0.000 A 
ATOM      9  C   UNL     1      52.630   1.739  17.721  0.00  0.00    +0.000 A 
ATOM     10  C   UNL     1      51.344   1.307  17.333  0.00  0.00    +0.000 A 
ATOM     11  C   UNL     1      50.522   2.406  17.380  0.00  0.00    +0.000 A 
ATOM     12  N   UNL     1      51.269   3.531  17.707  0.00  0.00    +0.000 N 
ATOM     13  C   UNL     1      50.720   4.824  17.809  0.00  0.00    +0.000 C 
ATOM     14  O   UNL     1      49.584   4.957  18.236  0.00  0.00    +0.000 OA
ATOM     15  N   UNL     1      51.517   5.806  17.264  0.00  0.00    +0.000 N 
ATOM     16  H   UNL     1      52.337   5.580  16.713  0.00  0.00    +0.000 HD
BRANCH   8  18
ATOM     17  N   UNL     1      54.454   4.569  18.924  0.00  0.00    +0.000 NA
ATOM     18  C   UNL     1      53.606   3.911  18.488  0.00  0.00    +0.000 C 
ENDBRANCH   8  18
ENDBRANCH   7  15
ENDBRANCH   1   7
BRANCH   4  19
ATOM     19  C   UNL     1      48.472   8.039  11.922  0.00  0.00    +0.000 C 
BRANCH  19  20
ATOM     20  N   UNL     1      47.721   6.891  11.483  0.00  0.00    +0.000 N 
ATOM     21  C   UNL     1      46.351   6.935  11.425  0.00  0.00    +0.000 C 
ATOM     22  O   UNL     1      45.711   7.880  11.879  0.00  0.00    +0.000 OA
ATOM     23  H   UNL     1      48.220   6.187  10.950  0.00  0.00    +0.000 HD
BRANCH  21  24
ATOM     24  C   UNL     1      45.666   5.803  10.792  0.00  0.00    +0.000 A 
ATOM     25  C   UNL     1      45.900   5.509   9.455  0.00  0.00    +0.000 A 
ATOM     26  S   UNL     1      45.094   4.108   8.910  0.00  0.00    +0.000 S 
ATOM     27  C   UNL     1      44.463   3.805  10.460  0.00  0.00    +0.000 A 
ATOM     28  N   UNL     1      43.765   2.667  10.722  0.00  0.00    +0.000 NA
ATOM     29  C   UNL     1      43.360   2.561  11.943  0.00  0.00    +0.000 A 
ATOM     30  N   UNL     1      43.554   3.508  12.916  0.00  0.00    +0.000 N 
ATOM     31  C   UNL     1      44.217   4.690  12.686  0.00  0.00    +0.000 A 
ATOM     32  O   UNL     1      44.299   5.554  13.553  0.00  0.00    +0.000 OA
ATOM     33  C   UNL     1      44.767   4.819  11.351  0.00  0.00    +0.000 A 
ATOM     34  H   UNL     1      43.161   3.388  13.838  0.00  0.00    +0.000 HD
ENDBRANCH  21  24
ENDBRANCH  19  20
ENDBRANCH   4  19
TORSDOF 6
ENDMDL
MODEL 7
REMARK VINA RESULT:    -6.595      4.364      9.936
REMARK INTER + INTRA:          -9.991
REMARK INTER:                  -8.907
REMARK INTRA:                  -1.084
REMARK UNBOUND:                -1.082
REMARK  Name = 
REMARK  6 active torsions:
REMARK  status: ('A' for Active; 'I' for Inactive)
REMARK    1  A    between atoms: C_2  and  C_3
REMARK    2  A    between atoms: N_10  and  C_11
REMARK    3  A    between atoms: C_11  and  C_12
REMARK    4  A    between atoms: C_15  and  C_16
REMARK    5  A    between atoms: C_16  and  N_17
REMARK    6  A    between atoms: C_18  and  C_20
REMARK                            x       y       z     vdW  Elec       q    Type
REMARK                         _______ _______ _______ _____ _____    ______ ____
ROOT
ATOM      1  C   UNL     1      48.984   3.424  17.066  0.00  0.00    +0.000 A 
ATOM      2  C   UNL     1      49.797   4.478  17.510  0.00  0.00    +0.000 A 
ATOM      3  C   UNL     1      51.135   4.252  17.863  0.00  0.00    +0.000 A 
ATOM      4  C   UNL     1      51.686   2.965  17.768  0.00  0.00    +0.000 A 
ATOM      5  C   UNL     1      50.869   1.912  17.341  0.00  0.00    +0.000 A 
ATOM      6  C   UNL     1      49.538   2.137  16.983  0.00  0.00    +0.000 A 
ENDROOT
BRANCH   1   7
ATOM      7  C   UNL     1      47.538   3.656  16.715  0.00  0.00    +0.000 C 
BRANCH   7  15
ATOM      8  C   UNL     1      47.306   6.464  13.311  0.00  0.00    +0.000 A 
ATOM      9  C   UNL     1      46.615   7.100  12.294  0.00  0.00    +0.000 A 
ATOM     10  C   UNL     1      45.643   6.202  11.807  0.00  0.00    +0.000 A 
ATOM     11  C   UNL     1      45.792   5.031  12.511  0.00  0.00    +0.000 A 
ATOM     12  N   UNL     1      46.774   5.196  13.480  0.00  0.00    +0.000 N 
ATOM     13  C   UNL     1      47.146   4.183  14.386  0.00  0.00    +0.000 C 
ATOM     14  O   UNL     1      47.133   3.018  14.018  0.00  0.00    +0.000 OA
ATOM     15  N   UNL     1      47.354   4.640  15.669  0.00  0.00    +0.000 N 
ATOM     16  H   UNL     1      47.107   5.584  15.943  0.00  0.00    +0.000 HD
BRANCH   8  18
ATOM     17  N   UNL     1      49.384   7.377  14.541  0.00  0.00    +0.000 NA
ATOM     18  C   UNL     1      48.452   6.968  13.987  0.00  0.00    +0.000 C 
ENDBRANCH   8  18
ENDBRANCH   7  15
ENDBRANCH   1   7
BRANCH   4  19
ATOM     19  C   UNL     1      53.130   2.712  18.134  0.00  0.00    +0.000 C 
BRANCH  19  20
ATOM     20  N   UNL     1      53.549   1.380  17.785  0.00  0.00    +0.000 N 
ATOM     21  C   UNL     1      54.243   0.610  18.683  0.00  0.00    +0.000 C 
ATOM     22  O   UNL     1      54.663   1.067  19.744  0.00  0.00    +0.000 OA
ATOM     23  H   UNL     1      53.072   0.932  17.010  0.00  0.00    +0.000 HD
BRANCH  21  24
ATOM     24  C   UNL     1      54.470  -0.796  18.333  0.00  0.00    +0.000 A 
ATOM     25  C   UNL     1      54.104  -1.801  19.221  0.00  0.00    +0.000 A 
ATOM     26  S   UNL     1      54.353  -3.375  18.615  0.00  0.00    +0.000 S 
ATOM     27  C   UNL     1      54.889  -2.770  17.118  0.00  0.00    +0.000 A 
ATOM     28  N   UNL     1      55.155  -3.607  16.079  0.00  0.00    +0.000 NA
ATOM     29  C   UNL     1      55.537  -3.010  14.999  0.00  0.00    +0.000 A 
ATOM     30  N   UNL     1      55.717  -1.656  14.877  0.00  0.00    +0.000 N 
ATOM     31  C   UNL     1      55.500  -0.777  15.912  0.00  0.00    +0.000 A 
ATOM     32  O   UNL     1      55.753   0.418  15.798  0.00  0.00    +0.000 OA
ATOM     33  C   UNL     1      54.987  -1.390  17.121  0.00  0.00    +0.000 A 
ATOM     34  H   UNL     1      56.073  -1.258  14.021  0.00  0.00    +0.000 HD
ENDBRANCH  21  24
ENDBRANCH  19  20
ENDBRANCH   4  19
TORSDOF 6
ENDMDL
MODEL 8
REMARK VINA RESULT:    -6.573      3.179      8.597
REMARK INTER + INTRA:          -9.961
REMARK INTER:                  -8.813
REMARK INTRA:                  -1.148
REMARK UNBOUND:                -1.082
REMARK  Name = 
REMARK  6 active torsions:
REMARK  status: ('A' for Active; 'I' for Inactive)
REMARK    1  A    between atoms: C_2  and  C_3
REMARK    2  A    between atoms: N_10  and  C_11
REMARK    3  A    between atoms: C_11  and  C_12
REMARK    4  A    between atoms: C_15  and  C_16
REMARK    5  A    between atoms: C_16  and  N_17
REMARK    6  A    between atoms: C_18  and  C_20
REMARK                            x       y       z     vdW  Elec       q    Type
REMARK                         _______ _______ _______ _____ _____    ______ ____
ROOT
ATOM      1  C   UNL     1      48.861   7.547  13.335  0.00  0.00    +0.000 A 
ATOM      2  C   UNL     1      48.621   6.740  14.457  0.00  0.00    +0.000 A 
ATOM      3  C   UNL     1      49.485   6.771  15.560  0.00  0.00    +0.000 A 
ATOM      4  C   UNL     1      50.601   7.622  15.564  0.00  0.00    +0.000 A 
ATOM      5  C   UNL     1      50.848   8.415  14.437  0.00  0.00    +0.000 A 
ATOM      6  C   UNL     1      49.984   8.389  13.340  0.00  0.00    +0.000 A 
ENDROOT
BRANCH   1   7
ATOM      7  C   UNL     1      47.952   7.494  12.135  0.00  0.00    +0.000 C 
BRANCH   7  15
ATOM      8  C   UNL     1      45.201   4.054  12.492  0.00  0.00    +0.000 A 
ATOM      9  C   UNL     1      44.143   3.282  12.045  0.00  0.00    +0.000 A 
ATOM     10  C   UNL     1      43.218   4.143  11.418  0.00  0.00    +0.000 A 
ATOM     11  C   UNL     1      43.717   5.418  11.532  0.00  0.00    +0.000 A 
ATOM     12  N   UNL     1      44.965   5.374  12.140  0.00  0.00    +0.000 N 
ATOM     13  C   UNL     1      45.752   6.518  12.379  0.00  0.00    +0.000 C 
ATOM     14  O   UNL     1      45.202   7.572  12.661  0.00  0.00    +0.000 OA
ATOM     15  N   UNL     1      47.091   6.330  12.119  0.00  0.00    +0.000 N 
ATOM     16  H   UNL     1      47.430   5.495  11.656  0.00  0.00    +0.000 HD
BRANCH   8  18
ATOM     17  N   UNL     1      47.178   3.236  13.936  0.00  0.00    +0.000 NA
ATOM     18  C   UNL     1      46.290   3.602  13.289  0.00  0.00    +0.000 C 
ENDBRANCH   8  18
ENDBRANCH   7  15
ENDBRANCH   1   7
BRANCH   4  19
ATOM     19  C   UNL     1      51.532   7.674  16.753  0.00  0.00    +0.000 C 
BRANCH  19  20
ATOM     20  N   UNL     1      52.271   6.448  16.912  0.00  0.00    +0.000 N 
ATOM     21  C   UNL     1      52.433   5.889  18.154  0.00  0.00    +0.000 C 
ATOM     22  O   UNL     1      52.096   6.474  19.180  0.00  0.00    +0.000 OA
ATOM     23  H   UNL     1      52.397   5.873  16.086  0.00  0.00    +0.000 HD
BRANCH  21  24
ATOM     24  C   UNL     1      53.029   4.550  18.218  0.00  0.00    +0.000 A 
ATOM     25  C   UNL     1      54.332   4.390  18.675  0.00  0.00    +0.000 A 
ATOM     26  S   UNL     1      54.830   2.762  18.772  0.00  0.00    +0.000 S 
ATOM     27  C   UNL     1      53.299   2.211  18.276  0.00  0.00    +0.000 A 
ATOM     28  N   UNL     1      53.003   0.883  18.263  0.00  0.00    +0.000 NA
ATOM     29  C   UNL     1      51.800   0.609  17.882  0.00  0.00    +0.000 A 
ATOM     30  N   UNL     1      50.880   1.540  17.472  0.00  0.00    +0.000 N 
ATOM     31  C   UNL     1      51.148   2.888  17.430  0.00  0.00    +0.000 A 
ATOM     32  O   UNL     1      50.334   3.686  16.978  0.00  0.00    +0.000 OA
ATOM     33  C   UNL     1      52.458   3.254  17.932  0.00  0.00    +0.000 A 
ATOM     34  H   UNL     1      49.974   1.254  17.131  0.00  0.00    +0.000 HD
ENDBRANCH  21  24
ENDBRANCH  19  20
ENDBRANCH   4  19
TORSDOF 6
ENDMDL
MODEL 9
REMARK VINA RESULT:    -6.425      5.731      9.175
REMARK INTER + INTRA:          -9.761
REMARK INTER:                  -8.723
REMARK INTRA:                  -1.038
REMARK UNBOUND:                -1.082
REMARK  Name = 
REMARK  6 active torsions:
REMARK  status: ('A' for Active; 'I' for Inactive)
REMARK    1  A    between atoms: C_2  and  C_3
REMARK    2  A    between atoms: N_10  and  C_11
REMARK    3  A    between atoms: C_11  and  C_12
REMARK    4  A    between atoms: C_15  and  C_16
REMARK    5  A    between atoms: C_16  and  N_17
REMARK    6  A    between atoms: C_18  and  C_20
REMARK                            x       y       z     vdW  Elec       q    Type
REMARK                         _______ _______ _______ _____ _____    ______ ____
ROOT
ATOM      1  C   UNL     1      47.155   7.164  12.767  0.00  0.00    +0.000 A 
ATOM      2  C   UNL     1      47.189   8.521  12.415  0.00  0.00    +0.000 A 
ATOM      3  C   UNL     1      48.402   9.153  12.110  0.00  0.00    +0.000 A 
ATOM      4  C   UNL     1      49.605   8.431  12.141  0.00  0.00    +0.000 A 
ATOM      5  C   UNL     1      49.572   7.081  12.509  0.00  0.00    +0.000 A 
ATOM      6  C   UNL     1      48.363   6.450  12.807  0.00  0.00    +0.000 A 
ENDROOT
BRANCH   1   7
ATOM      7  C   UNL     1      45.857   6.489  13.126  0.00  0.00    +0.000 C 
BRANCH   7  15
ATOM      8  C   UNL     1      44.480   3.228  10.481  0.00  0.00    +0.000 A 
ATOM      9  C   UNL     1      44.585   2.451   9.340  0.00  0.00    +0.000 A 
ATOM     10  C   UNL     1      45.097   3.266   8.309  0.00  0.00    +0.000 A 
ATOM     11  C   UNL     1      45.255   4.525   8.837  0.00  0.00    +0.000 A 
ATOM     12  N   UNL     1      44.934   4.505  10.188  0.00  0.00    +0.000 N 
ATOM     13  C   UNL     1      45.018   5.637  11.023  0.00  0.00    +0.000 C 
ATOM     14  O   UNL     1      44.756   6.738  10.562  0.00  0.00    +0.000 OA
ATOM     15  N   UNL     1      45.539   5.366  12.268  0.00  0.00    +0.000 N 
ATOM     16  H   UNL     1      45.957   4.470  12.486  0.00  0.00    +0.000 HD
BRANCH   8  18
ATOM     17  N   UNL     1      43.411   2.505  12.717  0.00  0.00    +0.000 NA
ATOM     18  C   UNL     1      43.891   2.831  11.713  0.00  0.00    +0.000 C 
ENDBRANCH   8  18
ENDBRANCH   7  15
ENDBRANCH   1   7
BRANCH   4  19
ATOM     19  C   UNL     1      50.918   9.099  11.802  0.00  0.00    +0.000 C 
BRANCH  19  20
ATOM     20  N   UNL     1      51.502   8.560  10.601  0.00  0.00    +0.000 N 
ATOM     21  C   UNL     1      52.723   7.937  10.639  0.00  0.00    +0.000 C 
ATOM     22  O   UNL     1      53.427   7.946  11.645  0.00  0.00    +0.000 OA
ATOM     23  H   UNL     1      50.878   8.386   9.820  0.00  0.00    +0.000 HD
BRANCH  21  24
ATOM     24  C   UNL     1      53.167   7.248   9.422  0.00  0.00    +0.000 A 
ATOM     25  C   UNL     1      53.444   5.887   9.456  0.00  0.00    +0.000 A 
ATOM     26  S   UNL     1      53.856   5.233   7.936  0.00  0.00    +0.000 S 
ATOM     27  C   UNL     1      53.608   6.730   7.167  0.00  0.00    +0.000 A 
ATOM     28  N   UNL     1      53.676   6.841   5.813  0.00  0.00    +0.000 NA
ATOM     29  C   UNL     1      53.449   8.031   5.365  0.00  0.00    +0.000 A 
ATOM     30  N   UNL     1      53.203   9.128   6.151  0.00  0.00    +0.000 N 
ATOM     31  C   UNL     1      53.166   9.070   7.524  0.00  0.00    +0.000 A 
ATOM     32  O   UNL     1      53.029  10.084   8.201  0.00  0.00    +0.000 OA
ATOM     33  C   UNL     1      53.328   7.738   8.072  0.00  0.00    +0.000 A 
ATOM     34  H   UNL     1      53.091  10.043   5.739  0.00  0.00    +0.000 HD
ENDBRANCH  21  24
ENDBRANCH  19  20
ENDBRANCH   4  19
TORSDOF 6
ENDMDL
