MODEL 1
REMARK VINA RESULT:    -9.115      0.000      0.000
REMARK INTER + INTRA:         -14.595
REMARK INTER:                 -13.644
REMARK INTRA:                  -0.951
REMARK UNBOUND:                -0.951
REMARK  Name = 
REMARK  9 active torsions:
REMARK  status: ('A' for Active; 'I' for Inactive)
REMARK    1  A    between atoms: N_1  and  C_2
REMARK    2  A    between atoms: C_2  and  N_3
REMARK    3  A    between atoms: C_2  and  C_20
REMARK    4  A    between atoms: N_3  and  C_4
REMARK    5  A    between atoms: C_4  and  C_5
REMARK    6  A    between atoms: C_8  and  C_9
REMARK    7  A    between atoms: C_9  and  N_10
REMARK    8  A    between atoms: N_10  and  C_11
REMARK    9  A    between atoms: C_11  and  C_12
REMARK                            x       y       z     vdW  Elec       q    Type
REMARK                         _______ _______ _______ _____ _____    ______ ____
ROOT
ATOM      1  N   UNL     1      46.848   4.507  16.057  0.00  0.00    +0.000 NA
ATOM      2  H   UNL     1      46.889   5.304  16.700  0.00  0.00    +0.000 HD
ENDROOT
BRANCH   1   3
ATOM      3  C   UNL     1      47.583   3.438  16.701  0.00  0.00    +0.000 C 
BRANCH   3   4
ATOM      4  C   UNL     1      48.767   4.014  17.457  0.00  0.00    +0.000 A 
ATOM      5  C   UNL     1      48.775   5.200  18.184  0.00  0.00    +0.000 A 
ATOM      6  S   UNL     1      50.243   5.507  18.998  0.00  0.00    +0.000 S 
ATOM      7  C   UNL     1      50.926   4.060  18.424  0.00  0.00    +0.000 A 
ATOM      8  N   UNL     1      52.181   3.677  18.783  0.00  0.00    +0.000 NA
ATOM      9  C   UNL     1      52.551   2.548  18.282  0.00  0.00    +0.000 A 
ATOM     10  N   UNL     1      51.796   1.774  17.434  0.00  0.00    +0.000 N 
ATOM     11  C   UNL     1      50.539   2.142  17.005  0.00  0.00    +0.000 A 
ATOM     12  O   UNL     1      49.909   1.486  16.180  0.00  0.00    +0.000 OA
ATOM     13  C   UNL     1      50.059   3.380  17.590  0.00  0.00    +0.000 A 
ATOM     14  H   UNL     1      52.166   0.916  17.053  0.00  0.00    +0.000 HD
ENDBRANCH   3   4
BRANCH   3  15
ATOM     15  N   UNL     1      46.685   2.848  17.665  0.00  0.00    +0.000 NA
ATOM     16  H   UNL     1      46.329   1.975  17.296  0.00  0.00    +0.000 HD
ATOM     17  H   UNL     1      45.889   3.483  17.698  0.00  0.00    +0.000 HD
ENDBRANCH   3  15
ENDBRANCH   1   3
BRANCH   1  18
ATOM     18  C   UNL     1      47.465   4.961  14.806  0.00  0.00    +0.000 C 
BRANCH  18  19
ATOM     19  C   UNL     1      46.539   4.836  13.618  0.00  0.00    +0.000 A 
ATOM     20  C   UNL     1      46.067   3.587  13.195  0.00  0.00    +0.000 A 
ATOM     21  C   UNL     1      45.176   3.492  12.122  0.00  0.00    +0.000 A 
ATOM     22  C   UNL     1      44.724   4.642  11.458  0.00  0.00    +0.000 A 
ATOM     23  C   UNL     1      45.196   5.892  11.879  0.00  0.00    +0.000 A 
ATOM     24  C   UNL     1      46.096   5.984  12.944  0.00  0.00    +0.000 A 
BRANCH  22  25
ATOM     25  C   UNL     1      43.762   4.535  10.299  0.00  0.00    +0.000 C 
BRANCH  25  26
ATOM     26  N   UNL     1      44.223   3.552   9.321  0.00  0.00    +0.000 NA
ATOM     27  H   UNL     1      43.422   3.223   8.782  0.00  0.00    +0.000 HD
BRANCH  26  28
ATOM     28  C   UNL     1      45.211   4.129   8.414  0.00  0.00    +0.000 C 
BRANCH  28  29
ATOM     29  C   UNL     1      46.048   3.050   7.773  0.00  0.00    +0.000 A 
ATOM     30  C   UNL     1      46.078   1.755   8.298  0.00  0.00    +0.000 A 
ATOM     31  C   UNL     1      46.866   0.802   7.671  0.00  0.00    +0.000 A 
ATOM     32  N   UNL     1      47.613   1.044   6.573  0.00  0.00    +0.000 NA
ATOM     33  C   UNL     1      47.569   2.302   6.083  0.00  0.00    +0.000 A 
ATOM     34  C   UNL     1      46.814   3.321   6.634  0.00  0.00    +0.000 A 
ENDBRANCH  28  29
ENDBRANCH  26  28
ENDBRANCH  25  26
ENDBRANCH  22  25
ENDBRANCH  18  19
ENDBRANCH   1  18
TORSDOF 9
ENDMDL
MODEL 2
REMARK VINA RESULT:    -7.964      1.077      1.664
REMARK INTER + INTRA:         -12.873
REMARK INTER:                 -12.046
REMARK INTRA:                  -0.827
REMARK UNBOUND:                -0.951
REMARK  Name = 
REMARK  9 active torsions:
REMARK  status: ('A' for Active; 'I' for Inactive)
REMARK    1  A    between atoms: N_1  and  C_2
REMARK    2  A    between atoms: C_2  and  N_3
REMARK    3  A    between atoms: C_2  and  C_20
REMARK    4  A    between atoms: N_3  and  C_4
REMARK    5  A    between atoms: C_4  and  C_5
REMARK    6  A    between atoms: C_8  and  C_9
REMARK    7  A    between atoms: C_9  and  N_10
REMARK    8  A    between atoms: N_10  and  C_11
REMARK    9  A    between atoms: C_11  and  C_12
REMARK                            x       y       z     vdW  Elec       q    Type
REMARK                         _______ _______ _______ _____ _____    ______ ____
ROOT
ATOM      1  N   UNL     1      47.555   6.035  15.423  0.00  0.00    +0.000 NA
ATOM      2  H   UNL     1      47.900   6.908  15.834  0.00  0.00    +0.000 HD
ENDROOT
BRANCH   1   3
ATOM      3  C   UNL     1      48.150   4.967  16.200  0.00  0.00    +0.000 C 
BRANCH   3   4
ATOM      4  C   UNL     1      49.376   5.486  16.928  0.00  0.00    +0.000 A 
ATOM      5  C   UNL     1      49.655   6.818  17.214  0.00  0.00    +0.000 A 
ATOM      6  S   UNL     1      51.071   7.050  18.137  0.00  0.00    +0.000 S 
ATOM      7  C   UNL     1      51.365   5.376  18.207  0.00  0.00    +0.000 A 
ATOM      8  N   UNL     1      52.422   4.870  18.895  0.00  0.00    +0.000 NA
ATOM      9  C   UNL     1      52.500   3.582  18.869  0.00  0.00    +0.000 A 
ATOM     10  N   UNL     1      51.635   2.752  18.198  0.00  0.00    +0.000 N 
ATOM     11  C   UNL     1      50.577   3.220  17.449  0.00  0.00    +0.000 A 
ATOM     12  O   UNL     1      49.863   2.474  16.785  0.00  0.00    +0.000 OA
ATOM     13  C   UNL     1      50.418   4.662  17.497  0.00  0.00    +0.000 A 
ATOM     14  H   UNL     1      51.779   1.753  18.195  0.00  0.00    +0.000 HD
ENDBRANCH   3   4
BRANCH   3  15
ATOM     15  N   UNL     1      47.170   4.589  17.191  0.00  0.00    +0.000 NA
ATOM     16  H   UNL     1      47.570   4.706  18.114  0.00  0.00    +0.000 HD
ATOM     17  H   UNL     1      47.049   3.585  17.063  0.00  0.00    +0.000 HD
ENDBRANCH   3  15
ENDBRANCH   1   3
BRANCH   1  18
ATOM     18  C   UNL     1      47.991   6.044  14.023  0.00  0.00    +0.000 C 
BRANCH  18  19
ATOM     19  C   UNL     1      46.885   5.669  13.062  0.00  0.00    +0.000 A 
ATOM     20  C   UNL     1      46.694   6.374  11.867  0.00  0.00    +0.000 A 
ATOM     21  C   UNL     1      45.695   5.986  10.969  0.00  0.00    +0.000 A 
ATOM     22  C   UNL     1      44.876   4.879  11.237  0.00  0.00    +0.000 A 
ATOM     23  C   UNL     1      45.065   4.176  12.433  0.00  0.00    +0.000 A 
ATOM     24  C   UNL     1      46.057   4.571  13.335  0.00  0.00    +0.000 A 
BRANCH  22  25
ATOM     25  C   UNL     1      43.797   4.465  10.264  0.00  0.00    +0.000 C 
BRANCH  25  26
ATOM     26  N   UNL     1      44.278   3.425   9.357  0.00  0.00    +0.000 NA
ATOM     27  H   UNL     1      43.479   2.890   9.016  0.00  0.00    +0.000 HD
BRANCH  26  28
ATOM     28  C   UNL     1      44.991   4.001   8.220  0.00  0.00    +0.000 C 
BRANCH  28  29
ATOM     29  C   UNL     1      45.963   3.006   7.635  0.00  0.00    +0.000 A 
ATOM     30  C   UNL     1      46.733   3.325   6.514  0.00  0.00    +0.000 A 
ATOM     31  C   UNL     1      47.609   2.372   6.016  0.00  0.00    +0.000 A 
ATOM     32  N   UNL     1      47.770   1.143   6.549  0.00  0.00    +0.000 NA
ATOM     33  C   UNL     1      47.015   0.856   7.634  0.00  0.00    +0.000 A 
ATOM     34  C   UNL     1      46.117   1.738   8.205  0.00  0.00    +0.000 A 
ENDBRANCH  28  29
ENDBRANCH  26  28
ENDBRANCH  25  26
ENDBRANCH  22  25
ENDBRANCH  18  19
ENDBRANCH   1  18
TORSDOF 9
ENDMDL
MODEL 3
REMARK VINA RESULT:    -7.531      2.666      3.712
REMARK INTER + INTRA:         -12.224
REMARK INTER:                 -11.142
REMARK INTRA:                  -1.082
REMARK UNBOUND:                -0.951
REMARK  Name = 
REMARK  9 active torsions:
REMARK  status: ('A' for Active; 'I' for Inactive)
REMARK    1  A    between atoms: N_1  and  C_2
REMARK    2  A    between atoms: C_2  and  N_3
REMARK    3  A    between atoms: C_2  and  C_20
REMARK    4  A    between atoms: N_3  and  C_4
REMARK    5  A    between atoms: C_4  and  C_5
REMARK    6  A    between atoms: C_8  and  C_9
REMARK    7  A    between atoms: C_9  and  N_10
REMARK    8  A    between atoms: N_10  and  C_11
REMARK    9  A    between atoms: C_11  and  C_12
REMARK                            x       y       z     vdW  Elec       q    Type
REMARK                         _______ _______ _______ _____ _____    ______ ____
ROOT
ATOM      1  N   UNL     1      47.694   6.146  15.549  0.00  0.00    +0.000 NA
ATOM      2  H   UNL     1      47.608   7.154  15.710  0.00  0.00    +0.000 HD
ENDROOT
BRANCH   1   3
ATOM      3  C   UNL     1      48.684   5.675  16.496  0.00  0.00    +0.000 C 
BRANCH   3   4
ATOM      4  C   UNL     1      48.265   6.053  17.904  0.00  0.00    +0.000 A 
ATOM      5  C   UNL     1      47.922   5.168  18.922  0.00  0.00    +0.000 A 
ATOM      6  S   UNL     1      47.598   5.921  20.419  0.00  0.00    +0.000 S 
ATOM      7  C   UNL     1      47.917   7.462  19.774  0.00  0.00    +0.000 A 
ATOM      8  N   UNL     1      47.861   8.579  20.547  0.00  0.00    +0.000 NA
ATOM      9  C   UNL     1      48.145   9.669  19.919  0.00  0.00    +0.000 A 
ATOM     10  N   UNL     1      48.457   9.754  18.583  0.00  0.00    +0.000 N 
ATOM     11  C   UNL     1      48.480   8.656  17.750  0.00  0.00    +0.000 A 
ATOM     12  O   UNL     1      48.675   8.755  16.542  0.00  0.00    +0.000 OA
ATOM     13  C   UNL     1      48.222   7.400  18.427  0.00  0.00    +0.000 A 
ATOM     14  H   UNL     1      48.636  10.649  18.152  0.00  0.00    +0.000 HD
ENDBRANCH   3   4
BRANCH   3  15
ATOM     15  N   UNL     1      48.684   4.233  16.403  0.00  0.00    +0.000 NA
ATOM     16  H   UNL     1      48.624   3.841  17.335  0.00  0.00    +0.000 HD
ATOM     17  H   UNL     1      49.614   3.997  16.059  0.00  0.00    +0.000 HD
ENDBRANCH   3  15
ENDBRANCH   1   3
BRANCH   1  18
ATOM     18  C   UNL     1      48.112   5.992  14.151  0.00  0.00    +0.000 C 
BRANCH  18  19
ATOM     19  C   UNL     1      46.974   5.587  13.242  0.00  0.00    +0.000 A 
ATOM     20  C   UNL     1      46.547   6.420  12.200  0.00  0.00    +0.000 A 
ATOM     21  C   UNL     1      45.523   6.011  11.340  0.00  0.00    +0.000 A 
ATOM     22  C   UNL     1      44.914   4.757  11.492  0.00  0.00    +0.000 A 
ATOM     23  C   UNL     1      45.339   3.924  12.534  0.00  0.00    +0.000 A 
ATOM     24  C   UNL     1      46.355   4.338  13.399  0.00  0.00    +0.000 A 
BRANCH  22  25
ATOM     25  C   UNL     1      43.808   4.320  10.561  0.00  0.00    +0.000 C 
BRANCH  25  26
ATOM     26  N   UNL     1      44.259   3.248   9.674  0.00  0.00    +0.000 NA
ATOM     27  H   UNL     1      43.476   2.619   9.494  0.00  0.00    +0.000 HD
BRANCH  26  28
ATOM     28  C   UNL     1      44.751   3.781   8.407  0.00  0.00    +0.000 C 
BRANCH  28  29
ATOM     29  C   UNL     1      45.855   2.914   7.853  0.00  0.00    +0.000 A 
ATOM     30  C   UNL     1      45.951   1.563   8.195  0.00  0.00    +0.000 A 
ATOM     31  C   UNL     1      46.986   0.813   7.658  0.00  0.00    +0.000 A 
ATOM     32  N   UNL     1      47.917   1.307   6.815  0.00  0.00    +0.000 NA
ATOM     33  C   UNL     1      47.805   2.616   6.498  0.00  0.00    +0.000 A 
ATOM     34  C   UNL     1      46.809   3.445   6.979  0.00  0.00    +0.000 A 
ENDBRANCH  28  29
ENDBRANCH  26  28
ENDBRANCH  25  26
ENDBRANCH  22  25
ENDBRANCH  18  19
ENDBRANCH   1  18
TORSDOF 9
ENDMDL
MODEL 4
REMARK VINA RESULT:    -7.358      2.490      3.107
REMARK INTER + INTRA:         -11.965
REMARK INTER:                 -11.009
REMARK INTRA:                  -0.956
REMARK UNBOUND:                -0.951
REMARK  Name = 
REMARK  9 active torsions:
REMARK  status: ('A' for Active; 'I' for Inactive)
REMARK    1  A    between atoms: N_1  and  C_2
REMARK    2  A    between atoms: C_2  and  N_3
REMARK    3  A    between atoms: C_2  and  C_20
REMARK    4  A    between atoms: N_3  and  C_4
REMARK    5  A    between atoms: C_4  and  C_5
REMARK    6  A    between atoms: C_8  and  C_9
REMARK    7  A    between atoms: C_9  and  N_10
REMARK    8  A    between atoms: N_10  and  C_11
REMARK    9  A    between atoms: C_11  and  C_12
REMARK                            x       y       z     vdW  Elec       q    Type
REMARK                         _______ _______ _______ _____ _____    ______ ____
ROOT
ATOM      1  N   UNL     1      48.747   6.304  14.682  0.00  0.00    +0.000 NA
ATOM      2  H   UNL     1      48.262   5.404  14.750  0.00  0.00    +0.000 HD
ENDROOT
BRANCH   1   3
ATOM      3  C   UNL     1      49.194   6.618  16.023  0.00  0.00    +0.000 C 
BRANCH   3   4
ATOM      4  C   UNL     1      48.746   5.528  16.980  0.00  0.00    +0.000 A 
ATOM      5  C   UNL     1      48.169   4.313  16.624  0.00  0.00    +0.000 A 
ATOM      6  S   UNL     1      47.876   3.269  17.941  0.00  0.00    +0.000 S 
ATOM      7  C   UNL     1      48.522   4.392  19.044  0.00  0.00    +0.000 A 
ATOM      8  N   UNL     1      48.614   4.109  20.370  0.00  0.00    +0.000 NA
ATOM      9  C   UNL     1      49.143   5.052  21.075  0.00  0.00    +0.000 A 
ATOM     10  N   UNL     1      49.566   6.264  20.582  0.00  0.00    +0.000 N 
ATOM     11  C   UNL     1      49.449   6.614  19.254  0.00  0.00    +0.000 A 
ATOM     12  O   UNL     1      49.751   7.730  18.842  0.00  0.00    +0.000 OA
ATOM     13  C   UNL     1      48.912   5.559  18.415  0.00  0.00    +0.000 A 
ATOM     14  H   UNL     1      49.939   6.968  21.201  0.00  0.00    +0.000 HD
ENDBRANCH   3   4
BRANCH   3  15
ATOM     15  N   UNL     1      50.637   6.612  15.985  0.00  0.00    +0.000 NA
ATOM     16  H   UNL     1      50.969   5.672  16.159  0.00  0.00    +0.000 HD
ATOM     17  H   UNL     1      50.918   7.162  16.796  0.00  0.00    +0.000 HD
ENDBRANCH   3  15
ENDBRANCH   1   3
BRANCH   1  18
ATOM     18  C   UNL     1      47.763   7.259  14.162  0.00  0.00    +0.000 C 
BRANCH  18  19
ATOM     19  C   UNL     1      46.844   6.647  13.128  0.00  0.00    +0.000 A 
ATOM     20  C   UNL     1      46.135   7.449  12.224  0.00  0.00    +0.000 A 
ATOM     21  C   UNL     1      45.324   6.866  11.246  0.00  0.00    +0.000 A 
ATOM     22  C   UNL     1      45.214   5.471  11.140  0.00  0.00    +0.000 A 
ATOM     23  C   UNL     1      45.921   4.669  12.045  0.00  0.00    +0.000 A 
ATOM     24  C   UNL     1      46.722   5.254  13.029  0.00  0.00    +0.000 A 
BRANCH  22  25
ATOM     25  C   UNL     1      44.336   4.846  10.082  0.00  0.00    +0.000 C 
BRANCH  25  26
ATOM     26  N   UNL     1      45.030   4.772   8.798  0.00  0.00    +0.000 NA
ATOM     27  H   UNL     1      46.033   4.703   8.969  0.00  0.00    +0.000 HD
BRANCH  26  28
ATOM     28  C   UNL     1      44.592   3.614   8.024  0.00  0.00    +0.000 C 
BRANCH  28  29
ATOM     29  C   UNL     1      45.776   2.840   7.499  0.00  0.00    +0.000 A 
ATOM     30  C   UNL     1      46.167   1.635   8.087  0.00  0.00    +0.000 A 
ATOM     31  C   UNL     1      47.263   0.965   7.565  0.00  0.00    +0.000 A 
ATOM     32  N   UNL     1      47.985   1.405   6.513  0.00  0.00    +0.000 NA
ATOM     33  C   UNL     1      47.589   2.572   5.959  0.00  0.00    +0.000 A 
ATOM     34  C   UNL     1      46.509   3.312   6.405  0.00  0.00    +0.000 A 
ENDBRANCH  28  29
ENDBRANCH  26  28
ENDBRANCH  25  26
ENDBRANCH  22  25
ENDBRANCH  18  19
ENDBRANCH   1  18
TORSDOF 9
ENDMDL
MODEL 5
REMARK VINA RESULT:    -7.293      2.037      2.675
REMARK INTER + INTRA:         -11.868
REMARK INTER:                 -10.996
REMARK INTRA:                  -0.871
REMARK UNBOUND:                -0.951
REMARK  Name = 
REMARK  9 active torsions:
REMARK  status: ('A' for Active; 'I' for Inactive)
REMARK    1  A    between atoms: N_1  and  C_2
REMARK    2  A    between atoms: C_2  and  N_3
REMARK    3  A    between atoms: C_2  and  C_20
REMARK    4  A    between atoms: N_3  and  C_4
REMARK    5  A    between atoms: C_4  and  C_5
REMARK    6  A    between atoms: C_8  and  C_9
REMARK    7  A    between atoms: C_9  and  N_10
REMARK    8  A    between atoms: N_10  and  C_11
REMARK    9  A    between atoms: C_11  and  C_12
REMARK                            x       y       z     vdW  Elec       q    Type
REMARK                         _______ _______ _______ _____ _____    ______ ____
ROOT
ATOM      1  N   UNL     1      48.303   6.778  15.274  0.00  0.00    +0.000 NA
ATOM      2  H   UNL     1      47.557   6.815  15.975  0.00  0.00    +0.000 HD
ENDROOT
BRANCH   1   3
ATOM      3  C   UNL     1      49.461   7.390  15.891  0.00  0.00    +0.000 C 
BRANCH   3   4
ATOM      4  C   UNL     1      49.366   7.261  17.400  0.00  0.00    +0.000 A 
ATOM      5  C   UNL     1      49.437   8.305  18.316  0.00  0.00    +0.000 A 
ATOM      6  S   UNL     1      49.191   7.827  19.936  0.00  0.00    +0.000 S 
ATOM      7  C   UNL     1      48.964   6.205  19.479  0.00  0.00    +0.000 A 
ATOM      8  N   UNL     1      48.669   5.246  20.396  0.00  0.00    +0.000 NA
ATOM      9  C   UNL     1      48.509   4.068  19.894  0.00  0.00    +0.000 A 
ATOM     10  N   UNL     1      48.641   3.752  18.563  0.00  0.00    +0.000 N 
ATOM     11  C   UNL     1      48.985   4.681  17.604  0.00  0.00    +0.000 A 
ATOM     12  O   UNL     1      49.184   4.370  16.433  0.00  0.00    +0.000 OA
ATOM     13  C   UNL     1      49.119   6.031  18.117  0.00  0.00    +0.000 A 
ATOM     14  H   UNL     1      48.533   2.800  18.247  0.00  0.00    +0.000 HD
ENDBRANCH   3   4
BRANCH   3  15
ATOM     15  N   UNL     1      50.608   6.630  15.451  0.00  0.00    +0.000 NA
ATOM     16  H   UNL     1      51.259   6.537  16.220  0.00  0.00    +0.000 HD
ATOM     17  H   UNL     1      51.067   7.230  14.766  0.00  0.00    +0.000 HD
ENDBRANCH   3  15
ENDBRANCH   1   3
BRANCH   1  18
ATOM     18  C   UNL     1      47.805   7.521  14.111  0.00  0.00    +0.000 C 
BRANCH  18  19
ATOM     19  C   UNL     1      47.007   6.657  13.161  0.00  0.00    +0.000 A 
ATOM     20  C   UNL     1      46.360   5.497  13.606  0.00  0.00    +0.000 A 
ATOM     21  C   UNL     1      45.589   4.734  12.725  0.00  0.00    +0.000 A 
ATOM     22  C   UNL     1      45.436   5.118  11.385  0.00  0.00    +0.000 A 
ATOM     23  C   UNL     1      46.084   6.276  10.938  0.00  0.00    +0.000 A 
ATOM     24  C   UNL     1      46.863   7.033  11.818  0.00  0.00    +0.000 A 
BRANCH  22  25
ATOM     25  C   UNL     1      44.603   4.289  10.436  0.00  0.00    +0.000 C 
BRANCH  25  26
ATOM     26  N   UNL     1      44.905   4.620   9.044  0.00  0.00    +0.000 NA
ATOM     27  H   UNL     1      45.902   4.820   8.962  0.00  0.00    +0.000 HD
BRANCH  26  28
ATOM     28  C   UNL     1      44.559   3.519   8.151  0.00  0.00    +0.000 C 
BRANCH  28  29
ATOM     29  C   UNL     1      45.800   2.805   7.673  0.00  0.00    +0.000 A 
ATOM     30  C   UNL     1      46.046   1.475   8.023  0.00  0.00    +0.000 A 
ATOM     31  C   UNL     1      47.203   0.868   7.557  0.00  0.00    +0.000 A 
ATOM     32  N   UNL     1      48.117   1.483   6.778  0.00  0.00    +0.000 NA
ATOM     33  C   UNL     1      47.859   2.769   6.452  0.00  0.00    +0.000 A 
ATOM     34  C   UNL     1      46.734   3.460   6.863  0.00  0.00    +0.000 A 
ENDBRANCH  28  29
ENDBRANCH  26  28
ENDBRANCH  25  26
ENDBRANCH  22  25
ENDBRANCH  18  19
ENDBRANCH   1  18
TORSDOF 9
ENDMDL
MODEL 6
REMARK VINA RESULT:    -7.149      3.538      8.926
REMARK INTER + INTRA:         -11.653
REMARK INTER:                 -10.202
REMARK INTRA:                  -1.451
REMARK UNBOUND:                -0.951
REMARK  Name = 
REMARK  9 active torsions:
REMARK  status: ('A' for Active; 'I' for Inactive)
REMARK    1  A    between atoms: N_1  and  C_2
REMARK    2  A    between atoms: C_2  and  N_3
REMARK    3  A    between atoms: C_2  and  C_20
REMARK    4  A    between atoms: N_3  and  C_4
REMARK    5  A    between atoms: C_4  and  C_5
REMARK    6  A    between atoms: C_8  and  C_9
REMARK    7  A    between atoms: C_9  and  N_10
REMARK    8  A    between atoms: N_10  and  C_11
REMARK    9  A    between atoms: C_11  and  C_12
REMARK                            x       y       z     vdW  Elec       q    Type
REMARK                         _______ _______ _______ _____ _____    ______ ____
ROOT
ATOM      1  N   UNL     1      45.044   7.079  12.753  0.00  0.00    +0.000 NA
ATOM      2  H   UNL     1      45.653   6.333  13.103  0.00  0.00    +0.000 HD
ENDROOT
BRANCH   1   3
ATOM      3  C   UNL     1      44.697   6.707  11.397  0.00  0.00    +0.000 C 
BRANCH   3   4
ATOM      4  C   UNL     1      44.415   5.218  11.331  0.00  0.00    +0.000 A 
ATOM      5  C   UNL     1      43.683   4.482  12.258  0.00  0.00    +0.000 A 
ATOM      6  S   UNL     1      43.468   2.843  11.832  0.00  0.00    +0.000 S 
ATOM      7  C   UNL     1      44.332   3.051  10.382  0.00  0.00    +0.000 A 
ATOM      8  N   UNL     1      44.494   2.029   9.501  0.00  0.00    +0.000 NA
ATOM      9  C   UNL     1      45.157   2.347   8.440  0.00  0.00    +0.000 A 
ATOM     10  N   UNL     1      45.696   3.586   8.187  0.00  0.00    +0.000 N 
ATOM     11  C   UNL     1      45.599   4.638   9.071  0.00  0.00    +0.000 A 
ATOM     12  O   UNL     1      46.159   5.713   8.874  0.00  0.00    +0.000 OA
ATOM     13  C   UNL     1      44.812   4.341  10.253  0.00  0.00    +0.000 A 
ATOM     14  H   UNL     1      46.233   3.751   7.349  0.00  0.00    +0.000 HD
ENDBRANCH   3   4
BRANCH   3  15
ATOM     15  N   UNL     1      43.474   7.407  11.083  0.00  0.00    +0.000 NA
ATOM     16  H   UNL     1      43.377   7.471  10.077  0.00  0.00    +0.000 HD
ATOM     17  H   UNL     1      43.629   8.359  11.411  0.00  0.00    +0.000 HD
ENDBRANCH   3  15
ENDBRANCH   1   3
BRANCH   1  18
ATOM     18  C   UNL     1      45.830   8.315  12.831  0.00  0.00    +0.000 C 
BRANCH  18  19
ATOM     19  C   UNL     1      47.187   8.107  13.465  0.00  0.00    +0.000 A 
ATOM     20  C   UNL     1      48.069   7.130  12.987  0.00  0.00    +0.000 A 
ATOM     21  C   UNL     1      49.337   6.980  13.556  0.00  0.00    +0.000 A 
ATOM     22  C   UNL     1      49.758   7.812  14.603  0.00  0.00    +0.000 A 
ATOM     23  C   UNL     1      48.877   8.789  15.084  0.00  0.00    +0.000 A 
ATOM     24  C   UNL     1      47.605   8.930  14.521  0.00  0.00    +0.000 A 
BRANCH  22  25
ATOM     25  C   UNL     1      51.129   7.646  15.216  0.00  0.00    +0.000 C 
BRANCH  25  26
ATOM     26  N   UNL     1      51.267   6.337  15.849  0.00  0.00    +0.000 NA
ATOM     27  H   UNL     1      52.259   6.137  15.979  0.00  0.00    +0.000 HD
BRANCH  26  28
ATOM     28  C   UNL     1      50.596   6.301  17.145  0.00  0.00    +0.000 C 
BRANCH  28  29
ATOM     29  C   UNL     1      49.612   5.159  17.209  0.00  0.00    +0.000 A 
ATOM     30  C   UNL     1      48.256   5.360  16.940  0.00  0.00    +0.000 A 
ATOM     31  C   UNL     1      47.394   4.276  17.014  0.00  0.00    +0.000 A 
ATOM     32  N   UNL     1      47.784   3.023  17.332  0.00  0.00    +0.000 NA
ATOM     33  C   UNL     1      49.100   2.851  17.588  0.00  0.00    +0.000 A 
ATOM     34  C   UNL     1      50.037   3.867  17.537  0.00  0.00    +0.000 A 
ENDBRANCH  28  29
ENDBRANCH  26  28
ENDBRANCH  25  26
ENDBRANCH  22  25
ENDBRANCH  18  19
ENDBRANCH   1  18
TORSDOF 9
ENDMDL
MODEL 7
REMARK VINA RESULT:    -6.748      3.762      8.779
REMARK INTER + INTRA:         -11.053
REMARK INTER:                  -9.447
REMARK INTRA:                  -1.606
REMARK UNBOUND:                -0.951
REMARK  Name = 
REMARK  9 active torsions:
REMARK  status: ('A' for Active; 'I' for Inactive)
REMARK    1  A    between atoms: N_1  and  C_2
REMARK    2  A    between atoms: C_2  and  N_3
REMARK    3  A    between atoms: C_2  and  C_20
REMARK    4  A    between atoms: N_3  and  C_4
REMARK    5  A    between atoms: C_4  and  C_5
REMARK    6  A    between atoms: C_8  and  C_9
REMARK    7  A    between atoms: C_9  and  N_10
REMARK    8  A    between atoms: N_10  and  C_11
REMARK    9  A    between atoms: C_11  and  C_12
REMARK                            x       y       z     vdW  Elec       q    Type
REMARK                         _______ _______ _______ _____ _____    ______ ____
ROOT
ATOM      1  N   UNL     1      47.242   7.517  13.969  0.00  0.00    +0.000 NA
ATOM      2  H   UNL     1      46.993   7.156  14.895  0.00  0.00    +0.000 HD
ENDROOT
BRANCH   1   3
ATOM      3  C   UNL     1      47.205   6.379  13.074  0.00  0.00    +0.000 C 
BRANCH   3   4
ATOM      4  C   UNL     1      45.801   6.203  12.527  0.00  0.00    +0.000 A 
ATOM      5  C   UNL     1      44.986   7.212  12.025  0.00  0.00    +0.000 A 
ATOM      6  S   UNL     1      43.500   6.658  11.395  0.00  0.00    +0.000 S 
ATOM      7  C   UNL     1      43.889   5.042  11.753  0.00  0.00    +0.000 A 
ATOM      8  N   UNL     1      43.049   4.023  11.430  0.00  0.00    +0.000 NA
ATOM      9  C   UNL     1      43.492   2.854  11.750  0.00  0.00    +0.000 A 
ATOM     10  N   UNL     1      44.685   2.607  12.386  0.00  0.00    +0.000 N 
ATOM     11  C   UNL     1      45.547   3.610  12.775  0.00  0.00    +0.000 A 
ATOM     12  O   UNL     1      46.568   3.384  13.418  0.00  0.00    +0.000 OA
ATOM     13  C   UNL     1      45.115   4.939  12.383  0.00  0.00    +0.000 A 
ATOM     14  H   UNL     1      44.950   1.666  12.635  0.00  0.00    +0.000 HD
ENDBRANCH   3   4
BRANCH   3  15
ATOM     15  N   UNL     1      48.077   6.700  11.969  0.00  0.00    +0.000 NA
ATOM     16  H   UNL     1      47.748   6.224  11.138  0.00  0.00    +0.000 HD
ATOM     17  H   UNL     1      48.967   6.265  12.207  0.00  0.00    +0.000 HD
ENDBRANCH   3  15
ENDBRANCH   1   3
BRANCH   1  18
ATOM     18  C   UNL     1      48.580   8.101  14.107  0.00  0.00    +0.000 C 
BRANCH  18  19
ATOM     19  C   UNL     1      49.228   7.772  15.433  0.00  0.00    +0.000 A 
ATOM     20  C   UNL     1      48.616   8.117  16.645  0.00  0.00    +0.000 A 
ATOM     21  C   UNL     1      49.206   7.766  17.862  0.00  0.00    +0.000 A 
ATOM     22  C   UNL     1      50.412   7.050  17.897  0.00  0.00    +0.000 A 
ATOM     23  C   UNL     1      51.026   6.707  16.686  0.00  0.00    +0.000 A 
ATOM     24  C   UNL     1      50.441   7.068  15.470  0.00  0.00    +0.000 A 
BRANCH  22  25
ATOM     25  C   UNL     1      51.047   6.674  19.215  0.00  0.00    +0.000 C 
BRANCH  25  26
ATOM     26  N   UNL     1      51.211   5.226  19.325  0.00  0.00    +0.000 NA
ATOM     27  H   UNL     1      51.787   5.021  20.143  0.00  0.00    +0.000 HD
BRANCH  26  28
ATOM     28  C   UNL     1      49.922   4.555  19.464  0.00  0.00    +0.000 C 
BRANCH  28  29
ATOM     29  C   UNL     1      49.661   3.643  18.291  0.00  0.00    +0.000 A 
ATOM     30  C   UNL     1      48.439   3.670  17.615  0.00  0.00    +0.000 A 
ATOM     31  C   UNL     1      48.252   2.809  16.544  0.00  0.00    +0.000 A 
ATOM     32  N   UNL     1      49.184   1.937  16.105  0.00  0.00    +0.000 NA
ATOM     33  C   UNL     1      50.359   1.928  16.773  0.00  0.00    +0.000 A 
ATOM     34  C   UNL     1      50.642   2.748  17.850  0.00  0.00    +0.000 A 
ENDBRANCH  28  29
ENDBRANCH  26  28
ENDBRANCH  25  26
ENDBRANCH  22  25
ENDBRANCH  18  19
ENDBRANCH   1  18
TORSDOF 9
ENDMDL
MODEL 8
REMARK VINA RESULT:    -6.270      5.656      8.372
REMARK INTER + INTRA:         -10.337
REMARK INTER:                  -9.132
REMARK INTRA:                  -1.205
REMARK UNBOUND:                -0.951
REMARK  Name = 
REMARK  9 active torsions:
REMARK  status: ('A' for Active; 'I' for Inactive)
REMARK    1  A    between atoms: N_1  and  C_2
REMARK    2  A    between atoms: C_2  and  N_3
REMARK    3  A    between atoms: C_2  and  C_20
REMARK    4  A    between atoms: N_3  and  C_4
REMARK    5  A    between atoms: C_4  and  C_5
REMARK    6  A    between atoms: C_8  and  C_9
REMARK    7  A    between atoms: C_9  and  N_10
REMARK    8  A    between atoms: N_10  and  C_11
REMARK    9  A    between atoms: C_11  and  C_12
REMARK                            x       y       z     vdW  Elec       q    Type
REMARK                         _______ _______ _______ _____ _____    ______ ____
ROOT
ATOM      1  N   UNL     1      46.333   7.035  13.121  0.00  0.00    +0.000 NA
ATOM      2  H   UNL     1      45.765   6.643  13.879  0.00  0.00    +0.000 HD
ENDROOT
BRANCH   1   3
ATOM      3  C   UNL     1      45.532   6.914  11.921  0.00  0.00    +0.000 C 
BRANCH   3   4
ATOM      4  C   UNL     1      44.920   5.527  11.851  0.00  0.00    +0.000 A 
ATOM      5  C   UNL     1      44.211   4.894  12.867  0.00  0.00    +0.000 A 
ATOM      6  S   UNL     1      43.569   3.376  12.426  0.00  0.00    +0.000 S 
ATOM      7  C   UNL     1      44.199   3.507  10.851  0.00  0.00    +0.000 A 
ATOM      8  N   UNL     1      43.979   2.544   9.918  0.00  0.00    +0.000 NA
ATOM      9  C   UNL     1      44.506   2.795   8.767  0.00  0.00    +0.000 A 
ATOM     10  N   UNL     1      45.256   3.906   8.467  0.00  0.00    +0.000 N 
ATOM     11  C   UNL     1      45.546   4.885   9.393  0.00  0.00    +0.000 A 
ATOM     12  O   UNL     1      46.288   5.829   9.138  0.00  0.00    +0.000 OA
ATOM     13  C   UNL     1      44.924   4.672  10.686  0.00  0.00    +0.000 A 
ATOM     14  H   UNL     1      45.666   4.019   7.552  0.00  0.00    +0.000 HD
ENDBRANCH   3   4
BRANCH   3  15
ATOM     15  N   UNL     1      44.457   7.870  12.049  0.00  0.00    +0.000 NA
ATOM     16  H   UNL     1      44.251   8.007  13.030  0.00  0.00    +0.000 HD
ATOM     17  H   UNL     1      43.645   7.398  11.655  0.00  0.00    +0.000 HD
ENDBRANCH   3  15
ENDBRANCH   1   3
BRANCH   1  18
ATOM     18  C   UNL     1      47.562   6.236  13.080  0.00  0.00    +0.000 C 
BRANCH  18  19
ATOM     19  C   UNL     1      48.799   7.075  12.852  0.00  0.00    +0.000 A 
ATOM     20  C   UNL     1      49.611   7.474  13.922  0.00  0.00    +0.000 A 
ATOM     21  C   UNL     1      50.775   8.212  13.691  0.00  0.00    +0.000 A 
ATOM     22  C   UNL     1      51.162   8.556  12.387  0.00  0.00    +0.000 A 
ATOM     23  C   UNL     1      50.350   8.160  11.317  0.00  0.00    +0.000 A 
ATOM     24  C   UNL     1      49.181   7.431  11.551  0.00  0.00    +0.000 A 
BRANCH  22  25
ATOM     25  C   UNL     1      52.420   9.355  12.142  0.00  0.00    +0.000 C 
BRANCH  25  26
ATOM     26  N   UNL     1      53.392   8.582  11.370  0.00  0.00    +0.000 NA
ATOM     27  H   UNL     1      52.984   7.676  11.140  0.00  0.00    +0.000 HD
BRANCH  26  28
ATOM     28  C   UNL     1      53.759   9.273  10.138  0.00  0.00    +0.000 C 
BRANCH  28  29
ATOM     29  C   UNL     1      53.315   8.487   8.929  0.00  0.00    +0.000 A 
ATOM     30  C   UNL     1      53.116   7.106   9.000  0.00  0.00    +0.000 A 
ATOM     31  C   UNL     1      52.709   6.432   7.859  0.00  0.00    +0.000 A 
ATOM     32  N   UNL     1      52.487   7.030   6.669  0.00  0.00    +0.000 NA
ATOM     33  C   UNL     1      52.686   8.366   6.622  0.00  0.00    +0.000 A 
ATOM     34  C   UNL     1      53.089   9.126   7.705  0.00  0.00    +0.000 A 
ENDBRANCH  28  29
ENDBRANCH  26  28
ENDBRANCH  25  26
ENDBRANCH  22  25
ENDBRANCH  18  19
ENDBRANCH   1  18
TORSDOF 9
ENDMDL
