MODEL 1
REMARK VINA RESULT:    -9.398      0.000      0.000
REMARK INTER + INTRA:         -13.477
REMARK INTER:                 -12.695
REMARK INTRA:                  -0.782
REMARK UNBOUND:                -0.782
REMARK  Name = 
REMARK  6 active torsions:
REMARK  status: ('A' for Active; 'I' for Inactive)
REMARK    1  A    between atoms: C_2  and  C_4
REMARK    2  A    between atoms: N_8  and  C_9
REMARK    3  A    between atoms: C_9  and  C_10
REMARK    4  A    between atoms: C_10  and  C_13
REMARK    5  A    between atoms: C_17  and  N_18
REMARK    6  A    between atoms: N_18  and  C_19
REMARK                            x       y       z     vdW  Elec       q    Type
REMARK                         _______ _______ _______ _____ _____    ______ ____
ROOT
ATOM      1  C   UNL     1      43.476   5.770  11.931  0.00  0.00    +0.000 C 
ATOM      2  F   UNL     1      43.089   6.935  11.320  0.00  0.00    +0.000 F 
ATOM      3  F   UNL     1      42.593   5.628  12.969  0.00  0.00    +0.000 F 
ENDROOT
BRANCH   1   4
ATOM      4  C   UNL     1      44.896   5.843  12.435  0.00  0.00    +0.000 A 
ATOM      5  C   UNL     1      45.785   6.810  11.952  0.00  0.00    +0.000 A 
ATOM      6  C   UNL     1      47.104   6.844  12.405  0.00  0.00    +0.000 A 
ATOM      7  C   UNL     1      47.552   5.904  13.338  0.00  0.00    +0.000 A 
ATOM      8  C   UNL     1      46.676   4.958  13.875  0.00  0.00    +0.000 A 
ATOM      9  C   UNL     1      45.349   4.950  13.411  0.00  0.00    +0.000 A 
ATOM     10  F   UNL     1      44.501   4.031  13.902  0.00  0.00    +0.000 F 
BRANCH   8  11
ATOM     11  N   UNL     1      47.117   3.943  14.746  0.00  0.00    +0.000 N 
ATOM     12  H   UNL     1      47.259   3.040  14.301  0.00  0.00    +0.000 HD
BRANCH  11  13
ATOM     13  C   UNL     1      47.202   3.993  16.172  0.00  0.00    +0.000 C 
ATOM     14  C   UNL     1      48.285   4.965  16.689  0.00  0.00    +0.000 C 
ATOM     15  N   UNL     1      48.659   3.950  17.708  0.00  0.00    +0.000 NA
ATOM     16  C   UNL     1      48.084   2.906  16.817  0.00  0.00    +0.000 C 
ATOM     17  H   UNL     1      48.143   4.058  18.582  0.00  0.00    +0.000 HD
ENDBRANCH  11  13
ENDBRANCH   8  11
ENDBRANCH   1   4
BRANCH   1  18
ATOM     18  C   UNL     1      43.208   4.607  10.936  0.00  0.00    +0.000 C 
BRANCH  18  23
ATOM     19  C   UNL     1      46.429   2.302   7.716  0.00  0.00    +0.000 A 
ATOM     20  C   UNL     1      45.582   1.758   8.673  0.00  0.00    +0.000 A 
ATOM     21  C   UNL     1      44.676   2.590   9.331  0.00  0.00    +0.000 A 
ATOM     22  C   UNL     1      44.646   3.952   9.039  0.00  0.00    +0.000 A 
ATOM     23  N   UNL     1      43.716   4.826   9.575  0.00  0.00    +0.000 N 
ATOM     24  N   UNL     1      45.495   4.495   8.147  0.00  0.00    +0.000 NA
ATOM     25  C   UNL     1      46.369   3.671   7.507  0.00  0.00    +0.000 A 
ATOM     26  H   UNL     1      44.003   5.775   9.335  0.00  0.00    +0.000 HD
BRANCH  19  28
ATOM     27  N   UNL     1      48.550   2.076   6.561  0.00  0.00    +0.000 N 
ATOM     28  C   UNL     1      47.368   1.486   6.919  0.00  0.00    +0.000 C 
ATOM     29  O   UNL     1      47.123   0.323   6.629  0.00  0.00    +0.000 OA
ATOM     30  H   UNL     1      49.238   1.472   6.127  0.00  0.00    +0.000 HD
ATOM     31  H   UNL     1      48.890   2.919   7.001  0.00  0.00    +0.000 HD
ENDBRANCH  19  28
ENDBRANCH  18  23
ENDBRANCH   1  18
TORSDOF 6
ENDMDL
MODEL 2
REMARK VINA RESULT:    -8.774      2.057      3.248
REMARK INTER + INTRA:         -12.633
REMARK INTER:                 -11.852
REMARK INTRA:                  -0.781
REMARK UNBOUND:                -0.782
REMARK  Name = 
REMARK  6 active torsions:
REMARK  status: ('A' for Active; 'I' for Inactive)
REMARK    1  A    between atoms: C_2  and  C_4
REMARK    2  A    between atoms: N_8  and  C_9
REMARK    3  A    between atoms: C_9  and  C_10
REMARK    4  A    between atoms: C_10  and  C_13
REMARK    5  A    between atoms: C_17  and  N_18
REMARK    6  A    between atoms: N_18  and  C_19
REMARK                            x       y       z     vdW  Elec       q    Type
REMARK                         _______ _______ _______ _____ _____    ______ ____
ROOT
ATOM      1  C   UNL     1      43.460   5.415  12.209  0.00  0.00    +0.000 C 
ATOM      2  F   UNL     1      42.935   6.612  11.793  0.00  0.00    +0.000 F 
ATOM      3  F   UNL     1      42.689   5.071  13.288  0.00  0.00    +0.000 F 
ENDROOT
BRANCH   1   4
ATOM      4  C   UNL     1      44.912   5.540  12.599  0.00  0.00    +0.000 A 
ATOM      5  C   UNL     1      45.465   4.726  13.594  0.00  0.00    +0.000 A 
ATOM      6  C   UNL     1      46.801   4.876  13.965  0.00  0.00    +0.000 A 
ATOM      7  C   UNL     1      47.596   5.849  13.353  0.00  0.00    +0.000 A 
ATOM      8  C   UNL     1      47.087   6.643  12.322  0.00  0.00    +0.000 A 
ATOM      9  C   UNL     1      45.741   6.467  11.958  0.00  0.00    +0.000 A 
ATOM     10  F   UNL     1      45.231   7.239  10.985  0.00  0.00    +0.000 F 
BRANCH   8  11
ATOM     11  N   UNL     1      47.833   7.690  11.749  0.00  0.00    +0.000 N 
ATOM     12  H   UNL     1      47.575   7.916  10.792  0.00  0.00    +0.000 HD
BRANCH  11  13
ATOM     13  C   UNL     1      49.000   8.324  12.281  0.00  0.00    +0.000 C 
ATOM     14  C   UNL     1      48.693   9.322  13.419  0.00  0.00    +0.000 C 
ATOM     15  N   UNL     1      49.688  10.251  12.824  0.00  0.00    +0.000 NA
ATOM     16  C   UNL     1      49.475   9.574  11.516  0.00  0.00    +0.000 C 
ATOM     17  H   UNL     1      50.629  10.114  13.197  0.00  0.00    +0.000 HD
ENDBRANCH  11  13
ENDBRANCH   8  11
ENDBRANCH   1   4
BRANCH   1  18
ATOM     18  C   UNL     1      43.183   4.370  11.094  0.00  0.00    +0.000 C 
BRANCH  18  23
ATOM     19  C   UNL     1      46.514   2.497   7.709  0.00  0.00    +0.000 A 
ATOM     20  C   UNL     1      45.683   1.835   8.603  0.00  0.00    +0.000 A 
ATOM     21  C   UNL     1      44.741   2.567   9.325  0.00  0.00    +0.000 A 
ATOM     22  C   UNL     1      44.659   3.948   9.160  0.00  0.00    +0.000 A 
ATOM     23  N   UNL     1      43.692   4.732   9.763  0.00  0.00    +0.000 N 
ATOM     24  N   UNL     1      45.491   4.603   8.330  0.00  0.00    +0.000 NA
ATOM     25  C   UNL     1      46.401   3.876   7.626  0.00  0.00    +0.000 A 
ATOM     26  H   UNL     1      43.942   5.710   9.615  0.00  0.00    +0.000 HD
BRANCH  19  28
ATOM     27  N   UNL     1      48.565   2.521   6.413  0.00  0.00    +0.000 N 
ATOM     28  C   UNL     1      47.491   1.795   6.850  0.00  0.00    +0.000 C 
ATOM     29  O   UNL     1      47.370   0.609   6.577  0.00  0.00    +0.000 OA
ATOM     30  H   UNL     1      49.291   2.002   5.933  0.00  0.00    +0.000 HD
ATOM     31  H   UNL     1      48.828   3.403   6.829  0.00  0.00    +0.000 HD
ENDBRANCH  19  28
ENDBRANCH  18  23
ENDBRANCH   1  18
TORSDOF 6
ENDMDL
MODEL 3
REMARK VINA RESULT:    -8.742      1.452      1.758
REMARK INTER + INTRA:         -12.591
REMARK INTER:                 -11.942
REMARK INTRA:                  -0.649
REMARK UNBOUND:                -0.782
REMARK  Name = 
REMARK  6 active torsions:
REMARK  status: ('A' for Active; 'I' for Inactive)
REMARK    1  A    between atoms: C_2  and  C_4
REMARK    2  A    between atoms: N_8  and  C_9
REMARK    3  A    between atoms: C_9  and  C_10
REMARK    4  A    between atoms: C_10  and  C_13
REMARK    5  A    between atoms: C_17  and  N_18
REMARK    6  A    between atoms: N_18  and  C_19
REMARK                            x       y       z     vdW  Elec       q    Type
REMARK                         _______ _______ _______ _____ _____    ______ ____
ROOT
ATOM      1  C   UNL     1      42.997   5.512  12.139  0.00  0.00    +0.000 C 
ATOM      2  F   UNL     1      41.869   6.204  11.777  0.00  0.00    +0.000 F 
ATOM      3  F   UNL     1      42.672   4.954  13.348  0.00  0.00    +0.000 F 
ENDROOT
BRANCH   1   4
ATOM      4  C   UNL     1      44.197   6.416  12.264  0.00  0.00    +0.000 A 
ATOM      5  C   UNL     1      44.249   7.645  11.595  0.00  0.00    +0.000 A 
ATOM      6  C   UNL     1      45.381   8.455  11.697  0.00  0.00    +0.000 A 
ATOM      7  C   UNL     1      46.476   8.041  12.459  0.00  0.00    +0.000 A 
ATOM      8  C   UNL     1      46.435   6.844  13.178  0.00  0.00    +0.000 A 
ATOM      9  C   UNL     1      45.281   6.049  13.069  0.00  0.00    +0.000 A 
ATOM     10  F   UNL     1      45.235   4.885  13.737  0.00  0.00    +0.000 F 
BRANCH   8  11
ATOM     11  N   UNL     1      47.554   6.357  13.881  0.00  0.00    +0.000 N 
ATOM     12  H   UNL     1      47.779   5.384  13.689  0.00  0.00    +0.000 HD
BRANCH  11  13
ATOM     13  C   UNL     1      48.269   7.001  14.938  0.00  0.00    +0.000 C 
ATOM     14  C   UNL     1      49.783   7.131  14.665  0.00  0.00    +0.000 C 
ATOM     15  N   UNL     1      50.034   6.755  16.081  0.00  0.00    +0.000 NA
ATOM     16  C   UNL     1      48.708   6.079  16.091  0.00  0.00    +0.000 C 
ATOM     17  H   UNL     1      50.075   7.563  16.703  0.00  0.00    +0.000 HD
ENDBRANCH  11  13
ENDBRANCH   8  11
ENDBRANCH   1   4
BRANCH   1  18
ATOM     18  C   UNL     1      43.175   4.346  11.128  0.00  0.00    +0.000 C 
BRANCH  18  23
ATOM     19  C   UNL     1      46.494   2.519   7.706  0.00  0.00    +0.000 A 
ATOM     20  C   UNL     1      45.645   1.845   8.574  0.00  0.00    +0.000 A 
ATOM     21  C   UNL     1      44.711   2.571   9.313  0.00  0.00    +0.000 A 
ATOM     22  C   UNL     1      44.655   3.958   9.190  0.00  0.00    +0.000 A 
ATOM     23  N   UNL     1      43.698   4.740   9.812  0.00  0.00    +0.000 N 
ATOM     24  N   UNL     1      45.505   4.623   8.386  0.00  0.00    +0.000 NA
ATOM     25  C   UNL     1      46.406   3.901   7.665  0.00  0.00    +0.000 A 
ATOM     26  H   UNL     1      43.967   5.717   9.695  0.00  0.00    +0.000 HD
BRANCH  19  28
ATOM     27  N   UNL     1      48.524   2.561   6.380  0.00  0.00    +0.000 N 
ATOM     28  C   UNL     1      47.463   1.826   6.832  0.00  0.00    +0.000 C 
ATOM     29  O   UNL     1      47.347   0.639   6.558  0.00  0.00    +0.000 OA
ATOM     30  H   UNL     1      49.247   2.049   5.889  0.00  0.00    +0.000 HD
ATOM     31  H   UNL     1      48.787   3.444   6.795  0.00  0.00    +0.000 HD
ENDBRANCH  19  28
ENDBRANCH  18  23
ENDBRANCH   1  18
TORSDOF 6
ENDMDL
MODEL 4
REMARK VINA RESULT:    -8.742      2.413      4.004
REMARK INTER + INTRA:         -12.591
REMARK INTER:                 -11.638
REMARK INTRA:                  -0.953
REMARK UNBOUND:                -0.782
REMARK  Name = 
REMARK  6 active torsions:
REMARK  status: ('A' for Active; 'I' for Inactive)
REMARK    1  A    between atoms: C_2  and  C_4
REMARK    2  A    between atoms: N_8  and  C_9
REMARK    3  A    between atoms: C_9  and  C_10
REMARK    4  A    between atoms: C_10  and  C_13
REMARK    5  A    between atoms: C_17  and  N_18
REMARK    6  A    between atoms: N_18  and  C_19
REMARK                            x       y       z     vdW  Elec       q    Type
REMARK                         _______ _______ _______ _____ _____    ______ ____
ROOT
ATOM      1  C   UNL     1      43.449   4.508  12.455  0.00  0.00    +0.000 C 
ATOM      2  F   UNL     1      42.408   5.396  12.557  0.00  0.00    +0.000 F 
ATOM      3  F   UNL     1      43.169   3.557  13.402  0.00  0.00    +0.000 F 
ENDROOT
BRANCH   1   4
ATOM      4  C   UNL     1      44.779   5.165  12.725  0.00  0.00    +0.000 A 
ATOM      5  C   UNL     1      45.729   4.559  13.556  0.00  0.00    +0.000 A 
ATOM      6  C   UNL     1      46.942   5.196  13.820  0.00  0.00    +0.000 A 
ATOM      7  C   UNL     1      47.214   6.449  13.266  0.00  0.00    +0.000 A 
ATOM      8  C   UNL     1      46.308   7.057  12.394  0.00  0.00    +0.000 A 
ATOM      9  C   UNL     1      45.097   6.392  12.134  0.00  0.00    +0.000 A 
ATOM     10  F   UNL     1      44.206   6.975  11.315  0.00  0.00    +0.000 F 
BRANCH   8  11
ATOM     11  N   UNL     1      46.513   8.356  11.892  0.00  0.00    +0.000 N 
ATOM     12  H   UNL     1      47.106   8.399  11.066  0.00  0.00    +0.000 HD
BRANCH  11  13
ATOM     13  C   UNL     1      46.146   9.596  12.503  0.00  0.00    +0.000 C 
ATOM     14  C   UNL     1      44.723  10.067  12.129  0.00  0.00    +0.000 C 
ATOM     15  N   UNL     1      45.256  11.448  11.994  0.00  0.00    +0.000 NA
ATOM     16  C   UNL     1      46.601  10.860  11.749  0.00  0.00    +0.000 C 
ATOM     17  H   UNL     1      45.204  11.979  12.865  0.00  0.00    +0.000 HD
ENDBRANCH  11  13
ENDBRANCH   8  11
ENDBRANCH   1   4
BRANCH   1  18
ATOM     18  C   UNL     1      43.343   3.819  11.067  0.00  0.00    +0.000 C 
BRANCH  18  23
ATOM     19  C   UNL     1      46.606   2.613   7.331  0.00  0.00    +0.000 A 
ATOM     20  C   UNL     1      46.154   3.856   7.754  0.00  0.00    +0.000 A 
ATOM     21  C   UNL     1      45.374   3.940   8.907  0.00  0.00    +0.000 A 
ATOM     22  C   UNL     1      45.042   2.781   9.606  0.00  0.00    +0.000 A 
ATOM     23  N   UNL     1      44.356   2.787  10.808  0.00  0.00    +0.000 N 
ATOM     24  N   UNL     1      45.437   1.569   9.178  0.00  0.00    +0.000 NA
ATOM     25  C   UNL     1      46.204   1.502   8.054  0.00  0.00    +0.000 A 
ATOM     26  H   UNL     1      44.101   1.823  11.028  0.00  0.00    +0.000 HD
BRANCH  19  28
ATOM     27  N   UNL     1      47.346   3.324   5.133  0.00  0.00    +0.000 N 
ATOM     28  C   UNL     1      47.495   2.437   6.164  0.00  0.00    +0.000 C 
ATOM     29  O   UNL     1      48.355   1.566   6.135  0.00  0.00    +0.000 OA
ATOM     30  H   UNL     1      48.040   3.276   4.397  0.00  0.00    +0.000 HD
ATOM     31  H   UNL     1      46.845   4.195   5.237  0.00  0.00    +0.000 HD
ENDBRANCH  19  28
ENDBRANCH  18  23
ENDBRANCH   1  18
TORSDOF 6
ENDMDL
MODEL 5
REMARK VINA RESULT:    -8.336      3.158      7.991
REMARK INTER + INTRA:         -12.042
REMARK INTER:                 -11.590
REMARK INTRA:                  -0.452
REMARK UNBOUND:                -0.782
REMARK  Name = 
REMARK  6 active torsions:
REMARK  status: ('A' for Active; 'I' for Inactive)
REMARK    1  A    between atoms: C_2  and  C_4
REMARK    2  A    between atoms: N_8  and  C_9
REMARK    3  A    between atoms: C_9  and  C_10
REMARK    4  A    between atoms: C_10  and  C_13
REMARK    5  A    between atoms: C_17  and  N_18
REMARK    6  A    between atoms: N_18  and  C_19
REMARK                            x       y       z     vdW  Elec       q    Type
REMARK                         _______ _______ _______ _____ _____    ______ ____
ROOT
ATOM      1  C   UNL     1      45.666   5.923  11.471  0.00  0.00    +0.000 C 
ATOM      2  F   UNL     1      44.789   6.969  11.333  0.00  0.00    +0.000 F 
ATOM      3  F   UNL     1      46.855   6.423  11.004  0.00  0.00    +0.000 F 
ENDROOT
BRANCH   1   4
ATOM      4  C   UNL     1      45.236   4.717  10.674  0.00  0.00    +0.000 A 
ATOM      5  C   UNL     1      44.449   3.713  11.252  0.00  0.00    +0.000 A 
ATOM      6  C   UNL     1      44.087   2.588  10.511  0.00  0.00    +0.000 A 
ATOM      7  C   UNL     1      44.516   2.449   9.188  0.00  0.00    +0.000 A 
ATOM      8  C   UNL     1      45.260   3.455   8.569  0.00  0.00    +0.000 A 
ATOM      9  C   UNL     1      45.604   4.585   9.332  0.00  0.00    +0.000 A 
ATOM     10  F   UNL     1      46.339   5.551   8.756  0.00  0.00    +0.000 F 
BRANCH   8  11
ATOM     11  N   UNL     1      45.782   3.305   7.270  0.00  0.00    +0.000 N 
ATOM     12  H   UNL     1      45.077   3.216   6.541  0.00  0.00    +0.000 HD
BRANCH  11  13
ATOM     13  C   UNL     1      47.144   3.083   6.897  0.00  0.00    +0.000 C 
ATOM     14  C   UNL     1      47.339   2.866   5.381  0.00  0.00    +0.000 C 
ATOM     15  N   UNL     1      48.299   1.777   5.696  0.00  0.00    +0.000 NA
ATOM     16  C   UNL     1      47.628   1.625   7.015  0.00  0.00    +0.000 C 
ATOM     17  H   UNL     1      49.262   2.110   5.773  0.00  0.00    +0.000 HD
ENDBRANCH  11  13
ENDBRANCH   8  11
ENDBRANCH   1   4
BRANCH   1  18
ATOM     18  C   UNL     1      45.844   5.658  12.991  0.00  0.00    +0.000 C 
BRANCH  18  23
ATOM     19  C   UNL     1      48.426   4.489  17.236  0.00  0.00    +0.000 A 
ATOM     20  C   UNL     1      47.353   3.842  16.638  0.00  0.00    +0.000 A 
ATOM     21  C   UNL     1      46.912   4.271  15.386  0.00  0.00    +0.000 A 
ATOM     22  C   UNL     1      47.536   5.350  14.763  0.00  0.00    +0.000 A 
ATOM     23  N   UNL     1      47.224   5.775  13.484  0.00  0.00    +0.000 N 
ATOM     24  N   UNL     1      48.546   6.011  15.356  0.00  0.00    +0.000 NA
ATOM     25  C   UNL     1      48.970   5.577  16.575  0.00  0.00    +0.000 A 
ATOM     26  H   UNL     1      47.698   6.665  13.324  0.00  0.00    +0.000 HD
BRANCH  19  28
ATOM     27  N   UNL     1      48.353   3.058  19.194  0.00  0.00    +0.000 N 
ATOM     28  C   UNL     1      49.006   4.058  18.525  0.00  0.00    +0.000 C 
ATOM     29  O   UNL     1      50.044   4.540  18.957  0.00  0.00    +0.000 OA
ATOM     30  H   UNL     1      48.823   2.683  20.009  0.00  0.00    +0.000 HD
ATOM     31  H   UNL     1      47.664   2.469  18.748  0.00  0.00    +0.000 HD
ENDBRANCH  19  28
ENDBRANCH  18  23
ENDBRANCH   1  18
TORSDOF 6
ENDMDL
MODEL 6
REMARK VINA RESULT:    -7.431      3.843      7.841
REMARK INTER + INTRA:         -10.819
REMARK INTER:                 -10.364
REMARK INTRA:                  -0.455
REMARK UNBOUND:                -0.782
REMARK  Name = 
REMARK  6 active torsions:
REMARK  status: ('A' for Active; 'I' for Inactive)
REMARK    1  A    between atoms: C_2  and  C_4
REMARK    2  A    between atoms: N_8  and  C_9
REMARK    3  A    between atoms: C_9  and  C_10
REMARK    4  A    between atoms: C_10  and  C_13
REMARK    5  A    between atoms: C_17  and  N_18
REMARK    6  A    between atoms: N_18  and  C_19
REMARK                            x       y       z     vdW  Elec       q    Type
REMARK                         _______ _______ _______ _____ _____    ______ ____
ROOT
ATOM      1  C   UNL     1      45.593   6.088  11.331  0.00  0.00    +0.000 C 
ATOM      2  F   UNL     1      44.901   7.189  10.894  0.00  0.00    +0.000 F 
ATOM      3  F   UNL     1      46.904   6.394  11.072  0.00  0.00    +0.000 F 
ENDROOT
BRANCH   1   4
ATOM      4  C   UNL     1      45.176   4.834  10.603  0.00  0.00    +0.000 A 
ATOM      5  C   UNL     1      44.389   3.862  11.232  0.00  0.00    +0.000 A 
ATOM      6  C   UNL     1      44.039   2.693  10.555  0.00  0.00    +0.000 A 
ATOM      7  C   UNL     1      44.480   2.479   9.246  0.00  0.00    +0.000 A 
ATOM      8  C   UNL     1      45.225   3.452   8.575  0.00  0.00    +0.000 A 
ATOM      9  C   UNL     1      45.557   4.626   9.274  0.00  0.00    +0.000 A 
ATOM     10  F   UNL     1      46.292   5.561   8.649  0.00  0.00    +0.000 F 
BRANCH   8  11
ATOM     11  N   UNL     1      45.760   3.228   7.292  0.00  0.00    +0.000 N 
ATOM     12  H   UNL     1      45.063   3.058   6.570  0.00  0.00    +0.000 HD
BRANCH  11  13
ATOM     13  C   UNL     1      47.131   3.034   6.940  0.00  0.00    +0.000 C 
ATOM     14  C   UNL     1      47.350   2.792   5.430  0.00  0.00    +0.000 C 
ATOM     15  N   UNL     1      48.335   1.735   5.779  0.00  0.00    +0.000 NA
ATOM     16  C   UNL     1      47.652   1.592   7.094  0.00  0.00    +0.000 C 
ATOM     17  H   UNL     1      49.287   2.094   5.860  0.00  0.00    +0.000 HD
ENDBRANCH  11  13
ENDBRANCH   8  11
ENDBRANCH   1   4
BRANCH   1  18
ATOM     18  C   UNL     1      45.433   6.016  12.874  0.00  0.00    +0.000 C 
BRANCH  18  23
ATOM     19  C   UNL     1      49.462   8.924  14.046  0.00  0.00    +0.000 A 
ATOM     20  C   UNL     1      48.128   9.273  13.879  0.00  0.00    +0.000 A 
ATOM     21  C   UNL     1      47.178   8.266  13.710  0.00  0.00    +0.000 A 
ATOM     22  C   UNL     1      47.577   6.931  13.688  0.00  0.00    +0.000 A 
ATOM     23  N   UNL     1      46.690   5.871  13.622  0.00  0.00    +0.000 N 
ATOM     24  N   UNL     1      48.873   6.587  13.803  0.00  0.00    +0.000 NA
ATOM     25  C   UNL     1      49.788   7.579  13.975  0.00  0.00    +0.000 A 
ATOM     26  H   UNL     1      47.228   5.020  13.460  0.00  0.00    +0.000 HD
BRANCH  19  28
ATOM     27  N   UNL     1      51.085  10.521  13.211  0.00  0.00    +0.000 N 
ATOM     28  C   UNL     1      50.525   9.917  14.303  0.00  0.00    +0.000 C 
ATOM     29  O   UNL     1      50.861  10.220  15.440  0.00  0.00    +0.000 OA
ATOM     30  H   UNL     1      51.719  11.288  13.399  0.00  0.00    +0.000 HD
ATOM     31  H   UNL     1      50.655  10.493  12.297  0.00  0.00    +0.000 HD
ENDBRANCH  19  28
ENDBRANCH  18  23
ENDBRANCH   1  18
TORSDOF 6
ENDMDL
MODEL 7
REMARK VINA RESULT:    -7.141      3.198      7.631
REMARK INTER + INTRA:         -10.427
REMARK INTER:                  -9.639
REMARK INTRA:                  -0.788
REMARK UNBOUND:                -0.782
REMARK  Name = 
REMARK  6 active torsions:
REMARK  status: ('A' for Active; 'I' for Inactive)
REMARK    1  A    between atoms: C_2  and  C_4
REMARK    2  A    between atoms: N_8  and  C_9
REMARK    3  A    between atoms: C_9  and  C_10
REMARK    4  A    between atoms: C_10  and  C_13
REMARK    5  A    between atoms: C_17  and  N_18
REMARK    6  A    between atoms: N_18  and  C_19
REMARK                            x       y       z     vdW  Elec       q    Type
REMARK                         _______ _______ _______ _____ _____    ______ ____
ROOT
ATOM      1  C   UNL     1      46.191   6.541  11.729  0.00  0.00    +0.000 C 
ATOM      2  F   UNL     1      45.585   7.663  11.223  0.00  0.00    +0.000 F 
ATOM      3  F   UNL     1      47.452   6.574  11.194  0.00  0.00    +0.000 F 
ENDROOT
BRANCH   1   4
ATOM      4  C   UNL     1      45.466   5.280  11.331  0.00  0.00    +0.000 A 
ATOM      5  C   UNL     1      45.042   4.356  12.294  0.00  0.00    +0.000 A 
ATOM      6  C   UNL     1      44.401   3.179  11.907  0.00  0.00    +0.000 A 
ATOM      7  C   UNL     1      44.187   2.907  10.553  0.00  0.00    +0.000 A 
ATOM      8  C   UNL     1      44.553   3.832   9.572  0.00  0.00    +0.000 A 
ATOM      9  C   UNL     1      45.188   5.015   9.987  0.00  0.00    +0.000 A 
ATOM     10  F   UNL     1      45.567   5.904   9.053  0.00  0.00    +0.000 F 
BRANCH   8  11
ATOM     11  N   UNL     1      44.433   3.549   8.198  0.00  0.00    +0.000 N 
ATOM     12  H   UNL     1      43.504   3.709   7.816  0.00  0.00    +0.000 HD
BRANCH  11  13
ATOM     13  C   UNL     1      45.389   2.904   7.353  0.00  0.00    +0.000 C 
ATOM     14  C   UNL     1      46.269   1.874   8.094  0.00  0.00    +0.000 C 
ATOM     15  N   UNL     1      47.441   2.384   7.335  0.00  0.00    +0.000 NA
ATOM     16  C   UNL     1      46.712   3.668   7.154  0.00  0.00    +0.000 C 
ATOM     17  H   UNL     1      47.591   1.883   6.458  0.00  0.00    +0.000 HD
ENDBRANCH  11  13
ENDBRANCH   8  11
ENDBRANCH   1   4
BRANCH   1  18
ATOM     18  C   UNL     1      46.337   6.740  13.263  0.00  0.00    +0.000 C 
BRANCH  18  23
ATOM     19  C   UNL     1      48.590   4.219  17.088  0.00  0.00    +0.000 A 
ATOM     20  C   UNL     1      47.476   3.881  16.330  0.00  0.00    +0.000 A 
ATOM     21  C   UNL     1      47.139   4.666  15.228  0.00  0.00    +0.000 A 
ATOM     22  C   UNL     1      47.907   5.786  14.913  0.00  0.00    +0.000 A 
ATOM     23  N   UNL     1      47.699   6.559  13.785  0.00  0.00    +0.000 N 
ATOM     24  N   UNL     1      48.960   6.147  15.669  0.00  0.00    +0.000 NA
ATOM     25  C   UNL     1      49.281   5.367  16.737  0.00  0.00    +0.000 A 
ATOM     26  H   UNL     1      48.277   7.396  13.867  0.00  0.00    +0.000 HD
BRANCH  19  28
ATOM     27  N   UNL     1      50.063   2.508  17.974  0.00  0.00    +0.000 N 
ATOM     28  C   UNL     1      49.062   3.405  18.227  0.00  0.00    +0.000 C 
ATOM     29  O   UNL     1      48.610   3.554  19.355  0.00  0.00    +0.000 OA
ATOM     30  H   UNL     1      50.466   2.047  18.782  0.00  0.00    +0.000 HD
ATOM     31  H   UNL     1      50.628   2.548  17.138  0.00  0.00    +0.000 HD
ENDBRANCH  19  28
ENDBRANCH  18  23
ENDBRANCH   1  18
TORSDOF 6
ENDMDL
MODEL 8
REMARK VINA RESULT:    -6.893      3.268      4.594
REMARK INTER + INTRA:         -10.092
REMARK INTER:                  -9.009
REMARK INTRA:                  -1.084
REMARK UNBOUND:                -0.782
REMARK  Name = 
REMARK  6 active torsions:
REMARK  status: ('A' for Active; 'I' for Inactive)
REMARK    1  A    between atoms: C_2  and  C_4
REMARK    2  A    between atoms: N_8  and  C_9
REMARK    3  A    between atoms: C_9  and  C_10
REMARK    4  A    between atoms: C_10  and  C_13
REMARK    5  A    between atoms: C_17  and  N_18
REMARK    6  A    between atoms: N_18  and  C_19
REMARK                            x       y       z     vdW  Elec       q    Type
REMARK                         _______ _______ _______ _____ _____    ______ ____
ROOT
ATOM      1  C   UNL     1      47.740   8.696  13.444  0.00  0.00    +0.000 C 
ATOM      2  F   UNL     1      48.359   7.969  12.458  0.00  0.00    +0.000 F 
ATOM      3  F   UNL     1      48.044   9.997  13.138  0.00  0.00    +0.000 F 
ENDROOT
BRANCH   1   4
ATOM      4  C   UNL     1      48.247   8.330  14.817  0.00  0.00    +0.000 A 
ATOM      5  C   UNL     1      48.493   9.315  15.781  0.00  0.00    +0.000 A 
ATOM      6  C   UNL     1      48.991   8.962  17.036  0.00  0.00    +0.000 A 
ATOM      7  C   UNL     1      49.259   7.624  17.336  0.00  0.00    +0.000 A 
ATOM      8  C   UNL     1      48.977   6.614  16.413  0.00  0.00    +0.000 A 
ATOM      9  C   UNL     1      48.466   6.992  15.159  0.00  0.00    +0.000 A 
ATOM     10  F   UNL     1      48.211   6.035  14.252  0.00  0.00    +0.000 F 
BRANCH   8  11
ATOM     11  N   UNL     1      49.319   5.270  16.650  0.00  0.00    +0.000 N 
ATOM     12  H   UNL     1      50.106   4.933  16.100  0.00  0.00    +0.000 HD
BRANCH  11  13
ATOM     13  C   UNL     1      48.591   4.305  17.414  0.00  0.00    +0.000 C 
ATOM     14  C   UNL     1      47.844   3.270  16.544  0.00  0.00    +0.000 C 
ATOM     15  N   UNL     1      46.683   3.389  17.463  0.00  0.00    +0.000 NA
ATOM     16  C   UNL     1      47.177   4.740  17.844  0.00  0.00    +0.000 C 
ATOM     17  H   UNL     1      46.718   2.719  18.233  0.00  0.00    +0.000 HD
ENDBRANCH  11  13
ENDBRANCH   8  11
ENDBRANCH   1   4
BRANCH   1  18
ATOM     18  C   UNL     1      46.208   8.526  13.259  0.00  0.00    +0.000 C 
BRANCH  18  23
ATOM     19  C   UNL     1      44.403   4.144  11.362  0.00  0.00    +0.000 A 
ATOM     20  C   UNL     1      44.202   4.728  12.607  0.00  0.00    +0.000 A 
ATOM     21  C   UNL     1      44.682   6.017  12.839  0.00  0.00    +0.000 A 
ATOM     22  C   UNL     1      45.372   6.692  11.833  0.00  0.00    +0.000 A 
ATOM     23  N   UNL     1      45.794   8.004  11.949  0.00  0.00    +0.000 N 
ATOM     24  N   UNL     1      45.610   6.116  10.641  0.00  0.00    +0.000 NA
ATOM     25  C   UNL     1      45.130   4.861  10.426  0.00  0.00    +0.000 A 
ATOM     26  H   UNL     1      46.403   8.209  11.157  0.00  0.00    +0.000 HD
BRANCH  19  28
ATOM     27  N   UNL     1      44.473   2.163   9.964  0.00  0.00    +0.000 N 
ATOM     28  C   UNL     1      43.868   2.814  11.004  0.00  0.00    +0.000 C 
ATOM     29  O   UNL     1      42.955   2.297  11.634  0.00  0.00    +0.000 OA
ATOM     30  H   UNL     1      44.186   1.204   9.808  0.00  0.00    +0.000 HD
ATOM     31  H   UNL     1      45.378   2.436   9.607  0.00  0.00    +0.000 HD
ENDBRANCH  19  28
ENDBRANCH  18  23
ENDBRANCH   1  18
TORSDOF 6
ENDMDL
MODEL 9
REMARK VINA RESULT:    -6.797      3.918      6.518
REMARK INTER + INTRA:          -9.963
REMARK INTER:                  -9.235
REMARK INTRA:                  -0.728
REMARK UNBOUND:                -0.782
REMARK  Name = 
REMARK  6 active torsions:
REMARK  status: ('A' for Active; 'I' for Inactive)
REMARK    1  A    between atoms: C_2  and  C_4
REMARK    2  A    between atoms: N_8  and  C_9
REMARK    3  A    between atoms: C_9  and  C_10
REMARK    4  A    between atoms: C_10  and  C_13
REMARK    5  A    between atoms: C_17  and  N_18
REMARK    6  A    between atoms: N_18  and  C_19
REMARK                            x       y       z     vdW  Elec       q    Type
REMARK                         _______ _______ _______ _____ _____    ______ ____
ROOT
ATOM      1  C   UNL     1      48.213   2.924  16.906  0.00  0.00    +0.000 C 
ATOM      2  F   UNL     1      47.217   2.385  17.679  0.00  0.00    +0.000 F 
ATOM      3  F   UNL     1      48.707   1.854  16.205  0.00  0.00    +0.000 F 
ENDROOT
BRANCH   1   4
ATOM      4  C   UNL     1      49.291   3.567  17.743  0.00  0.00    +0.000 A 
ATOM      5  C   UNL     1      50.643   3.274  17.527  0.00  0.00    +0.000 A 
ATOM      6  C   UNL     1      51.626   3.853  18.331  0.00  0.00    +0.000 A 
ATOM      7  C   UNL     1      51.267   4.721  19.366  0.00  0.00    +0.000 A 
ATOM      8  C   UNL     1      49.931   5.071  19.574  0.00  0.00    +0.000 A 
ATOM      9  C   UNL     1      48.959   4.484  18.745  0.00  0.00    +0.000 A 
ATOM     10  F   UNL     1      47.668   4.792  18.948  0.00  0.00    +0.000 F 
BRANCH   8  11
ATOM     11  N   UNL     1      49.530   5.869  20.662  0.00  0.00    +0.000 N 
ATOM     12  H   UNL     1      49.238   5.345  21.483  0.00  0.00    +0.000 HD
BRANCH  11  13
ATOM     13  C   UNL     1      49.316   7.283  20.675  0.00  0.00    +0.000 C 
ATOM     14  C   UNL     1      47.824   7.679  20.617  0.00  0.00    +0.000 C 
ATOM     15  N   UNL     1      48.185   8.757  19.660  0.00  0.00    +0.000 NA
ATOM     16  C   UNL     1      49.398   7.973  19.301  0.00  0.00    +0.000 C 
ATOM     17  H   UNL     1      48.403   9.640  20.124  0.00  0.00    +0.000 HD
ENDBRANCH  11  13
ENDBRANCH   8  11
ENDBRANCH   1   4
BRANCH   1  18
ATOM     18  C   UNL     1      47.546   3.878  15.878  0.00  0.00    +0.000 C 
BRANCH  18  23
ATOM     19  C   UNL     1      44.590   4.768  11.813  0.00  0.00    +0.000 A 
ATOM     20  C   UNL     1      45.121   5.654  12.740  0.00  0.00    +0.000 A 
ATOM     21  C   UNL     1      46.034   5.184  13.684  0.00  0.00    +0.000 A 
ATOM     22  C   UNL     1      46.384   3.835  13.700  0.00  0.00    +0.000 A 
ATOM     23  N   UNL     1      47.352   3.309  14.538  0.00  0.00    +0.000 N 
ATOM     24  N   UNL     1      45.839   2.961  12.834  0.00  0.00    +0.000 NA
ATOM     25  C   UNL     1      44.955   3.435  11.914  0.00  0.00    +0.000 A 
ATOM     26  H   UNL     1      47.306   2.292  14.469  0.00  0.00    +0.000 HD
BRANCH  19  28
ATOM     27  N   UNL     1      43.933   4.713   9.478  0.00  0.00    +0.000 N 
ATOM     28  C   UNL     1      43.673   5.190  10.734  0.00  0.00    +0.000 C 
ATOM     29  O   UNL     1      42.700   5.899  10.957  0.00  0.00    +0.000 OA
ATOM     30  H   UNL     1      43.231   4.902   8.773  0.00  0.00    +0.000 HD
ATOM     31  H   UNL     1      44.551   3.931   9.313  0.00  0.00    +0.000 HD
ENDBRANCH  19  28
ENDBRANCH  18  23
ENDBRANCH   1  18
TORSDOF 6
ENDMDL
