MODEL 1
REMARK VINA RESULT:    -8.232      0.000      0.000
REMARK INTER + INTRA:         -11.529
REMARK INTER:                 -10.638
REMARK INTRA:                  -0.891
REMARK UNBOUND:                -0.891
REMARK  Name = 
REMARK  7 active torsions:
REMARK  status: ('A' for Active; 'I' for Inactive)
REMARK    1  A    between atoms: C_1  and  S_2
REMARK    2  A    between atoms: S_2  and  C_3
REMARK    3  A    between atoms: C_6  and  C_7
REMARK    4  A    between atoms: C_7  and  C_8
REMARK    5  A    between atoms: C_7  and  N_9
REMARK    6  A    between atoms: N_9  and  C_10
REMARK    7  A    between atoms: C_13  and  C_14
REMARK                            x       y       z     vdW  Elec       q    Type
REMARK                         _______ _______ _______ _____ _____    ______ ____
ROOT
ATOM      1  N   UNL     1      43.710   4.806   9.901  0.00  0.00    +0.000 N 
ATOM      2  H   UNL     1      43.565   5.727   9.495  0.00  0.00    +0.000 HD
ENDROOT
BRANCH   1   3
ATOM      3  C   UNL     1      44.578   4.014   9.161  0.00  0.00    +0.000 A 
ATOM      4  C   UNL     1      45.540   4.510   8.277  0.00  0.00    +0.000 A 
ATOM      5  C   UNL     1      46.416   3.650   7.597  0.00  0.00    +0.000 A 
ATOM      6  C   UNL     1      46.384   2.272   7.828  0.00  0.00    +0.000 A 
ATOM      7  C   UNL     1      45.459   1.759   8.738  0.00  0.00    +0.000 A 
ATOM      8  C   UNL     1      44.575   2.628   9.396  0.00  0.00    +0.000 A 
BRANCH   6   9
ATOM      9  C   UNL     1      47.329   1.409   7.069  0.00  0.00    +0.000 C 
ATOM     10  N   UNL     1      48.419   2.006   6.499  0.00  0.00    +0.000 N 
ATOM     11  O   UNL     1      47.128   0.212   6.923  0.00  0.00    +0.000 OA
ATOM     12  H   UNL     1      48.492   3.005   6.378  0.00  0.00    +0.000 HD
ATOM     13  H   UNL     1      48.980   1.418   5.896  0.00  0.00    +0.000 HD
ENDBRANCH   6   9
ENDBRANCH   1   3
BRANCH   1  14
ATOM     14  C   UNL     1      43.595   4.780  11.362  0.00  0.00    +0.000 C 
ATOM     15  C   UNL     1      42.360   5.579  11.789  0.00  0.00    +0.000 C 
BRANCH  14  19
ATOM     16  C   UNL     1      47.223   6.415  13.110  0.00  0.00    +0.000 A 
ATOM     17  C   UNL     1      46.728   5.181  13.534  0.00  0.00    +0.000 A 
ATOM     18  C   UNL     1      45.558   4.661  12.972  0.00  0.00    +0.000 A 
ATOM     19  C   UNL     1      44.858   5.369  11.981  0.00  0.00    +0.000 A 
ATOM     20  C   UNL     1      45.350   6.626  11.587  0.00  0.00    +0.000 A 
ATOM     21  C   UNL     1      46.522   7.143  12.147  0.00  0.00    +0.000 A 
BRANCH  16  23
ATOM     22  C   UNL     1      49.578   7.437  12.211  0.00  0.00    +0.000 C 
ATOM     23  S   UNL     1      48.746   7.053  13.776  0.00  0.00    +0.000 S 
ENDBRANCH  16  23
ENDBRANCH  14  19
ENDBRANCH   1  14
TORSDOF 5
ENDMDL
MODEL 2
REMARK VINA RESULT:    -7.739      0.584      1.606
REMARK INTER + INTRA:         -10.892
REMARK INTER:                 -10.021
REMARK INTRA:                  -0.871
REMARK UNBOUND:                -0.891
REMARK  Name = 
REMARK  7 active torsions:
REMARK  status: ('A' for Active; 'I' for Inactive)
REMARK    1  A    between atoms: C_1  and  S_2
REMARK    2  A    between atoms: S_2  and  C_3
REMARK    3  A    between atoms: C_6  and  C_7
REMARK    4  A    between atoms: C_7  and  C_8
REMARK    5  A    between atoms: C_7  and  N_9
REMARK    6  A    between atoms: N_9  and  C_10
REMARK    7  A    between atoms: C_13  and  C_14
REMARK                            x       y       z     vdW  Elec       q    Type
REMARK                         _______ _______ _______ _____ _____    ______ ____
ROOT
ATOM      1  N   UNL     1      43.679   4.416  10.296  0.00  0.00    +0.000 N 
ATOM      2  H   UNL     1      43.243   5.193   9.805  0.00  0.00    +0.000 HD
ENDROOT
BRANCH   1   3
ATOM      3  C   UNL     1      44.593   3.721   9.514  0.00  0.00    +0.000 A 
ATOM      4  C   UNL     1      44.721   2.330   9.497  0.00  0.00    +0.000 A 
ATOM      5  C   UNL     1      45.636   1.694   8.645  0.00  0.00    +0.000 A 
ATOM      6  C   UNL     1      46.411   2.436   7.750  0.00  0.00    +0.000 A 
ATOM      7  C   UNL     1      46.270   3.824   7.721  0.00  0.00    +0.000 A 
ATOM      8  C   UNL     1      45.365   4.450   8.593  0.00  0.00    +0.000 A 
BRANCH   6   9
ATOM      9  C   UNL     1      47.374   1.707   6.880  0.00  0.00    +0.000 C 
ATOM     10  N   UNL     1      48.480   2.384   6.448  0.00  0.00    +0.000 N 
ATOM     11  O   UNL     1      47.173   0.554   6.528  0.00  0.00    +0.000 OA
ATOM     12  H   UNL     1      48.560   3.389   6.500  0.00  0.00    +0.000 HD
ATOM     13  H   UNL     1      49.055   1.902   5.768  0.00  0.00    +0.000 HD
ENDBRANCH   6   9
ENDBRANCH   1   3
BRANCH   1  14
ATOM     14  C   UNL     1      43.804   4.626  11.740  0.00  0.00    +0.000 C 
ATOM     15  C   UNL     1      42.528   5.286  12.270  0.00  0.00    +0.000 C 
BRANCH  14  19
ATOM     16  C   UNL     1      47.234   7.163  12.573  0.00  0.00    +0.000 A 
ATOM     17  C   UNL     1      46.153   7.654  11.840  0.00  0.00    +0.000 A 
ATOM     18  C   UNL     1      45.054   6.833  11.570  0.00  0.00    +0.000 A 
ATOM     19  C   UNL     1      45.020   5.503  12.023  0.00  0.00    +0.000 A 
ATOM     20  C   UNL     1      46.130   5.012  12.732  0.00  0.00    +0.000 A 
ATOM     21  C   UNL     1      47.227   5.835  13.003  0.00  0.00    +0.000 A 
BRANCH  16  23
ATOM     22  C   UNL     1      49.789   7.594  11.749  0.00  0.00    +0.000 C 
ATOM     23  S   UNL     1      48.608   8.222  12.972  0.00  0.00    +0.000 S 
ENDBRANCH  16  23
ENDBRANCH  14  19
ENDBRANCH   1  14
TORSDOF 5
ENDMDL
MODEL 3
REMARK VINA RESULT:    -6.720      3.557      6.273
REMARK INTER + INTRA:          -9.575
REMARK INTER:                  -9.386
REMARK INTRA:                  -0.189
REMARK UNBOUND:                -0.891
REMARK  Name = 
REMARK  7 active torsions:
REMARK  status: ('A' for Active; 'I' for Inactive)
REMARK    1  A    between atoms: C_1  and  S_2
REMARK    2  A    between atoms: S_2  and  C_3
REMARK    3  A    between atoms: C_6  and  C_7
REMARK    4  A    between atoms: C_7  and  C_8
REMARK    5  A    between atoms: C_7  and  N_9
REMARK    6  A    between atoms: N_9  and  C_10
REMARK    7  A    between atoms: C_13  and  C_14
REMARK                            x       y       z     vdW  Elec       q    Type
REMARK                         _______ _______ _______ _____ _____    ______ ____
ROOT
ATOM      1  N   UNL     1      44.047   5.701  10.725  0.00  0.00    +0.000 N 
ATOM      2  H   UNL     1      43.362   6.453  10.749  0.00  0.00    +0.000 HD
ENDROOT
BRANCH   1   3
ATOM      3  C   UNL     1      45.040   5.839  11.686  0.00  0.00    +0.000 A 
ATOM      4  C   UNL     1      45.059   5.158  12.906  0.00  0.00    +0.000 A 
ATOM      5  C   UNL     1      46.121   5.312  13.810  0.00  0.00    +0.000 A 
ATOM      6  C   UNL     1      47.219   6.114  13.488  0.00  0.00    +0.000 A 
ATOM      7  C   UNL     1      47.241   6.771  12.257  0.00  0.00    +0.000 A 
ATOM      8  C   UNL     1      46.162   6.625  11.371  0.00  0.00    +0.000 A 
BRANCH   6   9
ATOM      9  C   UNL     1      48.311   6.249  14.491  0.00  0.00    +0.000 C 
ATOM     10  N   UNL     1      48.033   5.904  15.784  0.00  0.00    +0.000 N 
ATOM     11  O   UNL     1      49.410   6.687  14.186  0.00  0.00    +0.000 OA
ATOM     12  H   UNL     1      47.091   5.783  16.126  0.00  0.00    +0.000 HD
ATOM     13  H   UNL     1      48.755   6.113  16.462  0.00  0.00    +0.000 HD
ENDBRANCH   6   9
ENDBRANCH   1   3
BRANCH   1  14
ATOM     14  C   UNL     1      43.503   4.421  10.264  0.00  0.00    +0.000 C 
ATOM     15  C   UNL     1      43.145   3.555  11.475  0.00  0.00    +0.000 C 
BRANCH  14  19
ATOM     16  C   UNL     1      46.398   2.384   7.741  0.00  0.00    +0.000 A 
ATOM     17  C   UNL     1      45.669   1.674   8.696  0.00  0.00    +0.000 A 
ATOM     18  C   UNL     1      44.742   2.334   9.509  0.00  0.00    +0.000 A 
ATOM     19  C   UNL     1      44.533   3.718   9.386  0.00  0.00    +0.000 A 
ATOM     20  C   UNL     1      45.298   4.426   8.442  0.00  0.00    +0.000 A 
ATOM     21  C   UNL     1      46.222   3.764   7.628  0.00  0.00    +0.000 A 
BRANCH  16  23
ATOM     22  C   UNL     1      47.490   2.701   5.271  0.00  0.00    +0.000 C 
ATOM     23  S   UNL     1      47.533   1.538   6.662  0.00  0.00    +0.000 S 
ENDBRANCH  16  23
ENDBRANCH  14  19
ENDBRANCH   1  14
TORSDOF 5
ENDMDL
MODEL 4
REMARK VINA RESULT:    -6.289      4.047      6.857
REMARK INTER + INTRA:          -9.019
REMARK INTER:                  -8.322
REMARK INTRA:                  -0.697
REMARK UNBOUND:                -0.891
REMARK  Name = 
REMARK  7 active torsions:
REMARK  status: ('A' for Active; 'I' for Inactive)
REMARK    1  A    between atoms: C_1  and  S_2
REMARK    2  A    between atoms: S_2  and  C_3
REMARK    3  A    between atoms: C_6  and  C_7
REMARK    4  A    between atoms: C_7  and  C_8
REMARK    5  A    between atoms: C_7  and  N_9
REMARK    6  A    between atoms: N_9  and  C_10
REMARK    7  A    between atoms: C_13  and  C_14
REMARK                            x       y       z     vdW  Elec       q    Type
REMARK                         _______ _______ _______ _____ _____    ______ ____
ROOT
ATOM      1  N   UNL     1      45.110   5.308  11.898  0.00  0.00    +0.000 N 
ATOM      2  H   UNL     1      45.690   4.536  12.216  0.00  0.00    +0.000 HD
ENDROOT
BRANCH   1   3
ATOM      3  C   UNL     1      45.740   6.541  11.998  0.00  0.00    +0.000 A 
ATOM      4  C   UNL     1      45.111   7.719  12.409  0.00  0.00    +0.000 A 
ATOM      5  C   UNL     1      45.824   8.921  12.531  0.00  0.00    +0.000 A 
ATOM      6  C   UNL     1      47.202   8.959  12.295  0.00  0.00    +0.000 A 
ATOM      7  C   UNL     1      47.858   7.785  11.925  0.00  0.00    +0.000 A 
ATOM      8  C   UNL     1      47.129   6.594  11.786  0.00  0.00    +0.000 A 
BRANCH   6   9
ATOM      9  C   UNL     1      47.902  10.265  12.429  0.00  0.00    +0.000 C 
ATOM     10  N   UNL     1      48.287  10.656  13.681  0.00  0.00    +0.000 N 
ATOM     11  O   UNL     1      48.099  10.988  11.463  0.00  0.00    +0.000 OA
ATOM     12  H   UNL     1      47.930  10.224  14.521  0.00  0.00    +0.000 HD
ATOM     13  H   UNL     1      48.657  11.595  13.756  0.00  0.00    +0.000 HD
ENDBRANCH   6   9
ENDBRANCH   1   3
BRANCH   1  14
ATOM     14  C   UNL     1      44.161   4.938  10.845  0.00  0.00    +0.000 C 
ATOM     15  C   UNL     1      42.994   4.161  11.462  0.00  0.00    +0.000 C 
BRANCH  14  19
ATOM     16  C   UNL     1      46.239   2.552   7.864  0.00  0.00    +0.000 A 
ATOM     17  C   UNL     1      46.301   3.946   7.824  0.00  0.00    +0.000 A 
ATOM     18  C   UNL     1      45.627   4.710   8.782  0.00  0.00    +0.000 A 
ATOM     19  C   UNL     1      44.872   4.093   9.793  0.00  0.00    +0.000 A 
ATOM     20  C   UNL     1      44.791   2.689   9.803  0.00  0.00    +0.000 A 
ATOM     21  C   UNL     1      45.469   1.927   8.846  0.00  0.00    +0.000 A 
BRANCH  16  23
ATOM     22  C   UNL     1      47.148   2.757   5.310  0.00  0.00    +0.000 C 
ATOM     23  S   UNL     1      47.146   1.575   6.684  0.00  0.00    +0.000 S 
ENDBRANCH  16  23
ENDBRANCH  14  19
ENDBRANCH   1  14
TORSDOF 5
ENDMDL
MODEL 5
REMARK VINA RESULT:    -5.640      3.630      5.966
REMARK INTER + INTRA:          -8.180
REMARK INTER:                  -7.768
REMARK INTRA:                  -0.411
REMARK UNBOUND:                -0.891
REMARK  Name = 
REMARK  7 active torsions:
REMARK  status: ('A' for Active; 'I' for Inactive)
REMARK    1  A    between atoms: C_1  and  S_2
REMARK    2  A    between atoms: S_2  and  C_3
REMARK    3  A    between atoms: C_6  and  C_7
REMARK    4  A    between atoms: C_7  and  C_8
REMARK    5  A    between atoms: C_7  and  N_9
REMARK    6  A    between atoms: N_9  and  C_10
REMARK    7  A    between atoms: C_13  and  C_14
REMARK                            x       y       z     vdW  Elec       q    Type
REMARK                         _______ _______ _______ _____ _____    ______ ____
ROOT
ATOM      1  N   UNL     1      43.695   6.403  12.006  0.00  0.00    +0.000 N 
ATOM      2  H   UNL     1      43.100   7.119  12.416  0.00  0.00    +0.000 HD
ENDROOT
BRANCH   1   3
ATOM      3  C   UNL     1      45.030   6.533  12.366  0.00  0.00    +0.000 A 
ATOM      4  C   UNL     1      45.713   5.645  13.202  0.00  0.00    +0.000 A 
ATOM      5  C   UNL     1      47.076   5.814  13.485  0.00  0.00    +0.000 A 
ATOM      6  C   UNL     1      47.804   6.851  12.892  0.00  0.00    +0.000 A 
ATOM      7  C   UNL     1      47.151   7.724  12.022  0.00  0.00    +0.000 A 
ATOM      8  C   UNL     1      45.782   7.556  11.763  0.00  0.00    +0.000 A 
BRANCH   6   9
ATOM      9  C   UNL     1      49.244   6.988  13.240  0.00  0.00    +0.000 C 
ATOM     10  N   UNL     1      50.125   7.221  12.221  0.00  0.00    +0.000 N 
ATOM     11  O   UNL     1      49.641   6.860  14.389  0.00  0.00    +0.000 OA
ATOM     12  H   UNL     1      49.886   7.084  11.250  0.00  0.00    +0.000 HD
ATOM     13  H   UNL     1      51.106   7.196  12.471  0.00  0.00    +0.000 HD
ENDBRANCH   6   9
ENDBRANCH   1   3
BRANCH   1  14
ATOM     14  C   UNL     1      43.012   5.127  11.777  0.00  0.00    +0.000 C 
ATOM     15  C   UNL     1      42.899   4.367  13.102  0.00  0.00    +0.000 C 
BRANCH  14  19
ATOM     16  C   UNL     1      45.278   2.834   8.861  0.00  0.00    +0.000 A 
ATOM     17  C   UNL     1      44.899   4.149   8.588  0.00  0.00    +0.000 A 
ATOM     18  C   UNL     1      44.166   4.882   9.526  0.00  0.00    +0.000 A 
ATOM     19  C   UNL     1      43.792   4.309  10.753  0.00  0.00    +0.000 A 
ATOM     20  C   UNL     1      44.152   2.973  11.003  0.00  0.00    +0.000 A 
ATOM     21  C   UNL     1      44.888   2.243  10.064  0.00  0.00    +0.000 A 
BRANCH  16  23
ATOM     22  C   UNL     1      47.141   3.314   6.940  0.00  0.00    +0.000 C 
ATOM     23  S   UNL     1      46.264   1.919   7.696  0.00  0.00    +0.000 S 
ENDBRANCH  16  23
ENDBRANCH  14  19
ENDBRANCH   1  14
TORSDOF 5
ENDMDL
MODEL 6
REMARK VINA RESULT:    -5.482      4.856      6.907
REMARK INTER + INTRA:          -7.975
REMARK INTER:                  -7.404
REMARK INTRA:                  -0.571
REMARK UNBOUND:                -0.891
REMARK  Name = 
REMARK  7 active torsions:
REMARK  status: ('A' for Active; 'I' for Inactive)
REMARK    1  A    between atoms: C_1  and  S_2
REMARK    2  A    between atoms: S_2  and  C_3
REMARK    3  A    between atoms: C_6  and  C_7
REMARK    4  A    between atoms: C_7  and  C_8
REMARK    5  A    between atoms: C_7  and  N_9
REMARK    6  A    between atoms: N_9  and  C_10
REMARK    7  A    between atoms: C_13  and  C_14
REMARK                            x       y       z     vdW  Elec       q    Type
REMARK                         _______ _______ _______ _____ _____    ______ ____
ROOT
ATOM      1  N   UNL     1      47.900   5.466  15.699  0.00  0.00    +0.000 N 
ATOM      2  H   UNL     1      48.817   5.904  15.665  0.00  0.00    +0.000 HD
ENDROOT
BRANCH   1   3
ATOM      3  C   UNL     1      47.270   5.426  14.462  0.00  0.00    +0.000 A 
ATOM      4  C   UNL     1      46.338   4.457  14.081  0.00  0.00    +0.000 A 
ATOM      5  C   UNL     1      45.706   4.507  12.829  0.00  0.00    +0.000 A 
ATOM      6  C   UNL     1      45.955   5.562  11.947  0.00  0.00    +0.000 A 
ATOM      7  C   UNL     1      46.850   6.564  12.325  0.00  0.00    +0.000 A 
ATOM      8  C   UNL     1      47.491   6.491  13.571  0.00  0.00    +0.000 A 
BRANCH   6   9
ATOM      9  C   UNL     1      45.264   5.556  10.629  0.00  0.00    +0.000 C 
ATOM     10  N   UNL     1      43.897   5.555  10.627  0.00  0.00    +0.000 N 
ATOM     11  O   UNL     1      45.888   5.515   9.579  0.00  0.00    +0.000 OA
ATOM     12  H   UNL     1      43.350   5.336  11.446  0.00  0.00    +0.000 HD
ATOM     13  H   UNL     1      43.457   5.435   9.723  0.00  0.00    +0.000 HD
ENDBRANCH   6   9
ENDBRANCH   1   3
BRANCH   1  14
ATOM     14  C   UNL     1      47.776   4.435  16.733  0.00  0.00    +0.000 C 
ATOM     15  C   UNL     1      47.130   5.044  17.981  0.00  0.00    +0.000 C 
BRANCH  14  19
ATOM     16  C   UNL     1      51.705   2.861  17.722  0.00  0.00    +0.000 A 
ATOM     17  C   UNL     1      51.462   4.235  17.764  0.00  0.00    +0.000 A 
ATOM     18  C   UNL     1      50.198   4.737  17.440  0.00  0.00    +0.000 A 
ATOM     19  C   UNL     1      49.156   3.875  17.061  0.00  0.00    +0.000 A 
ATOM     20  C   UNL     1      49.423   2.496  16.992  0.00  0.00    +0.000 A 
ATOM     21  C   UNL     1      50.687   1.996  17.319  0.00  0.00    +0.000 A 
BRANCH  16  23
ATOM     22  C   UNL     1      53.167   0.594  17.383  0.00  0.00    +0.000 C 
ATOM     23  S   UNL     1      53.294   2.211  18.193  0.00  0.00    +0.000 S 
ENDBRANCH  16  23
ENDBRANCH  14  19
ENDBRANCH   1  14
TORSDOF 5
ENDMDL
MODEL 7
REMARK VINA RESULT:    -5.238      3.571      5.555
REMARK INTER + INTRA:          -7.659
REMARK INTER:                  -7.183
REMARK INTRA:                  -0.477
REMARK UNBOUND:                -0.891
REMARK  Name = 
REMARK  7 active torsions:
REMARK  status: ('A' for Active; 'I' for Inactive)
REMARK    1  A    between atoms: C_1  and  S_2
REMARK    2  A    between atoms: S_2  and  C_3
REMARK    3  A    between atoms: C_6  and  C_7
REMARK    4  A    between atoms: C_7  and  C_8
REMARK    5  A    between atoms: C_7  and  N_9
REMARK    6  A    between atoms: N_9  and  C_10
REMARK    7  A    between atoms: C_13  and  C_14
REMARK                            x       y       z     vdW  Elec       q    Type
REMARK                         _______ _______ _______ _____ _____    ______ ____
ROOT
ATOM      1  N   UNL     1      46.957   7.089  13.952  0.00  0.00    +0.000 N 
ATOM      2  H   UNL     1      46.363   7.849  14.276  0.00  0.00    +0.000 HD
ENDROOT
BRANCH   1   3
ATOM      3  C   UNL     1      46.331   6.266  13.024  0.00  0.00    +0.000 A 
ATOM      4  C   UNL     1      46.025   4.920  13.242  0.00  0.00    +0.000 A 
ATOM      5  C   UNL     1      45.349   4.162  12.274  0.00  0.00    +0.000 A 
ATOM      6  C   UNL     1      44.915   4.751  11.083  0.00  0.00    +0.000 A 
ATOM      7  C   UNL     1      45.173   6.104  10.864  0.00  0.00    +0.000 A 
ATOM      8  C   UNL     1      45.868   6.846  11.831  0.00  0.00    +0.000 A 
BRANCH   6   9
ATOM      9  C   UNL     1      44.213   3.893  10.089  0.00  0.00    +0.000 C 
ATOM     10  N   UNL     1      44.090   4.368   8.814  0.00  0.00    +0.000 N 
ATOM     11  O   UNL     1      43.727   2.817  10.403  0.00  0.00    +0.000 OA
ATOM     12  H   UNL     1      44.246   5.336   8.574  0.00  0.00    +0.000 HD
ATOM     13  H   UNL     1      43.512   3.817   8.191  0.00  0.00    +0.000 HD
ENDBRANCH   6   9
ENDBRANCH   1   3
BRANCH   1  14
ATOM     14  C   UNL     1      48.385   7.415  13.950  0.00  0.00    +0.000 C 
ATOM     15  C   UNL     1      49.020   6.907  12.653  0.00  0.00    +0.000 C 
BRANCH  14  19
ATOM     16  C   UNL     1      50.282   5.540  17.383  0.00  0.00    +0.000 A 
ATOM     17  C   UNL     1      48.944   5.280  17.084  0.00  0.00    +0.000 A 
ATOM     18  C   UNL     1      48.336   5.888  15.982  0.00  0.00    +0.000 A 
ATOM     19  C   UNL     1      49.054   6.775  15.163  0.00  0.00    +0.000 A 
ATOM     20  C   UNL     1      50.392   7.054  15.494  0.00  0.00    +0.000 A 
ATOM     21  C   UNL     1      50.999   6.442  16.594  0.00  0.00    +0.000 A 
BRANCH  16  23
ATOM     22  C   UNL     1      49.738   4.868  19.961  0.00  0.00    +0.000 C 
ATOM     23  S   UNL     1      51.078   4.720  18.748  0.00  0.00    +0.000 S 
ENDBRANCH  16  23
ENDBRANCH  14  19
ENDBRANCH   1  14
TORSDOF 5
ENDMDL
