MODEL 1
REMARK VINA RESULT:    -8.824      0.000      0.000
REMARK INTER + INTRA:         -12.268
REMARK INTER:                 -11.403
REMARK INTRA:                  -0.865
REMARK UNBOUND:                -0.865
REMARK  Name = 
REMARK  5 active torsions:
REMARK  status: ('A' for Active; 'I' for Inactive)
REMARK    1  A    between atoms: C_2  and  C_4
REMARK    2  A    between atoms: C_7  and  O_8
REMARK    3  A    between atoms: O_8  and  C_9
REMARK    4  A    between atoms: C_9  and  C_10
REMARK    5  A    between atoms: C_14  and  C_15
REMARK                            x       y       z     vdW  Elec       q    Type
REMARK                         _______ _______ _______ _____ _____    ______ ____
ROOT
ATOM      1  C   UNL     1      43.602   4.267  11.225  0.00  0.00    +0.000 C 
ENDROOT
BRANCH   1   2
ATOM      2  C   UNL     1      44.832   4.702  11.992  0.00  0.00    +0.000 A 
ATOM      3  C   UNL     1      45.507   3.795  12.817  0.00  0.00    +0.000 A 
ATOM      4  C   UNL     1      46.665   4.185  13.483  0.00  0.00    +0.000 A 
ATOM      5  C   UNL     1      47.178   5.472  13.305  0.00  0.00    +0.000 A 
ATOM      6  C   UNL     1      46.567   6.389  12.432  0.00  0.00    +0.000 A 
ATOM      7  C   UNL     1      45.379   5.981  11.802  0.00  0.00    +0.000 A 
BRANCH   6   8
ATOM      8  C   UNL     1      47.191   7.690  12.095  0.00  0.00    +0.000 A 
ATOM      9  C   UNL     1      46.469   8.890  12.229  0.00  0.00    +0.000 A 
ATOM     10  C   UNL     1      47.075  10.133  12.043  0.00  0.00    +0.000 A 
ATOM     11  C   UNL     1      48.425  10.209  11.717  0.00  0.00    +0.000 A 
ATOM     12  C   UNL     1      49.159   9.038  11.549  0.00  0.00    +0.000 A 
ATOM     13  C   UNL     1      48.544   7.793  11.723  0.00  0.00    +0.000 A 
ENDBRANCH   6   8
ENDBRANCH   1   2
BRANCH   1  14
ATOM     14  O   UNL     1      43.692   4.701   9.866  0.00  0.00    +0.000 OA
BRANCH  14  18
ATOM     15  C   UNL     1      46.405   2.453   7.744  0.00  0.00    +0.000 A 
ATOM     16  C   UNL     1      45.539   1.824   8.641  0.00  0.00    +0.000 A 
ATOM     17  C   UNL     1      44.625   2.599   9.357  0.00  0.00    +0.000 A 
ATOM     18  C   UNL     1      44.612   3.970   9.147  0.00  0.00    +0.000 A 
ATOM     19  N   UNL     1      45.443   4.603   8.292  0.00  0.00    +0.000 NA
ATOM     20  C   UNL     1      46.329   3.833   7.617  0.00  0.00    +0.000 A 
BRANCH  15  22
ATOM     21  N   UNL     1      48.474   2.452   6.469  0.00  0.00    +0.000 N 
ATOM     22  C   UNL     1      47.411   1.733   6.938  0.00  0.00    +0.000 C 
ATOM     23  O   UNL     1      47.323   0.530   6.735  0.00  0.00    +0.000 OA
ATOM     24  H   UNL     1      49.211   1.919   6.025  0.00  0.00    +0.000 HD
ATOM     25  H   UNL     1      48.712   3.366   6.829  0.00  0.00    +0.000 HD
ENDBRANCH  15  22
ENDBRANCH  14  18
ENDBRANCH   1  14
TORSDOF 5
ENDMDL
MODEL 2
REMARK VINA RESULT:    -8.791      0.162      1.015
REMARK INTER + INTRA:         -12.226
REMARK INTER:                 -11.326
REMARK INTRA:                  -0.900
REMARK UNBOUND:                -0.865
REMARK  Name = 
REMARK  5 active torsions:
REMARK  status: ('A' for Active; 'I' for Inactive)
REMARK    1  A    between atoms: C_2  and  C_4
REMARK    2  A    between atoms: C_7  and  O_8
REMARK    3  A    between atoms: O_8  and  C_9
REMARK    4  A    between atoms: C_9  and  C_10
REMARK    5  A    between atoms: C_14  and  C_15
REMARK                            x       y       z     vdW  Elec       q    Type
REMARK                         _______ _______ _______ _____ _____    ______ ____
ROOT
ATOM      1  C   UNL     1      43.662   4.184  11.281  0.00  0.00    +0.000 C 
ENDROOT
BRANCH   1   2
ATOM      2  C   UNL     1      44.878   4.621  12.069  0.00  0.00    +0.000 A 
ATOM      3  C   UNL     1      45.598   3.691  12.828  0.00  0.00    +0.000 A 
ATOM      4  C   UNL     1      46.744   4.085  13.513  0.00  0.00    +0.000 A 
ATOM      5  C   UNL     1      47.200   5.403  13.419  0.00  0.00    +0.000 A 
ATOM      6  C   UNL     1      46.543   6.349  12.612  0.00  0.00    +0.000 A 
ATOM      7  C   UNL     1      45.368   5.932  11.962  0.00  0.00    +0.000 A 
BRANCH   6   8
ATOM      8  C   UNL     1      47.107   7.695  12.360  0.00  0.00    +0.000 A 
ATOM      9  C   UNL     1      48.442   7.849  11.944  0.00  0.00    +0.000 A 
ATOM     10  C   UNL     1      48.955   9.094  11.576  0.00  0.00    +0.000 A 
ATOM     11  C   UNL     1      48.142  10.221  11.614  0.00  0.00    +0.000 A 
ATOM     12  C   UNL     1      46.825  10.105  12.049  0.00  0.00    +0.000 A 
ATOM     13  C   UNL     1      46.318   8.858  12.430  0.00  0.00    +0.000 A 
ENDBRANCH   6   8
ENDBRANCH   1   2
BRANCH   1  14
ATOM     14  O   UNL     1      43.746   4.671   9.940  0.00  0.00    +0.000 OA
BRANCH  14  18
ATOM     15  C   UNL     1      46.420   2.480   7.710  0.00  0.00    +0.000 A 
ATOM     16  C   UNL     1      45.574   1.829   8.610  0.00  0.00    +0.000 A 
ATOM     17  C   UNL     1      44.673   2.584   9.363  0.00  0.00    +0.000 A 
ATOM     18  C   UNL     1      44.652   3.959   9.185  0.00  0.00    +0.000 A 
ATOM     19  N   UNL     1      45.464   4.615   8.328  0.00  0.00    +0.000 NA
ATOM     20  C   UNL     1      46.338   3.863   7.617  0.00  0.00    +0.000 A 
BRANCH  15  22
ATOM     21  N   UNL     1      48.493   2.500   6.442  0.00  0.00    +0.000 N 
ATOM     22  C   UNL     1      47.410   1.782   6.867  0.00  0.00    +0.000 C 
ATOM     23  O   UNL     1      47.293   0.595   6.596  0.00  0.00    +0.000 OA
ATOM     24  H   UNL     1      49.218   1.974   5.970  0.00  0.00    +0.000 HD
ATOM     25  H   UNL     1      48.752   3.385   6.854  0.00  0.00    +0.000 HD
ENDBRANCH  15  22
ENDBRANCH  14  18
ENDBRANCH   1  14
TORSDOF 5
ENDMDL
MODEL 3
REMARK VINA RESULT:    -8.422      1.615      3.178
REMARK INTER + INTRA:         -11.748
REMARK INTER:                 -10.828
REMARK INTRA:                  -0.920
REMARK UNBOUND:                -0.865
REMARK  Name = 
REMARK  5 active torsions:
REMARK  status: ('A' for Active; 'I' for Inactive)
REMARK    1  A    between atoms: C_2  and  C_4
REMARK    2  A    between atoms: C_7  and  O_8
REMARK    3  A    between atoms: O_8  and  C_9
REMARK    4  A    between atoms: C_9  and  C_10
REMARK    5  A    between atoms: C_14  and  C_15
REMARK                            x       y       z     vdW  Elec       q    Type
REMARK                         _______ _______ _______ _____ _____    ______ ____
ROOT
ATOM      1  C   UNL     1      43.848   4.335  11.336  0.00  0.00    +0.000 C 
ENDROOT
BRANCH   1   2
ATOM      2  C   UNL     1      44.838   5.351  11.863  0.00  0.00    +0.000 A 
ATOM      3  C   UNL     1      44.798   6.675  11.410  0.00  0.00    +0.000 A 
ATOM      4  C   UNL     1      45.679   7.619  11.931  0.00  0.00    +0.000 A 
ATOM      5  C   UNL     1      46.584   7.257  12.933  0.00  0.00    +0.000 A 
ATOM      6  C   UNL     1      46.607   5.954  13.462  0.00  0.00    +0.000 A 
ATOM      7  C   UNL     1      45.733   5.014  12.891  0.00  0.00    +0.000 A 
BRANCH   6   8
ATOM      8  C   UNL     1      47.432   5.598  14.640  0.00  0.00    +0.000 A 
ATOM      9  C   UNL     1      48.438   6.466  15.102  0.00  0.00    +0.000 A 
ATOM     10  C   UNL     1      49.137   6.212  16.283  0.00  0.00    +0.000 A 
ATOM     11  C   UNL     1      48.846   5.080  17.036  0.00  0.00    +0.000 A 
ATOM     12  C   UNL     1      47.875   4.188  16.590  0.00  0.00    +0.000 A 
ATOM     13  C   UNL     1      47.186   4.438  15.398  0.00  0.00    +0.000 A 
ENDBRANCH   6   8
ENDBRANCH   1   2
BRANCH   1  14
ATOM     14  O   UNL     1      43.654   4.521   9.932  0.00  0.00    +0.000 OA
BRANCH  14  18
ATOM     15  C   UNL     1      46.404   2.406   7.722  0.00  0.00    +0.000 A 
ATOM     16  C   UNL     1      45.605   1.738   8.652  0.00  0.00    +0.000 A 
ATOM     17  C   UNL     1      44.678   2.468   9.398  0.00  0.00    +0.000 A 
ATOM     18  C   UNL     1      44.584   3.835   9.183  0.00  0.00    +0.000 A 
ATOM     19  N   UNL     1      45.350   4.507   8.296  0.00  0.00    +0.000 NA
ATOM     20  C   UNL     1      46.250   3.780   7.593  0.00  0.00    +0.000 A 
BRANCH  15  22
ATOM     21  N   UNL     1      48.491   2.478   6.478  0.00  0.00    +0.000 N 
ATOM     22  C   UNL     1      47.417   1.735   6.884  0.00  0.00    +0.000 C 
ATOM     23  O   UNL     1      47.325   0.549   6.599  0.00  0.00    +0.000 OA
ATOM     24  H   UNL     1      49.230   1.970   6.010  0.00  0.00    +0.000 HD
ATOM     25  H   UNL     1      48.729   3.363   6.902  0.00  0.00    +0.000 HD
ENDBRANCH  15  22
ENDBRANCH  14  18
ENDBRANCH   1  14
TORSDOF 5
ENDMDL
MODEL 4
REMARK VINA RESULT:    -8.131      1.513      2.263
REMARK INTER + INTRA:         -11.373
REMARK INTER:                 -10.517
REMARK INTRA:                  -0.856
REMARK UNBOUND:                -0.865
REMARK  Name = 
REMARK  5 active torsions:
REMARK  status: ('A' for Active; 'I' for Inactive)
REMARK    1  A    between atoms: C_2  and  C_4
REMARK    2  A    between atoms: C_7  and  O_8
REMARK    3  A    between atoms: O_8  and  C_9
REMARK    4  A    between atoms: C_9  and  C_10
REMARK    5  A    between atoms: C_14  and  C_15
REMARK                            x       y       z     vdW  Elec       q    Type
REMARK                         _______ _______ _______ _____ _____    ______ ____
ROOT
ATOM      1  C   UNL     1      44.319   3.426  11.478  0.00  0.00    +0.000 C 
ENDROOT
BRANCH   1   2
ATOM      2  C   UNL     1      44.622   4.909  11.516  0.00  0.00    +0.000 A 
ATOM      3  C   UNL     1      43.595   5.844  11.347  0.00  0.00    +0.000 A 
ATOM      4  C   UNL     1      43.868   7.206  11.430  0.00  0.00    +0.000 A 
ATOM      5  C   UNL     1      45.163   7.646  11.717  0.00  0.00    +0.000 A 
ATOM      6  C   UNL     1      46.208   6.737  11.961  0.00  0.00    +0.000 A 
ATOM      7  C   UNL     1      45.910   5.368  11.833  0.00  0.00    +0.000 A 
BRANCH   6   8
ATOM      8  C   UNL     1      47.539   7.177  12.438  0.00  0.00    +0.000 A 
ATOM      9  C   UNL     1      47.942   6.941  13.765  0.00  0.00    +0.000 A 
ATOM     10  C   UNL     1      49.237   7.229  14.199  0.00  0.00    +0.000 A 
ATOM     11  C   UNL     1      50.166   7.763  13.313  0.00  0.00    +0.000 A 
ATOM     12  C   UNL     1      49.789   8.035  12.001  0.00  0.00    +0.000 A 
ATOM     13  C   UNL     1      48.485   7.757  11.573  0.00  0.00    +0.000 A 
ENDBRANCH   6   8
ENDBRANCH   1   2
BRANCH   1  14
ATOM     14  O   UNL     1      43.734   3.078  10.221  0.00  0.00    +0.000 OA
BRANCH  14  18
ATOM     15  C   UNL     1      46.569   2.532   7.292  0.00  0.00    +0.000 A 
ATOM     16  C   UNL     1      45.938   3.771   7.420  0.00  0.00    +0.000 A 
ATOM     17  C   UNL     1      44.975   3.942   8.416  0.00  0.00    +0.000 A 
ATOM     18  C   UNL     1      44.684   2.870   9.246  0.00  0.00    +0.000 A 
ATOM     19  N   UNL     1      45.273   1.659   9.138  0.00  0.00    +0.000 NA
ATOM     20  C   UNL     1      46.195   1.513   8.157  0.00  0.00    +0.000 A 
BRANCH  15  22
ATOM     21  N   UNL     1      47.668   3.075   5.193  0.00  0.00    +0.000 N 
ATOM     22  C   UNL     1      47.597   2.240   6.273  0.00  0.00    +0.000 C 
ATOM     23  O   UNL     1      48.386   1.315   6.410  0.00  0.00    +0.000 OA
ATOM     24  H   UNL     1      48.453   2.931   4.571  0.00  0.00    +0.000 HD
ATOM     25  H   UNL     1      47.220   3.980   5.177  0.00  0.00    +0.000 HD
ENDBRANCH  15  22
ENDBRANCH  14  18
ENDBRANCH   1  14
TORSDOF 5
ENDMDL
MODEL 5
REMARK VINA RESULT:    -7.822      3.059      6.576
REMARK INTER + INTRA:         -10.974
REMARK INTER:                  -9.999
REMARK INTRA:                  -0.974
REMARK UNBOUND:                -0.865
REMARK  Name = 
REMARK  5 active torsions:
REMARK  status: ('A' for Active; 'I' for Inactive)
REMARK    1  A    between atoms: C_2  and  C_4
REMARK    2  A    between atoms: C_7  and  O_8
REMARK    3  A    between atoms: O_8  and  C_9
REMARK    4  A    between atoms: C_9  and  C_10
REMARK    5  A    between atoms: C_14  and  C_15
REMARK                            x       y       z     vdW  Elec       q    Type
REMARK                         _______ _______ _______ _____ _____    ______ ____
ROOT
ATOM      1  C   UNL     1      44.245   6.743  11.383  0.00  0.00    +0.000 C 
ENDROOT
BRANCH   1   2
ATOM      2  C   UNL     1      44.226   5.257  11.097  0.00  0.00    +0.000 A 
ATOM      3  C   UNL     1      43.359   4.413  11.800  0.00  0.00    +0.000 A 
ATOM      4  C   UNL     1      43.310   3.054  11.501  0.00  0.00    +0.000 A 
ATOM      5  C   UNL     1      44.102   2.532  10.475  0.00  0.00    +0.000 A 
ATOM      6  C   UNL     1      44.936   3.359   9.701  0.00  0.00    +0.000 A 
ATOM      7  C   UNL     1      44.992   4.720  10.049  0.00  0.00    +0.000 A 
BRANCH   6   8
ATOM      8  C   UNL     1      45.645   2.859   8.500  0.00  0.00    +0.000 A 
ATOM      9  C   UNL     1      46.036   3.740   7.477  0.00  0.00    +0.000 A 
ATOM     10  C   UNL     1      46.818   3.313   6.402  0.00  0.00    +0.000 A 
ATOM     11  C   UNL     1      47.230   1.987   6.324  0.00  0.00    +0.000 A 
ATOM     12  C   UNL     1      46.836   1.085   7.308  0.00  0.00    +0.000 A 
ATOM     13  C   UNL     1      46.041   1.514   8.376  0.00  0.00    +0.000 A 
ENDBRANCH   6   8
ENDBRANCH   1   2
BRANCH   1  14
ATOM     14  O   UNL     1      44.824   6.987  12.667  0.00  0.00    +0.000 OA
BRANCH  14  18
ATOM     15  C   UNL     1      48.870   7.691  12.444  0.00  0.00    +0.000 A 
ATOM     16  C   UNL     1      48.408   6.451  12.891  0.00  0.00    +0.000 A 
ATOM     17  C   UNL     1      47.033   6.226  12.965  0.00  0.00    +0.000 A 
ATOM     18  C   UNL     1      46.174   7.248  12.587  0.00  0.00    +0.000 A 
ATOM     19  N   UNL     1      46.594   8.458  12.159  0.00  0.00    +0.000 NA
ATOM     20  C   UNL     1      47.932   8.657  12.107  0.00  0.00    +0.000 A 
BRANCH  15  22
ATOM     21  N   UNL     1      51.019   7.425  11.341  0.00  0.00    +0.000 N 
ATOM     22  C   UNL     1      50.301   8.037  12.329  0.00  0.00    +0.000 C 
ATOM     23  O   UNL     1      50.815   8.872  13.060  0.00  0.00    +0.000 OA
ATOM     24  H   UNL     1      51.963   7.764  11.202  0.00  0.00    +0.000 HD
ATOM     25  H   UNL     1      50.580   6.941  10.571  0.00  0.00    +0.000 HD
ENDBRANCH  15  22
ENDBRANCH  14  18
ENDBRANCH   1  14
TORSDOF 5
ENDMDL
MODEL 6
REMARK VINA RESULT:    -7.601      4.784      8.112
REMARK INTER + INTRA:         -10.688
REMARK INTER:                 -10.016
REMARK INTRA:                  -0.672
REMARK UNBOUND:                -0.865
REMARK  Name = 
REMARK  5 active torsions:
REMARK  status: ('A' for Active; 'I' for Inactive)
REMARK    1  A    between atoms: C_2  and  C_4
REMARK    2  A    between atoms: C_7  and  O_8
REMARK    3  A    between atoms: O_8  and  C_9
REMARK    4  A    between atoms: C_9  and  C_10
REMARK    5  A    between atoms: C_14  and  C_15
REMARK                            x       y       z     vdW  Elec       q    Type
REMARK                         _______ _______ _______ _____ _____    ______ ____
ROOT
ATOM      1  C   UNL     1      46.025   5.231  13.992  0.00  0.00    +0.000 C 
ENDROOT
BRANCH   1   2
ATOM      2  C   UNL     1      45.092   4.941  12.836  0.00  0.00    +0.000 A 
ATOM      3  C   UNL     1      43.783   5.435  12.845  0.00  0.00    +0.000 A 
ATOM      4  C   UNL     1      42.942   5.207  11.759  0.00  0.00    +0.000 A 
ATOM      5  C   UNL     1      43.412   4.512  10.641  0.00  0.00    +0.000 A 
ATOM      6  C   UNL     1      44.740   4.059  10.566  0.00  0.00    +0.000 A 
ATOM      7  C   UNL     1      45.555   4.271  11.692  0.00  0.00    +0.000 A 
BRANCH   6   8
ATOM      8  C   UNL     1      45.306   3.480   9.325  0.00  0.00    +0.000 A 
ATOM      9  C   UNL     1      45.840   4.310   8.323  0.00  0.00    +0.000 A 
ATOM     10  C   UNL     1      46.493   3.782   7.208  0.00  0.00    +0.000 A 
ATOM     11  C   UNL     1      46.630   2.406   7.066  0.00  0.00    +0.000 A 
ATOM     12  C   UNL     1      46.086   1.558   8.027  0.00  0.00    +0.000 A 
ATOM     13  C   UNL     1      45.420   2.090   9.137  0.00  0.00    +0.000 A 
ENDBRANCH   6   8
ENDBRANCH   1   2
BRANCH   1  14
ATOM     14  O   UNL     1      46.631   4.020  14.449  0.00  0.00    +0.000 OA
BRANCH  14  18
ATOM     15  C   UNL     1      48.408   4.530  18.123  0.00  0.00    +0.000 A 
ATOM     16  C   UNL     1      48.621   5.474  17.116  0.00  0.00    +0.000 A 
ATOM     17  C   UNL     1      48.014   5.287  15.872  0.00  0.00    +0.000 A 
ATOM     18  C   UNL     1      47.218   4.167  15.686  0.00  0.00    +0.000 A 
ATOM     19  N   UNL     1      47.002   3.236  16.640  0.00  0.00    +0.000 NA
ATOM     20  C   UNL     1      47.611   3.432  17.834  0.00  0.00    +0.000 A 
BRANCH  15  22
ATOM     21  N   UNL     1      48.583   3.725  20.410  0.00  0.00    +0.000 N 
ATOM     22  C   UNL     1      49.002   4.627  19.471  0.00  0.00    +0.000 C 
ATOM     23  O   UNL     1      49.868   5.451  19.730  0.00  0.00    +0.000 OA
ATOM     24  H   UNL     1      49.087   3.730  21.287  0.00  0.00    +0.000 HD
ATOM     25  H   UNL     1      48.077   2.885  20.167  0.00  0.00    +0.000 HD
ENDBRANCH  15  22
ENDBRANCH  14  18
ENDBRANCH   1  14
TORSDOF 5
ENDMDL
MODEL 7
REMARK VINA RESULT:    -7.500      1.192      2.369
REMARK INTER + INTRA:         -10.557
REMARK INTER:                  -9.707
REMARK INTRA:                  -0.850
REMARK UNBOUND:                -0.865
REMARK  Name = 
REMARK  5 active torsions:
REMARK  status: ('A' for Active; 'I' for Inactive)
REMARK    1  A    between atoms: C_2  and  C_4
REMARK    2  A    between atoms: C_7  and  O_8
REMARK    3  A    between atoms: O_8  and  C_9
REMARK    4  A    between atoms: C_9  and  C_10
REMARK    5  A    between atoms: C_14  and  C_15
REMARK                            x       y       z     vdW  Elec       q    Type
REMARK                         _______ _______ _______ _____ _____    ______ ____
ROOT
ATOM      1  C   UNL     1      45.002   4.899  11.403  0.00  0.00    +0.000 C 
ENDROOT
BRANCH   1   2
ATOM      2  C   UNL     1      45.482   6.323  11.584  0.00  0.00    +0.000 A 
ATOM      3  C   UNL     1      44.563   7.353  11.813  0.00  0.00    +0.000 A 
ATOM      4  C   UNL     1      45.011   8.654  12.027  0.00  0.00    +0.000 A 
ATOM      5  C   UNL     1      46.381   8.931  12.047  0.00  0.00    +0.000 A 
ATOM      6  C   UNL     1      47.336   7.911  11.889  0.00  0.00    +0.000 A 
ATOM      7  C   UNL     1      46.854   6.614  11.638  0.00  0.00    +0.000 A 
BRANCH   6   8
ATOM      8  C   UNL     1      48.785   8.153  12.082  0.00  0.00    +0.000 A 
ATOM      9  C   UNL     1      49.729   7.620  11.186  0.00  0.00    +0.000 A 
ATOM     10  C   UNL     1      51.084   7.942  11.274  0.00  0.00    +0.000 A 
ATOM     11  C   UNL     1      51.531   8.810  12.264  0.00  0.00    +0.000 A 
ATOM     12  C   UNL     1      50.625   9.331  13.183  0.00  0.00    +0.000 A 
ATOM     13  C   UNL     1      49.269   8.995  13.100  0.00  0.00    +0.000 A 
ENDBRANCH   6   8
ENDBRANCH   1   2
BRANCH   1  14
ATOM     14  O   UNL     1      44.348   4.759  10.140  0.00  0.00    +0.000 OA
BRANCH  14  18
ATOM     15  C   UNL     1      46.690   2.797   7.386  0.00  0.00    +0.000 A 
ATOM     16  C   UNL     1      45.939   2.060   8.304  0.00  0.00    +0.000 A 
ATOM     17  C   UNL     1      45.151   2.738   9.236  0.00  0.00    +0.000 A 
ATOM     18  C   UNL     1      45.143   4.124   9.211  0.00  0.00    +0.000 A 
ATOM     19  N   UNL     1      45.866   4.861   8.340  0.00  0.00    +0.000 NA
ATOM     20  C   UNL     1      46.632   4.182   7.454  0.00  0.00    +0.000 A 
BRANCH  15  22
ATOM     21  N   UNL     1      47.825   2.918   5.240  0.00  0.00    +0.000 N 
ATOM     22  C   UNL     1      47.559   2.184   6.362  0.00  0.00    +0.000 C 
ATOM     23  O   UNL     1      48.060   1.080   6.528  0.00  0.00    +0.000 OA
ATOM     24  H   UNL     1      48.516   2.533   4.610  0.00  0.00    +0.000 HD
ATOM     25  H   UNL     1      47.649   3.912   5.188  0.00  0.00    +0.000 HD
ENDBRANCH  15  22
ENDBRANCH  14  18
ENDBRANCH   1  14
TORSDOF 5
ENDMDL
MODEL 8
REMARK VINA RESULT:    -6.750      5.006      8.269
REMARK INTER + INTRA:          -9.588
REMARK INTER:                  -8.810
REMARK INTRA:                  -0.779
REMARK UNBOUND:                -0.865
REMARK  Name = 
REMARK  5 active torsions:
REMARK  status: ('A' for Active; 'I' for Inactive)
REMARK    1  A    between atoms: C_2  and  C_4
REMARK    2  A    between atoms: C_7  and  O_8
REMARK    3  A    between atoms: O_8  and  C_9
REMARK    4  A    between atoms: C_9  and  C_10
REMARK    5  A    between atoms: C_14  and  C_15
REMARK                            x       y       z     vdW  Elec       q    Type
REMARK                         _______ _______ _______ _____ _____    ______ ____
ROOT
ATOM      1  C   UNL     1      48.168   6.951  14.012  0.00  0.00    +0.000 C 
ENDROOT
BRANCH   1   2
ATOM      2  C   UNL     1      46.951   7.086  13.122  0.00  0.00    +0.000 A 
ATOM      3  C   UNL     1      46.287   8.313  13.017  0.00  0.00    +0.000 A 
ATOM      4  C   UNL     1      45.197   8.447  12.162  0.00  0.00    +0.000 A 
ATOM      5  C   UNL     1      44.782   7.365  11.379  0.00  0.00    +0.000 A 
ATOM      6  C   UNL     1      45.466   6.137  11.406  0.00  0.00    +0.000 A 
ATOM      7  C   UNL     1      46.539   6.020  12.306  0.00  0.00    +0.000 A 
BRANCH   6   8
ATOM      8  C   UNL     1      45.153   5.041  10.459  0.00  0.00    +0.000 A 
ATOM      9  C   UNL     1      45.641   5.070   9.141  0.00  0.00    +0.000 A 
ATOM     10  C   UNL     1      45.469   3.989   8.274  0.00  0.00    +0.000 A 
ATOM     11  C   UNL     1      44.802   2.849   8.706  0.00  0.00    +0.000 A 
ATOM     12  C   UNL     1      44.283   2.802   9.996  0.00  0.00    +0.000 A 
ATOM     13  C   UNL     1      44.445   3.893  10.858  0.00  0.00    +0.000 A 
ENDBRANCH   6   8
ENDBRANCH   1   2
BRANCH   1  14
ATOM     14  O   UNL     1      48.302   5.599  14.457  0.00  0.00    +0.000 OA
BRANCH  14  18
ATOM     15  C   UNL     1      48.086   5.222  18.547  0.00  0.00    +0.000 A 
ATOM     16  C   UNL     1      47.405   4.314  17.733  0.00  0.00    +0.000 A 
ATOM     17  C   UNL     1      47.484   4.455  16.347  0.00  0.00    +0.000 A 
ATOM     18  C   UNL     1      48.242   5.496  15.830  0.00  0.00    +0.000 A 
ATOM     19  N   UNL     1      48.903   6.391  16.594  0.00  0.00    +0.000 NA
ATOM     20  C   UNL     1      48.802   6.241  17.937  0.00  0.00    +0.000 A 
BRANCH  15  22
ATOM     21  N   UNL     1      48.574   4.046  20.618  0.00  0.00    +0.000 N 
ATOM     22  C   UNL     1      48.068   5.168  20.023  0.00  0.00    +0.000 C 
ATOM     23  O   UNL     1      47.660   6.108  20.691  0.00  0.00    +0.000 OA
ATOM     24  H   UNL     1      48.664   4.079  21.625  0.00  0.00    +0.000 HD
ATOM     25  H   UNL     1      49.147   3.379  20.120  0.00  0.00    +0.000 HD
ENDBRANCH  15  22
ENDBRANCH  14  18
ENDBRANCH   1  14
TORSDOF 5
ENDMDL
MODEL 9
REMARK VINA RESULT:    -6.436      3.288      5.744
REMARK INTER + INTRA:          -9.182
REMARK INTER:                  -8.255
REMARK INTRA:                  -0.927
REMARK UNBOUND:                -0.865
REMARK  Name = 
REMARK  5 active torsions:
REMARK  status: ('A' for Active; 'I' for Inactive)
REMARK    1  A    between atoms: C_2  and  C_4
REMARK    2  A    between atoms: C_7  and  O_8
REMARK    3  A    between atoms: O_8  and  C_9
REMARK    4  A    between atoms: C_9  and  C_10
REMARK    5  A    between atoms: C_14  and  C_15
REMARK                            x       y       z     vdW  Elec       q    Type
REMARK                         _______ _______ _______ _____ _____    ______ ____
ROOT
ATOM      1  C   UNL     1      47.123   7.951  12.494  0.00  0.00    +0.000 C 
ENDROOT
BRANCH   1   2
ATOM      2  C   UNL     1      47.843   7.915  13.824  0.00  0.00    +0.000 A 
ATOM      3  C   UNL     1      48.187   9.106  14.473  0.00  0.00    +0.000 A 
ATOM      4  C   UNL     1      48.807   9.070  15.719  0.00  0.00    +0.000 A 
ATOM      5  C   UNL     1      49.058   7.844  16.343  0.00  0.00    +0.000 A 
ATOM      6  C   UNL     1      48.666   6.630  15.754  0.00  0.00    +0.000 A 
ATOM      7  C   UNL     1      48.076   6.695  14.480  0.00  0.00    +0.000 A 
BRANCH   6   8
ATOM      8  C   UNL     1      48.762   5.339  16.475  0.00  0.00    +0.000 A 
ATOM      9  C   UNL     1      47.743   4.376  16.364  0.00  0.00    +0.000 A 
ATOM     10  C   UNL     1      47.873   3.105  16.927  0.00  0.00    +0.000 A 
ATOM     11  C   UNL     1      49.030   2.764  17.618  0.00  0.00    +0.000 A 
ATOM     12  C   UNL     1      50.044   3.705  17.769  0.00  0.00    +0.000 A 
ATOM     13  C   UNL     1      49.905   4.983  17.215  0.00  0.00    +0.000 A 
ENDBRANCH   6   8
ENDBRANCH   1   2
BRANCH   1  14
ATOM     14  O   UNL     1      45.715   7.806  12.694  0.00  0.00    +0.000 OA
BRANCH  14  18
ATOM     15  C   UNL     1      44.384   4.146  11.372  0.00  0.00    +0.000 A 
ATOM     16  C   UNL     1      45.214   4.915  10.554  0.00  0.00    +0.000 A 
ATOM     17  C   UNL     1      45.656   6.157  11.013  0.00  0.00    +0.000 A 
ATOM     18  C   UNL     1      45.253   6.579  12.272  0.00  0.00    +0.000 A 
ATOM     19  N   UNL     1      44.445   5.858  13.079  0.00  0.00    +0.000 NA
ATOM     20  C   UNL     1      44.019   4.662  12.607  0.00  0.00    +0.000 A 
BRANCH  15  22
ATOM     21  N   UNL     1      44.452   2.190   9.930  0.00  0.00    +0.000 N 
ATOM     22  C   UNL     1      43.856   2.822  10.985  0.00  0.00    +0.000 C 
ATOM     23  O   UNL     1      42.950   2.289  11.611  0.00  0.00    +0.000 OA
ATOM     24  H   UNL     1      44.158   1.238   9.758  0.00  0.00    +0.000 HD
ATOM     25  H   UNL     1      45.351   2.474   9.565  0.00  0.00    +0.000 HD
ENDBRANCH  15  22
ENDBRANCH  14  18
ENDBRANCH   1  14
TORSDOF 5
ENDMDL
