MODEL 1
REMARK VINA RESULT:    -7.898      0.000      0.000
REMARK INTER + INTRA:          -9.773
REMARK INTER:                  -9.283
REMARK INTRA:                  -0.490
REMARK UNBOUND:                -0.490
REMARK  Name = 
REMARK  3 active torsions:
REMARK  status: ('A' for Active; 'I' for Inactive)
REMARK    1  A    between atoms: C_2  and  C_4
REMARK    2  A    between atoms: N_12  and  C_13
REMARK    3  A    between atoms: C_13  and  C_14
REMARK                            x       y       z     vdW  Elec       q    Type
REMARK                         _______ _______ _______ _____ _____    ______ ____
ROOT
ATOM      1  C   UNL     1      46.177   7.563  12.643  0.00  0.00    +0.000 A 
ATOM      2  C   UNL     1      45.462   7.509  11.447  0.00  0.00    +0.000 A 
ATOM      3  N   UNL     1      44.971   6.368  10.899  0.00  0.00    +0.000 NA
ATOM      4  C   UNL     1      45.223   5.239  11.575  0.00  0.00    +0.000 A 
ATOM      5  C   UNL     1      45.966   5.202  12.747  0.00  0.00    +0.000 A 
ATOM      6  C   UNL     1      46.461   6.368  13.305  0.00  0.00    +0.000 A 
ATOM      7  C   UNL     1      46.078   3.800  13.244  0.00  0.00    +0.000 C 
ATOM      8  C   UNL     1      45.306   3.009  12.162  0.00  0.00    +0.000 C 
ATOM      9  N   UNL     1      44.740   3.986  11.243  0.00  0.00    +0.000 N 
ENDROOT
BRANCH   1  11
ATOM     10  N   UNL     1      47.147   8.823  14.485  0.00  0.00    +0.000 N 
ATOM     11  C   UNL     1      46.642   8.842  13.215  0.00  0.00    +0.000 C 
ATOM     12  O   UNL     1      46.624   9.874  12.562  0.00  0.00    +0.000 OA
ATOM     13  H   UNL     1      47.574   9.684  14.805  0.00  0.00    +0.000 HD
ATOM     14  H   UNL     1      47.436   7.970  14.944  0.00  0.00    +0.000 HD
ENDBRANCH   1  11
BRANCH   9  15
ATOM     15  C   UNL     1      44.123   3.679   9.979  0.00  0.00    +0.000 C 
BRANCH  15  16
ATOM     16  C   UNL     1      45.153   3.228   8.966  0.00  0.00    +0.000 A 
ATOM     17  C   UNL     1      45.768   4.151   8.106  0.00  0.00    +0.000 A 
ATOM     18  C   UNL     1      46.656   3.719   7.117  0.00  0.00    +0.000 A 
ATOM     19  C   UNL     1      46.951   2.362   6.985  0.00  0.00    +0.000 A 
ATOM     20  C   UNL     1      46.362   1.442   7.847  0.00  0.00    +0.000 A 
ATOM     21 CL   UNL     1      46.732  -0.232   7.690  0.00  0.00    +0.000 Cl
ATOM     22  C   UNL     1      45.468   1.866   8.828  0.00  0.00    +0.000 A 
ENDBRANCH  15  16
ENDBRANCH   9  15
TORSDOF 3
ENDMDL
MODEL 2
REMARK VINA RESULT:    -7.689      2.110      2.911
REMARK INTER + INTRA:          -9.527
REMARK INTER:                  -9.056
REMARK INTRA:                  -0.471
REMARK UNBOUND:                -0.490
REMARK  Name = 
REMARK  3 active torsions:
REMARK  status: ('A' for Active; 'I' for Inactive)
REMARK    1  A    between atoms: C_2  and  C_4
REMARK    2  A    between atoms: N_12  and  C_13
REMARK    3  A    between atoms: C_13  and  C_14
REMARK                            x       y       z     vdW  Elec       q    Type
REMARK                         _______ _______ _______ _____ _____    ______ ____
ROOT
ATOM      1  C   UNL     1      46.719   4.459  14.315  0.00  0.00    +0.000 A 
ATOM      2  C   UNL     1      46.440   3.296  13.596  0.00  0.00    +0.000 A 
ATOM      3  N   UNL     1      45.756   3.266  12.424  0.00  0.00    +0.000 NA
ATOM      4  C   UNL     1      45.325   4.450  11.967  0.00  0.00    +0.000 A 
ATOM      5  C   UNL     1      45.521   5.645  12.645  0.00  0.00    +0.000 A 
ATOM      6  C   UNL     1      46.223   5.673  13.839  0.00  0.00    +0.000 A 
ATOM      7  C   UNL     1      44.913   6.776  11.885  0.00  0.00    +0.000 C 
ATOM      8  C   UNL     1      44.301   6.053  10.662  0.00  0.00    +0.000 C 
ATOM      9  N   UNL     1      44.692   4.654  10.755  0.00  0.00    +0.000 N 
ENDROOT
BRANCH   1  11
ATOM     10  N   UNL     1      47.131   3.561  16.539  0.00  0.00    +0.000 N 
ATOM     11  C   UNL     1      47.513   4.434  15.559  0.00  0.00    +0.000 C 
ATOM     12  O   UNL     1      48.507   5.131  15.692  0.00  0.00    +0.000 OA
ATOM     13  H   UNL     1      47.764   3.472  17.325  0.00  0.00    +0.000 HD
ATOM     14  H   UNL     1      46.505   2.786  16.364  0.00  0.00    +0.000 HD
ENDBRANCH   1  11
BRANCH   9  15
ATOM     15  C   UNL     1      44.170   3.589   9.940  0.00  0.00    +0.000 C 
BRANCH  15  16
ATOM     16  C   UNL     1      45.191   3.134   8.919  0.00  0.00    +0.000 A 
ATOM     17  C   UNL     1      45.796   4.054   8.048  0.00  0.00    +0.000 A 
ATOM     18  C   UNL     1      46.676   3.619   7.054  0.00  0.00    +0.000 A 
ATOM     19  C   UNL     1      46.972   2.262   6.925  0.00  0.00    +0.000 A 
ATOM     20  C   UNL     1      46.393   1.345   7.798  0.00  0.00    +0.000 A 
ATOM     21 CL   UNL     1      46.764  -0.329   7.646  0.00  0.00    +0.000 Cl
ATOM     22  C   UNL     1      45.507   1.772   8.785  0.00  0.00    +0.000 A 
ENDBRANCH  15  16
ENDBRANCH   9  15
TORSDOF 3
ENDMDL
MODEL 3
REMARK VINA RESULT:    -7.654      3.664      6.458
REMARK INTER + INTRA:          -9.486
REMARK INTER:                  -9.067
REMARK INTRA:                  -0.419
REMARK UNBOUND:                -0.490
REMARK  Name = 
REMARK  3 active torsions:
REMARK  status: ('A' for Active; 'I' for Inactive)
REMARK    1  A    between atoms: C_2  and  C_4
REMARK    2  A    between atoms: N_12  and  C_13
REMARK    3  A    between atoms: C_13  and  C_14
REMARK                            x       y       z     vdW  Elec       q    Type
REMARK                         _______ _______ _______ _____ _____    ______ ____
ROOT
ATOM      1  C   UNL     1      46.503   2.581   7.682  0.00  0.00    +0.000 A 
ATOM      2  C   UNL     1      46.403   3.973   7.660  0.00  0.00    +0.000 A 
ATOM      3  N   UNL     1      45.646   4.700   8.521  0.00  0.00    +0.000 NA
ATOM      4  C   UNL     1      44.954   3.999   9.429  0.00  0.00    +0.000 A 
ATOM      5  C   UNL     1      44.963   2.611   9.488  0.00  0.00    +0.000 A 
ATOM      6  C   UNL     1      45.739   1.873   8.610  0.00  0.00    +0.000 A 
ATOM      7  C   UNL     1      44.083   2.135  10.595  0.00  0.00    +0.000 C 
ATOM      8  C   UNL     1      43.531   3.464  11.164  0.00  0.00    +0.000 C 
ATOM      9  N   UNL     1      44.197   4.543  10.450  0.00  0.00    +0.000 N 
ENDROOT
BRANCH   1  11
ATOM     10  N   UNL     1      48.373   2.554   6.127  0.00  0.00    +0.000 N 
ATOM     11  C   UNL     1      47.383   1.849   6.751  0.00  0.00    +0.000 C 
ATOM     12  O   UNL     1      47.266   0.646   6.581  0.00  0.00    +0.000 OA
ATOM     13  H   UNL     1      49.040   2.006   5.595  0.00  0.00    +0.000 HD
ATOM     14  H   UNL     1      48.678   3.464   6.444  0.00  0.00    +0.000 HD
ENDBRANCH   1  11
BRANCH   9  15
ATOM     15  C   UNL     1      43.833   5.934  10.517  0.00  0.00    +0.000 C 
BRANCH  15  16
ATOM     16  C   UNL     1      44.750   6.692  11.452  0.00  0.00    +0.000 A 
ATOM     17  C   UNL     1      44.765   8.096  11.463  0.00  0.00    +0.000 A 
ATOM     18  C   UNL     1      45.671   8.791  12.268  0.00  0.00    +0.000 A 
ATOM     19  C   UNL     1      46.565   8.093  13.080  0.00  0.00    +0.000 A 
ATOM     20  C   UNL     1      46.543   6.702  13.092  0.00  0.00    +0.000 A 
ATOM     21 CL   UNL     1      47.640   5.840  14.101  0.00  0.00    +0.000 Cl
ATOM     22  C   UNL     1      45.649   6.003  12.284  0.00  0.00    +0.000 A 
ENDBRANCH  15  16
ENDBRANCH   9  15
TORSDOF 3
ENDMDL
MODEL 4
REMARK VINA RESULT:    -6.071      1.654      2.320
REMARK INTER + INTRA:          -7.626
REMARK INTER:                  -7.194
REMARK INTRA:                  -0.432
REMARK UNBOUND:                -0.490
REMARK  Name = 
REMARK  3 active torsions:
REMARK  status: ('A' for Active; 'I' for Inactive)
REMARK    1  A    between atoms: C_2  and  C_4
REMARK    2  A    between atoms: N_12  and  C_13
REMARK    3  A    between atoms: C_13  and  C_14
REMARK                            x       y       z     vdW  Elec       q    Type
REMARK                         _______ _______ _______ _____ _____    ______ ____
ROOT
ATOM      1  C   UNL     1      47.612   6.737  13.602  0.00  0.00    +0.000 A 
ATOM      2  C   UNL     1      47.542   5.386  13.258  0.00  0.00    +0.000 A 
ATOM      3  N   UNL     1      46.611   4.856  12.425  0.00  0.00    +0.000 NA
ATOM      4  C   UNL     1      45.709   5.715  11.931  0.00  0.00    +0.000 A 
ATOM      5  C   UNL     1      45.682   7.063  12.260  0.00  0.00    +0.000 A 
ATOM      6  C   UNL     1      46.636   7.602  13.108  0.00  0.00    +0.000 A 
ATOM      7  C   UNL     1      44.554   7.744  11.560  0.00  0.00    +0.000 C 
ATOM      8  C   UNL     1      43.901   6.575  10.786  0.00  0.00    +0.000 C 
ATOM      9  N   UNL     1      44.736   5.403  10.999  0.00  0.00    +0.000 N 
ENDROOT
BRANCH   1  11
ATOM     10  N   UNL     1      49.842   7.669  13.880  0.00  0.00    +0.000 N 
ATOM     11  C   UNL     1      48.680   7.264  14.474  0.00  0.00    +0.000 C 
ATOM     12  O   UNL     1      48.516   7.382  15.678  0.00  0.00    +0.000 OA
ATOM     13  H   UNL     1      50.505   8.143  14.481  0.00  0.00    +0.000 HD
ATOM     14  H   UNL     1      49.912   7.850  12.887  0.00  0.00    +0.000 HD
ENDBRANCH   1  11
BRANCH   9  15
ATOM     15  C   UNL     1      44.388   4.055  10.632  0.00  0.00    +0.000 C 
BRANCH  15  16
ATOM     16  C   UNL     1      45.221   3.577   9.463  0.00  0.00    +0.000 A 
ATOM     17  C   UNL     1      45.718   4.485   8.515  0.00  0.00    +0.000 A 
ATOM     18  C   UNL     1      46.417   4.031   7.393  0.00  0.00    +0.000 A 
ATOM     19  C   UNL     1      46.638   2.666   7.211  0.00  0.00    +0.000 A 
ATOM     20  C   UNL     1      46.167   1.760   8.156  0.00  0.00    +0.000 A 
ATOM     21 CL   UNL     1      46.447   0.075   7.937  0.00  0.00    +0.000 Cl
ATOM     22  C   UNL     1      45.461   2.206   9.272  0.00  0.00    +0.000 A 
ENDBRANCH  15  16
ENDBRANCH   9  15
TORSDOF 3
ENDMDL
MODEL 5
REMARK VINA RESULT:    -6.030      5.132      7.913
REMARK INTER + INTRA:          -7.578
REMARK INTER:                  -7.322
REMARK INTRA:                  -0.256
REMARK UNBOUND:                -0.490
REMARK  Name = 
REMARK  3 active torsions:
REMARK  status: ('A' for Active; 'I' for Inactive)
REMARK    1  A    between atoms: C_2  and  C_4
REMARK    2  A    between atoms: N_12  and  C_13
REMARK    3  A    between atoms: C_13  and  C_14
REMARK                            x       y       z     vdW  Elec       q    Type
REMARK                         _______ _______ _______ _____ _____    ______ ____
ROOT
ATOM      1  C   UNL     1      45.354   4.882  11.538  0.00  0.00    +0.000 A 
ATOM      2  C   UNL     1      45.227   3.803  12.413  0.00  0.00    +0.000 A 
ATOM      3  N   UNL     1      45.872   3.703  13.603  0.00  0.00    +0.000 NA
ATOM      4  C   UNL     1      46.683   4.722  13.917  0.00  0.00    +0.000 A 
ATOM      5  C   UNL     1      46.899   5.809  13.082  0.00  0.00    +0.000 A 
ATOM      6  C   UNL     1      46.237   5.910  11.869  0.00  0.00    +0.000 A 
ATOM      7  C   UNL     1      47.863   6.760  13.709  0.00  0.00    +0.000 C 
ATOM      8  C   UNL     1      48.203   6.046  15.038  0.00  0.00    +0.000 C 
ATOM      9  N   UNL     1      47.360   4.863  15.115  0.00  0.00    +0.000 N 
ENDROOT
BRANCH   1  11
ATOM     10  N   UNL     1      45.290   5.083   9.113  0.00  0.00    +0.000 N 
ATOM     11  C   UNL     1      44.587   4.958  10.279  0.00  0.00    +0.000 C 
ATOM     12  O   UNL     1      43.369   4.862  10.270  0.00  0.00    +0.000 OA
ATOM     13  H   UNL     1      44.750   5.004   8.260  0.00  0.00    +0.000 HD
ATOM     14  H   UNL     1      46.279   4.886   9.051  0.00  0.00    +0.000 HD
ENDBRANCH   1  11
BRANCH   9  15
ATOM     15  C   UNL     1      47.496   3.805  16.082  0.00  0.00    +0.000 C 
BRANCH  15  16
ATOM     16  C   UNL     1      48.203   4.295  17.327  0.00  0.00    +0.000 A 
ATOM     17  C   UNL     1      49.562   4.016  17.540  0.00  0.00    +0.000 A 
ATOM     18  C   UNL     1      50.190   4.399  18.728  0.00  0.00    +0.000 A 
ATOM     19  C   UNL     1      49.471   5.076  19.713  0.00  0.00    +0.000 A 
ATOM     20  C   UNL     1      48.128   5.375  19.503  0.00  0.00    +0.000 A 
ATOM     21 CL   UNL     1      47.242   6.219  20.714  0.00  0.00    +0.000 Cl
ATOM     22  C   UNL     1      47.495   4.988  18.324  0.00  0.00    +0.000 A 
ENDBRANCH  15  16
ENDBRANCH   9  15
TORSDOF 3
ENDMDL
MODEL 6
REMARK VINA RESULT:    -5.996      3.830      6.435
REMARK INTER + INTRA:          -7.538
REMARK INTER:                  -7.064
REMARK INTRA:                  -0.474
REMARK UNBOUND:                -0.490
REMARK  Name = 
REMARK  3 active torsions:
REMARK  status: ('A' for Active; 'I' for Inactive)
REMARK    1  A    between atoms: C_2  and  C_4
REMARK    2  A    between atoms: N_12  and  C_13
REMARK    3  A    between atoms: C_13  and  C_14
REMARK                            x       y       z     vdW  Elec       q    Type
REMARK                         _______ _______ _______ _____ _____    ______ ____
ROOT
ATOM      1  C   UNL     1      44.891   3.985  11.343  0.00  0.00    +0.000 A 
ATOM      2  C   UNL     1      45.077   5.162  10.617  0.00  0.00    +0.000 A 
ATOM      3  N   UNL     1      45.871   6.189  11.013  0.00  0.00    +0.000 NA
ATOM      4  C   UNL     1      46.491   6.029  12.190  0.00  0.00    +0.000 A 
ATOM      5  C   UNL     1      46.322   4.910  12.994  0.00  0.00    +0.000 A 
ATOM      6  C   UNL     1      45.514   3.862  12.585  0.00  0.00    +0.000 A 
ATOM      7  C   UNL     1      47.133   5.041  14.240  0.00  0.00    +0.000 C 
ATOM      8  C   UNL     1      47.786   6.432  14.057  0.00  0.00    +0.000 C 
ATOM      9  N   UNL     1      47.410   6.908  12.733  0.00  0.00    +0.000 N 
ENDROOT
BRANCH   1  11
ATOM     10  N   UNL     1      44.531   2.154   9.782  0.00  0.00    +0.000 N 
ATOM     11  C   UNL     1      44.053   2.881  10.835  0.00  0.00    +0.000 C 
ATOM     12  O   UNL     1      42.993   2.592  11.368  0.00  0.00    +0.000 OA
ATOM     13  H   UNL     1      44.000   1.327   9.537  0.00  0.00    +0.000 HD
ATOM     14  H   UNL     1      45.502   2.175   9.501  0.00  0.00    +0.000 HD
ENDBRANCH   1  11
BRANCH   9  15
ATOM     15  C   UNL     1      47.627   8.241  12.237  0.00  0.00    +0.000 C 
BRANCH  15  16
ATOM     16  C   UNL     1      49.105   8.530  12.083  0.00  0.00    +0.000 A 
ATOM     17  C   UNL     1      49.682   9.663  12.677  0.00  0.00    +0.000 A 
ATOM     18  C   UNL     1      51.028   9.970  12.464  0.00  0.00    +0.000 A 
ATOM     19  C   UNL     1      51.818   9.143  11.666  0.00  0.00    +0.000 A 
ATOM     20  C   UNL     1      51.260   8.005  11.089  0.00  0.00    +0.000 A 
ATOM     21 CL   UNL     1      52.235   6.978  10.111  0.00  0.00    +0.000 Cl
ATOM     22  C   UNL     1      49.915   7.699  11.290  0.00  0.00    +0.000 A 
ENDBRANCH  15  16
ENDBRANCH   9  15
TORSDOF 3
ENDMDL
MODEL 7
REMARK VINA RESULT:    -5.790      3.954      7.215
REMARK INTER + INTRA:          -7.295
REMARK INTER:                  -6.880
REMARK INTRA:                  -0.416
REMARK UNBOUND:                -0.490
REMARK  Name = 
REMARK  3 active torsions:
REMARK  status: ('A' for Active; 'I' for Inactive)
REMARK    1  A    between atoms: C_2  and  C_4
REMARK    2  A    between atoms: N_12  and  C_13
REMARK    3  A    between atoms: C_13  and  C_14
REMARK                            x       y       z     vdW  Elec       q    Type
REMARK                         _______ _______ _______ _____ _____    ______ ____
ROOT
ATOM      1  C   UNL     1      44.732   5.291  11.568  0.00  0.00    +0.000 A 
ATOM      2  C   UNL     1      45.734   4.557  12.203  0.00  0.00    +0.000 A 
ATOM      3  N   UNL     1      46.703   5.099  12.982  0.00  0.00    +0.000 NA
ATOM      4  C   UNL     1      46.670   6.431  13.117  0.00  0.00    +0.000 A 
ATOM      5  C   UNL     1      45.735   7.238  12.483  0.00  0.00    +0.000 A 
ATOM      6  C   UNL     1      44.745   6.681  11.691  0.00  0.00    +0.000 A 
ATOM      7  C   UNL     1      45.973   8.671  12.822  0.00  0.00    +0.000 C 
ATOM      8  C   UNL     1      47.217   8.585  13.738  0.00  0.00    +0.000 C 
ATOM      9  N   UNL     1      47.504   7.172  13.935  0.00  0.00    +0.000 N 
ENDROOT
BRANCH   1  11
ATOM     10  N   UNL     1      43.777   4.693   9.411  0.00  0.00    +0.000 N 
ATOM     11  C   UNL     1      43.673   4.639  10.773  0.00  0.00    +0.000 C 
ATOM     12  O   UNL     1      42.762   4.028  11.309  0.00  0.00    +0.000 OA
ATOM     13  H   UNL     1      43.111   4.132   8.893  0.00  0.00    +0.000 HD
ATOM     14  H   UNL     1      44.638   4.935   8.940  0.00  0.00    +0.000 HD
ENDBRANCH   1  11
BRANCH   9  15
ATOM     15  C   UNL     1      48.694   6.643  14.547  0.00  0.00    +0.000 C 
BRANCH  15  16
ATOM     16  C   UNL     1      48.409   6.144  15.948  0.00  0.00    +0.000 A 
ATOM     17  C   UNL     1      48.655   6.958  17.065  0.00  0.00    +0.000 A 
ATOM     18  C   UNL     1      48.468   6.464  18.359  0.00  0.00    +0.000 A 
ATOM     19  C   UNL     1      48.023   5.157  18.552  0.00  0.00    +0.000 A 
ATOM     20  C   UNL     1      47.757   4.349  17.451  0.00  0.00    +0.000 A 
ATOM     21 CL   UNL     1      47.199   2.738  17.688  0.00  0.00    +0.000 Cl
ATOM     22  C   UNL     1      47.950   4.833  16.158  0.00  0.00    +0.000 A 
ENDBRANCH  15  16
ENDBRANCH   9  15
TORSDOF 3
ENDMDL
MODEL 8
REMARK VINA RESULT:    -5.744      3.778      6.595
REMARK INTER + INTRA:          -7.242
REMARK INTER:                  -6.758
REMARK INTRA:                  -0.484
REMARK UNBOUND:                -0.490
REMARK  Name = 
REMARK  3 active torsions:
REMARK  status: ('A' for Active; 'I' for Inactive)
REMARK    1  A    between atoms: C_2  and  C_4
REMARK    2  A    between atoms: N_12  and  C_13
REMARK    3  A    between atoms: C_13  and  C_14
REMARK                            x       y       z     vdW  Elec       q    Type
REMARK                         _______ _______ _______ _____ _____    ______ ____
ROOT
ATOM      1  C   UNL     1      44.674   4.561  11.880  0.00  0.00    +0.000 A 
ATOM      2  C   UNL     1      45.736   4.594  12.785  0.00  0.00    +0.000 A 
ATOM      3  N   UNL     1      46.346   5.730  13.209  0.00  0.00    +0.000 NA
ATOM      4  C   UNL     1      45.877   6.874  12.693  0.00  0.00    +0.000 A 
ATOM      5  C   UNL     1      44.855   6.924  11.754  0.00  0.00    +0.000 A 
ATOM      6  C   UNL     1      44.233   5.763  11.326  0.00  0.00    +0.000 A 
ATOM      7  C   UNL     1      44.575   8.338  11.369  0.00  0.00    +0.000 C 
ATOM      8  C   UNL     1      45.615   9.115  12.211  0.00  0.00    +0.000 C 
ATOM      9  N   UNL     1      46.292   8.142  13.057  0.00  0.00    +0.000 N 
ENDROOT
BRANCH   1  11
ATOM     10  N   UNL     1      43.740   2.398  12.486  0.00  0.00    +0.000 N 
ATOM     11  C   UNL     1      44.018   3.296  11.495  0.00  0.00    +0.000 C 
ATOM     12  O   UNL     1      43.687   3.079  10.340  0.00  0.00    +0.000 OA
ATOM     13  H   UNL     1      43.178   1.599  12.216  0.00  0.00    +0.000 HD
ATOM     14  H   UNL     1      43.738   2.650  13.466  0.00  0.00    +0.000 HD
ENDBRANCH   1  11
BRANCH   9  15
ATOM     15  C   UNL     1      47.469   8.400  13.843  0.00  0.00    +0.000 C 
BRANCH  15  16
ATOM     16  C   UNL     1      48.605   8.898  12.976  0.00  0.00    +0.000 A 
ATOM     17  C   UNL     1      48.844  10.273  12.824  0.00  0.00    +0.000 A 
ATOM     18  C   UNL     1      49.841  10.729  11.958  0.00  0.00    +0.000 A 
ATOM     19  C   UNL     1      50.619   9.819  11.243  0.00  0.00    +0.000 A 
ATOM     20  C   UNL     1      50.403   8.453  11.403  0.00  0.00    +0.000 A 
ATOM     21 CL   UNL     1      51.367   7.328  10.528  0.00  0.00    +0.000 Cl
ATOM     22  C   UNL     1      49.403   7.992  12.258  0.00  0.00    +0.000 A 
ENDBRANCH  15  16
ENDBRANCH   9  15
TORSDOF 3
ENDMDL
MODEL 9
REMARK VINA RESULT:    -5.738      4.611      8.104
REMARK INTER + INTRA:          -7.234
REMARK INTER:                  -6.741
REMARK INTRA:                  -0.493
REMARK UNBOUND:                -0.490
REMARK  Name = 
REMARK  3 active torsions:
REMARK  status: ('A' for Active; 'I' for Inactive)
REMARK    1  A    between atoms: C_2  and  C_4
REMARK    2  A    between atoms: N_12  and  C_13
REMARK    3  A    between atoms: C_13  and  C_14
REMARK                            x       y       z     vdW  Elec       q    Type
REMARK                         _______ _______ _______ _____ _____    ______ ____
ROOT
ATOM      1  C   UNL     1      45.721   4.288  12.619  0.00  0.00    +0.000 A 
ATOM      2  C   UNL     1      46.554   4.039  13.710  0.00  0.00    +0.000 A 
ATOM      3  N   UNL     1      47.436   4.936  14.220  0.00  0.00    +0.000 NA
ATOM      4  C   UNL     1      47.490   6.122  13.599  0.00  0.00    +0.000 A 
ATOM      5  C   UNL     1      46.729   6.432  12.480  0.00  0.00    +0.000 A 
ATOM      6  C   UNL     1      45.827   5.516  11.965  0.00  0.00    +0.000 A 
ATOM      7  C   UNL     1      47.027   7.819  12.019  0.00  0.00    +0.000 C 
ATOM      8  C   UNL     1      48.109   8.270  13.029  0.00  0.00    +0.000 C 
ATOM      9  N   UNL     1      48.249   7.203  14.009  0.00  0.00    +0.000 N 
ENDROOT
BRANCH   1  11
ATOM     10  N   UNL     1      44.946   2.744  10.904  0.00  0.00    +0.000 N 
ATOM     11  C   UNL     1      44.744   3.289  12.141  0.00  0.00    +0.000 C 
ATOM     12  O   UNL     1      43.815   2.923  12.844  0.00  0.00    +0.000 OA
ATOM     13  H   UNL     1      44.338   1.973  10.655  0.00  0.00    +0.000 HD
ATOM     14  H   UNL     1      45.832   2.806  10.420  0.00  0.00    +0.000 HD
ENDBRANCH   1  11
BRANCH   9  15
ATOM     15  C   UNL     1      49.287   7.117  15.002  0.00  0.00    +0.000 C 
BRANCH  15  16
ATOM     16  C   UNL     1      48.760   7.482  16.373  0.00  0.00    +0.000 A 
ATOM     17  C   UNL     1      48.461   8.814  16.697  0.00  0.00    +0.000 A 
ATOM     18  C   UNL     1      48.053   9.158  17.989  0.00  0.00    +0.000 A 
ATOM     19  C   UNL     1      47.928   8.173  18.969  0.00  0.00    +0.000 A 
ATOM     20  C   UNL     1      48.202   6.846  18.651  0.00  0.00    +0.000 A 
ATOM     21 CL   UNL     1      48.039   5.628  19.857  0.00  0.00    +0.000 Cl
ATOM     22  C   UNL     1      48.618   6.499  17.367  0.00  0.00    +0.000 A 
ENDBRANCH  15  16
ENDBRANCH   9  15
TORSDOF 3
ENDMDL
