MODEL 1
REMARK VINA RESULT:    -9.075      0.000      0.000
REMARK INTER + INTRA:         -13.609
REMARK INTER:                 -12.789
REMARK INTRA:                  -0.820
REMARK UNBOUND:                -0.820
REMARK  Name = 
REMARK  8 active torsions:
REMARK  status: ('A' for Active; 'I' for Inactive)
REMARK    1  A    between atoms: C_1  and  C_2
REMARK    2  A    between atoms: C_4  and  C_5
REMARK    3  A    between atoms: C_10  and  N_11
REMARK    4  A    between atoms: N_11  and  C_12
REMARK    5  A    between atoms: C_12  and  C_13
REMARK    6  A    between atoms: C_17  and  C_18
REMARK    7  A    between atoms: C_21  and  O_22
REMARK    8  A    between atoms: O_22  and  C_23
REMARK                            x       y       z     vdW  Elec       q    Type
REMARK                         _______ _______ _______ _____ _____    ______ ____
ROOT
ATOM      1  C   UNL     1      44.143   5.047  11.517  0.00  0.00    +0.000 C 
ATOM      2  C   UNL     1      43.447   3.908  12.287  0.00  0.00    +0.000 C 
ATOM      3  C   UNL     1      43.003   5.301  12.501  0.00  0.00    +0.000 C 
ENDROOT
BRANCH   1   4
ATOM      4  C   UNL     1      45.517   5.469  12.045  0.00  0.00    +0.000 A 
ATOM      5  C   UNL     1      46.243   6.498  11.432  0.00  0.00    +0.000 A 
ATOM      6  C   UNL     1      47.431   6.963  11.987  0.00  0.00    +0.000 A 
ATOM      7  C   UNL     1      47.899   6.419  13.182  0.00  0.00    +0.000 A 
ATOM      8  C   UNL     1      47.189   5.407  13.854  0.00  0.00    +0.000 A 
ATOM      9  C   UNL     1      46.035   4.914  13.232  0.00  0.00    +0.000 A 
BRANCH   8  10
ATOM     10  C   UNL     1      47.562   4.976  15.217  0.00  0.00    +0.000 A 
ATOM     11  C   UNL     1      47.176   3.706  15.684  0.00  0.00    +0.000 A 
ATOM     12  C   UNL     1      47.569   3.228  16.934  0.00  0.00    +0.000 A 
ATOM     13  C   UNL     1      48.397   4.000  17.742  0.00  0.00    +0.000 A 
ATOM     14  C   UNL     1      48.778   5.271  17.314  0.00  0.00    +0.000 A 
ATOM     15  C   UNL     1      48.369   5.753  16.065  0.00  0.00    +0.000 A 
BRANCH  13  16
ATOM     16  O   UNL     1      48.877   3.623  18.962  0.00  0.00    +0.000 OA
BRANCH  16  17
ATOM     17  C   UNL     1      49.005   4.672  19.907  0.00  0.00    +0.000 C 
ATOM     18  F   UNL     1      48.381   4.271  21.042  0.00  0.00    +0.000 F 
ATOM     19  F   UNL     1      50.317   4.824  20.212  0.00  0.00    +0.000 F 
ENDBRANCH  16  17
ENDBRANCH  13  16
ENDBRANCH   8  10
ENDBRANCH   1   4
BRANCH   1  20
ATOM     20  N   UNL     1      44.142   4.840  10.059  0.00  0.00    +0.000 N 
ATOM     21  H   UNL     1      43.266   5.049   9.584  0.00  0.00    +0.000 HD
BRANCH  20  28
ATOM     22  C   UNL     1      44.118   1.751   9.745  0.00  0.00    +0.000 C 
ATOM     23  C   UNL     1      44.982   2.723   9.025  0.00  0.00    +0.000 A 
ATOM     24  C   UNL     1      45.940   2.167   8.159  0.00  0.00    +0.000 A 
ATOM     25  C   UNL     1      46.774   2.957   7.384  0.00  0.00    +0.000 A 
ATOM     26  C   UNL     1      46.602   4.319   7.516  0.00  0.00    +0.000 A 
ATOM     27  N   UNL     1      45.706   4.894   8.376  0.00  0.00    +0.000 NA
ATOM     28  C   UNL     1      44.908   4.107   9.154  0.00  0.00    +0.000 A 
BRANCH  25  29
ATOM     29  C   UNL     1      47.748   2.266   6.498  0.00  0.00    +0.000 C 
ATOM     30  N   UNL     1      48.098   2.820   5.304  0.00  0.00    +0.000 N 
ATOM     31  O   UNL     1      48.248   1.200   6.825  0.00  0.00    +0.000 OA
ATOM     32  H   UNL     1      47.769   3.700   4.934  0.00  0.00    +0.000 HD
ATOM     33  H   UNL     1      48.772   2.302   4.756  0.00  0.00    +0.000 HD
ENDBRANCH  25  29
ENDBRANCH  20  28
ENDBRANCH   1  20
TORSDOF 7
ENDMDL
MODEL 2
REMARK VINA RESULT:    -8.024      5.637      9.078
REMARK INTER + INTRA:         -12.128
REMARK INTER:                 -10.851
REMARK INTRA:                  -1.277
REMARK UNBOUND:                -0.820
REMARK  Name = 
REMARK  8 active torsions:
REMARK  status: ('A' for Active; 'I' for Inactive)
REMARK    1  A    between atoms: C_1  and  C_2
REMARK    2  A    between atoms: C_4  and  C_5
REMARK    3  A    between atoms: C_10  and  N_11
REMARK    4  A    between atoms: N_11  and  C_12
REMARK    5  A    between atoms: C_12  and  C_13
REMARK    6  A    between atoms: C_17  and  C_18
REMARK    7  A    between atoms: C_21  and  O_22
REMARK    8  A    between atoms: O_22  and  C_23
REMARK                            x       y       z     vdW  Elec       q    Type
REMARK                         _______ _______ _______ _____ _____    ______ ____
ROOT
ATOM      1  C   UNL     1      48.685   5.242  17.525  0.00  0.00    +0.000 C 
ATOM      2  C   UNL     1      48.001   5.999  18.679  0.00  0.00    +0.000 C 
ATOM      3  C   UNL     1      47.354   4.793  18.122  0.00  0.00    +0.000 C 
ENDROOT
BRANCH   1   4
ATOM      4  C   UNL     1      48.555   5.877  16.138  0.00  0.00    +0.000 A 
ATOM      5  C   UNL     1      49.515   6.779  15.662  0.00  0.00    +0.000 A 
ATOM      6  C   UNL     1      49.461   7.258  14.356  0.00  0.00    +0.000 A 
ATOM      7  C   UNL     1      48.455   6.820  13.497  0.00  0.00    +0.000 A 
ATOM      8  C   UNL     1      47.487   5.888  13.917  0.00  0.00    +0.000 A 
ATOM      9  C   UNL     1      47.529   5.482  15.256  0.00  0.00    +0.000 A 
BRANCH   8  10
ATOM     10  C   UNL     1      46.552   5.261  12.960  0.00  0.00    +0.000 A 
ATOM     11  C   UNL     1      46.226   5.923  11.761  0.00  0.00    +0.000 A 
ATOM     12  C   UNL     1      45.408   5.337  10.794  0.00  0.00    +0.000 A 
ATOM     13  C   UNL     1      44.921   4.049  10.987  0.00  0.00    +0.000 A 
ATOM     14  C   UNL     1      45.212   3.378  12.174  0.00  0.00    +0.000 A 
ATOM     15  C   UNL     1      46.020   3.975  13.149  0.00  0.00    +0.000 A 
BRANCH  13  16
ATOM     16  O   UNL     1      44.149   3.360  10.098  0.00  0.00    +0.000 OA
BRANCH  16  17
ATOM     17  C   UNL     1      44.866   2.675   9.085  0.00  0.00    +0.000 C 
ATOM     18  F   UNL     1      44.488   1.373   9.134  0.00  0.00    +0.000 F 
ATOM     19  F   UNL     1      44.474   3.153   7.878  0.00  0.00    +0.000 F 
ENDBRANCH  16  17
ENDBRANCH  13  16
ENDBRANCH   8  10
ENDBRANCH   1   4
BRANCH   1  20
ATOM     20  N   UNL     1      50.071   4.852  17.834  0.00  0.00    +0.000 N 
ATOM     21  H   UNL     1      50.730   5.620  17.947  0.00  0.00    +0.000 HD
BRANCH  20  28
ATOM     22  C   UNL     1      49.098   2.157  16.638  0.00  0.00    +0.000 C 
ATOM     23  C   UNL     1      50.430   2.453  17.227  0.00  0.00    +0.000 A 
ATOM     24  C   UNL     1      51.317   1.365  17.311  0.00  0.00    +0.000 A 
ATOM     25  C   UNL     1      52.611   1.509  17.788  0.00  0.00    +0.000 A 
ATOM     26  C   UNL     1      52.969   2.784  18.171  0.00  0.00    +0.000 A 
ATOM     27  N   UNL     1      52.121   3.857  18.138  0.00  0.00    +0.000 NA
ATOM     28  C   UNL     1      50.841   3.699  17.691  0.00  0.00    +0.000 A 
BRANCH  25  29
ATOM     29  C   UNL     1      53.467   0.294  17.831  0.00  0.00    +0.000 C 
ATOM     30  N   UNL     1      53.863  -0.303  16.672  0.00  0.00    +0.000 N 
ATOM     31  O   UNL     1      53.827  -0.185  18.896  0.00  0.00    +0.000 OA
ATOM     32  H   UNL     1      53.646   0.006  15.736  0.00  0.00    +0.000 HD
ATOM     33  H   UNL     1      54.450  -1.121  16.773  0.00  0.00    +0.000 HD
ENDBRANCH  25  29
ENDBRANCH  20  28
ENDBRANCH   1  20
TORSDOF 7
ENDMDL
MODEL 3
REMARK VINA RESULT:    -7.893      4.835      8.991
REMARK INTER + INTRA:         -11.942
REMARK INTER:                 -10.526
REMARK INTRA:                  -1.416
REMARK UNBOUND:                -0.820
REMARK  Name = 
REMARK  8 active torsions:
REMARK  status: ('A' for Active; 'I' for Inactive)
REMARK    1  A    between atoms: C_1  and  C_2
REMARK    2  A    between atoms: C_4  and  C_5
REMARK    3  A    between atoms: C_10  and  N_11
REMARK    4  A    between atoms: N_11  and  C_12
REMARK    5  A    between atoms: C_12  and  C_13
REMARK    6  A    between atoms: C_17  and  C_18
REMARK    7  A    between atoms: C_21  and  O_22
REMARK    8  A    between atoms: O_22  and  C_23
REMARK                            x       y       z     vdW  Elec       q    Type
REMARK                         _______ _______ _______ _____ _____    ______ ____
ROOT
ATOM      1  C   UNL     1      48.171   8.074  13.716  0.00  0.00    +0.000 C 
ATOM      2  C   UNL     1      49.224   8.959  13.020  0.00  0.00    +0.000 C 
ATOM      3  C   UNL     1      48.428   9.521  14.131  0.00  0.00    +0.000 C 
ENDROOT
BRANCH   1   4
ATOM      4  C   UNL     1      46.857   7.876  12.957  0.00  0.00    +0.000 A 
ATOM      5  C   UNL     1      45.965   8.938  12.763  0.00  0.00    +0.000 A 
ATOM      6  C   UNL     1      44.834   8.786  11.967  0.00  0.00    +0.000 A 
ATOM      7  C   UNL     1      44.592   7.570  11.329  0.00  0.00    +0.000 A 
ATOM      8  C   UNL     1      45.476   6.483  11.465  0.00  0.00    +0.000 A 
ATOM      9  C   UNL     1      46.565   6.649  12.329  0.00  0.00    +0.000 A 
BRANCH   8  10
ATOM     10  C   UNL     1      45.342   5.270  10.631  0.00  0.00    +0.000 A 
ATOM     11  C   UNL     1      45.739   5.298   9.281  0.00  0.00    +0.000 A 
ATOM     12  C   UNL     1      45.701   4.158   8.477  0.00  0.00    +0.000 A 
ATOM     13  C   UNL     1      45.296   2.943   9.018  0.00  0.00    +0.000 A 
ATOM     14  C   UNL     1      44.878   2.891  10.346  0.00  0.00    +0.000 A 
ATOM     15  C   UNL     1      44.903   4.039  11.146  0.00  0.00    +0.000 A 
BRANCH  13  16
ATOM     16  O   UNL     1      45.256   1.758   8.343  0.00  0.00    +0.000 OA
BRANCH  16  17
ATOM     17  C   UNL     1      46.512   1.286   7.884  0.00  0.00    +0.000 C 
ATOM     18  F   UNL     1      46.463  -0.069   7.899  0.00  0.00    +0.000 F 
ATOM     19  F   UNL     1      46.669   1.660   6.591  0.00  0.00    +0.000 F 
ENDBRANCH  16  17
ENDBRANCH  13  16
ENDBRANCH   8  10
ENDBRANCH   1   4
BRANCH   1  20
ATOM     20  N   UNL     1      48.727   6.805  14.216  0.00  0.00    +0.000 N 
ATOM     21  H   UNL     1      48.972   6.120  13.504  0.00  0.00    +0.000 HD
BRANCH  20  28
ATOM     22  C   UNL     1      46.951   4.347  14.883  0.00  0.00    +0.000 C 
ATOM     23  C   UNL     1      47.887   5.057  15.795  0.00  0.00    +0.000 A 
ATOM     24  C   UNL     1      47.910   4.601  17.124  0.00  0.00    +0.000 A 
ATOM     25  C   UNL     1      48.774   5.134  18.067  0.00  0.00    +0.000 A 
ATOM     26  C   UNL     1      49.607   6.136  17.617  0.00  0.00    +0.000 A 
ATOM     27  N   UNL     1      49.585   6.630  16.341  0.00  0.00    +0.000 NA
ATOM     28  C   UNL     1      48.712   6.116  15.427  0.00  0.00    +0.000 A 
BRANCH  25  29
ATOM     29  C   UNL     1      48.720   4.575  19.444  0.00  0.00    +0.000 C 
ATOM     30  N   UNL     1      48.335   3.283  19.641  0.00  0.00    +0.000 N 
ATOM     31  O   UNL     1      49.018   5.258  20.413  0.00  0.00    +0.000 OA
ATOM     32  H   UNL     1      48.084   2.618  18.924  0.00  0.00    +0.000 HD
ATOM     33  H   UNL     1      48.328   2.964  20.601  0.00  0.00    +0.000 HD
ENDBRANCH  25  29
ENDBRANCH  20  28
ENDBRANCH   1  20
TORSDOF 7
ENDMDL
MODEL 4
REMARK VINA RESULT:    -7.869      4.764      9.119
REMARK INTER + INTRA:         -11.909
REMARK INTER:                 -10.530
REMARK INTRA:                  -1.380
REMARK UNBOUND:                -0.820
REMARK  Name = 
REMARK  8 active torsions:
REMARK  status: ('A' for Active; 'I' for Inactive)
REMARK    1  A    between atoms: C_1  and  C_2
REMARK    2  A    between atoms: C_4  and  C_5
REMARK    3  A    between atoms: C_10  and  N_11
REMARK    4  A    between atoms: N_11  and  C_12
REMARK    5  A    between atoms: C_12  and  C_13
REMARK    6  A    between atoms: C_17  and  C_18
REMARK    7  A    between atoms: C_21  and  O_22
REMARK    8  A    between atoms: O_22  and  C_23
REMARK                            x       y       z     vdW  Elec       q    Type
REMARK                         _______ _______ _______ _____ _____    ______ ____
ROOT
ATOM      1  C   UNL     1      48.404   8.175  13.320  0.00  0.00    +0.000 C 
ATOM      2  C   UNL     1      49.416   8.846  12.371  0.00  0.00    +0.000 C 
ATOM      3  C   UNL     1      48.747   9.660  13.407  0.00  0.00    +0.000 C 
ENDROOT
BRANCH   1   4
ATOM      4  C   UNL     1      47.019   7.897  12.731  0.00  0.00    +0.000 A 
ATOM      5  C   UNL     1      46.047   8.903  12.657  0.00  0.00    +0.000 A 
ATOM      6  C   UNL     1      44.836   8.682  12.009  0.00  0.00    +0.000 A 
ATOM      7  C   UNL     1      44.588   7.453  11.400  0.00  0.00    +0.000 A 
ATOM      8  C   UNL     1      45.546   6.422  11.416  0.00  0.00    +0.000 A 
ATOM      9  C   UNL     1      46.723   6.653  12.137  0.00  0.00    +0.000 A 
BRANCH   8  10
ATOM     10  C   UNL     1      45.380   5.202  10.598  0.00  0.00    +0.000 A 
ATOM     11  C   UNL     1      45.717   5.221   9.232  0.00  0.00    +0.000 A 
ATOM     12  C   UNL     1      45.649   4.074   8.439  0.00  0.00    +0.000 A 
ATOM     13  C   UNL     1      45.273   2.862   9.006  0.00  0.00    +0.000 A 
ATOM     14  C   UNL     1      44.914   2.818  10.353  0.00  0.00    +0.000 A 
ATOM     15  C   UNL     1      44.969   3.973  11.141  0.00  0.00    +0.000 A 
BRANCH  13  16
ATOM     16  O   UNL     1      45.208   1.671   8.343  0.00  0.00    +0.000 OA
BRANCH  16  17
ATOM     17  C   UNL     1      46.455   1.165   7.897  0.00  0.00    +0.000 C 
ATOM     18  F   UNL     1      46.364  -0.189   7.900  0.00  0.00    +0.000 F 
ATOM     19  F   UNL     1      46.642   1.543   6.609  0.00  0.00    +0.000 F 
ENDBRANCH  16  17
ENDBRANCH  13  16
ENDBRANCH   8  10
ENDBRANCH   1   4
BRANCH   1  20
ATOM     20  N   UNL     1      48.960   7.004  14.020  0.00  0.00    +0.000 N 
ATOM     21  H   UNL     1      49.221   6.219  13.427  0.00  0.00    +0.000 HD
BRANCH  20  28
ATOM     22  C   UNL     1      50.314   8.318  16.486  0.00  0.00    +0.000 C 
ATOM     23  C   UNL     1      49.578   7.027  16.443  0.00  0.00    +0.000 A 
ATOM     24  C   UNL     1      49.559   6.293  17.641  0.00  0.00    +0.000 A 
ATOM     25  C   UNL     1      48.865   5.099  17.759  0.00  0.00    +0.000 A 
ATOM     26  C   UNL     1      48.195   4.682  16.629  0.00  0.00    +0.000 A 
ATOM     27  N   UNL     1      48.223   5.352  15.436  0.00  0.00    +0.000 NA
ATOM     28  C   UNL     1      48.931   6.512  15.323  0.00  0.00    +0.000 A 
BRANCH  25  29
ATOM     29  C   UNL     1      48.907   4.406  19.075  0.00  0.00    +0.000 C 
ATOM     30  N   UNL     1      48.242   3.230  19.248  0.00  0.00    +0.000 N 
ATOM     31  O   UNL     1      49.535   4.874  20.012  0.00  0.00    +0.000 OA
ATOM     32  H   UNL     1      47.706   2.737  18.548  0.00  0.00    +0.000 HD
ATOM     33  H   UNL     1      48.320   2.808  20.164  0.00  0.00    +0.000 HD
ENDBRANCH  25  29
ENDBRANCH  20  28
ENDBRANCH   1  20
TORSDOF 7
ENDMDL
MODEL 5
REMARK VINA RESULT:    -7.029      3.182      4.953
REMARK INTER + INTRA:         -10.725
REMARK INTER:                  -9.327
REMARK INTRA:                  -1.398
REMARK UNBOUND:                -0.820
REMARK  Name = 
REMARK  8 active torsions:
REMARK  status: ('A' for Active; 'I' for Inactive)
REMARK    1  A    between atoms: C_1  and  C_2
REMARK    2  A    between atoms: C_4  and  C_5
REMARK    3  A    between atoms: C_10  and  N_11
REMARK    4  A    between atoms: N_11  and  C_12
REMARK    5  A    between atoms: C_12  and  C_13
REMARK    6  A    between atoms: C_17  and  C_18
REMARK    7  A    between atoms: C_21  and  O_22
REMARK    8  A    between atoms: O_22  and  C_23
REMARK                            x       y       z     vdW  Elec       q    Type
REMARK                         _______ _______ _______ _____ _____    ______ ____
ROOT
ATOM      1  C   UNL     1      48.440   7.744  12.737  0.00  0.00    +0.000 C 
ATOM      2  C   UNL     1      48.969   8.825  11.774  0.00  0.00    +0.000 C 
ATOM      3  C   UNL     1      49.639   7.508  11.822  0.00  0.00    +0.000 C 
ENDROOT
BRANCH   1   4
ATOM      4  C   UNL     1      48.817   7.921  14.211  0.00  0.00    +0.000 A 
ATOM      5  C   UNL     1      48.229   8.923  14.993  0.00  0.00    +0.000 A 
ATOM      6  C   UNL     1      48.478   9.001  16.360  0.00  0.00    +0.000 A 
ATOM      7  C   UNL     1      49.304   8.059  16.971  0.00  0.00    +0.000 A 
ATOM      8  C   UNL     1      49.891   7.013  16.234  0.00  0.00    +0.000 A 
ATOM      9  C   UNL     1      49.676   7.006  14.851  0.00  0.00    +0.000 A 
BRANCH   8  10
ATOM     10  C   UNL     1      50.590   5.896  16.903  0.00  0.00    +0.000 A 
ATOM     11  C   UNL     1      49.857   4.789  17.370  0.00  0.00    +0.000 A 
ATOM     12  C   UNL     1      50.482   3.678  17.940  0.00  0.00    +0.000 A 
ATOM     13  C   UNL     1      51.869   3.631  18.023  0.00  0.00    +0.000 A 
ATOM     14  C   UNL     1      52.618   4.722  17.587  0.00  0.00    +0.000 A 
ATOM     15  C   UNL     1      51.988   5.841  17.030  0.00  0.00    +0.000 A 
BRANCH  13  16
ATOM     16  O   UNL     1      52.590   2.585  18.521  0.00  0.00    +0.000 OA
BRANCH  16  17
ATOM     17  C   UNL     1      52.733   1.482  17.642  0.00  0.00    +0.000 C 
ATOM     18  F   UNL     1      53.485   0.552  18.281  0.00  0.00    +0.000 F 
ATOM     19  F   UNL     1      51.512   0.929  17.438  0.00  0.00    +0.000 F 
ENDBRANCH  16  17
ENDBRANCH  13  16
ENDBRANCH   8  10
ENDBRANCH   1   4
BRANCH   1  20
ATOM     20  N   UNL     1      47.006   7.464  12.555  0.00  0.00    +0.000 N 
ATOM     21  H   UNL     1      46.368   8.150  12.954  0.00  0.00    +0.000 HD
BRANCH  20  28
ATOM     22  C   UNL     1      46.863   4.889  14.285  0.00  0.00    +0.000 C 
ATOM     23  C   UNL     1      46.193   5.137  12.982  0.00  0.00    +0.000 A 
ATOM     24  C   UNL     1      45.475   4.054  12.447  0.00  0.00    +0.000 A 
ATOM     25  C   UNL     1      44.756   4.162  11.266  0.00  0.00    +0.000 A 
ATOM     26  C   UNL     1      44.792   5.396  10.654  0.00  0.00    +0.000 A 
ATOM     27  N   UNL     1      45.511   6.461  11.127  0.00  0.00    +0.000 NA
ATOM     28  C   UNL     1      46.236   6.336  12.276  0.00  0.00    +0.000 A 
BRANCH  25  29
ATOM     29  C   UNL     1      44.028   2.955  10.793  0.00  0.00    +0.000 C 
ATOM     30  N   UNL     1      43.388   2.149  11.686  0.00  0.00    +0.000 N 
ATOM     31  O   UNL     1      43.990   2.669   9.605  0.00  0.00    +0.000 OA
ATOM     32  H   UNL     1      43.333   2.289  12.684  0.00  0.00    +0.000 HD
ATOM     33  H   UNL     1      42.906   1.350  11.295  0.00  0.00    +0.000 HD
ENDBRANCH  25  29
ENDBRANCH  20  28
ENDBRANCH   1  20
TORSDOF 7
ENDMDL
MODEL 6
REMARK VINA RESULT:    -6.920      5.493      7.372
REMARK INTER + INTRA:         -10.572
REMARK INTER:                  -9.148
REMARK INTRA:                  -1.425
REMARK UNBOUND:                -0.820
REMARK  Name = 
REMARK  8 active torsions:
REMARK  status: ('A' for Active; 'I' for Inactive)
REMARK    1  A    between atoms: C_1  and  C_2
REMARK    2  A    between atoms: C_4  and  C_5
REMARK    3  A    between atoms: C_10  and  N_11
REMARK    4  A    between atoms: N_11  and  C_12
REMARK    5  A    between atoms: C_12  and  C_13
REMARK    6  A    between atoms: C_17  and  C_18
REMARK    7  A    between atoms: C_21  and  O_22
REMARK    8  A    between atoms: O_22  and  C_23
REMARK                            x       y       z     vdW  Elec       q    Type
REMARK                         _______ _______ _______ _____ _____    ______ ____
ROOT
ATOM      1  C   UNL     1      52.500   8.551  11.969  0.00  0.00    +0.000 C 
ATOM      2  C   UNL     1      53.346   9.516  12.822  0.00  0.00    +0.000 C 
ATOM      3  C   UNL     1      53.016   8.179  13.356  0.00  0.00    +0.000 C 
ENDROOT
BRANCH   1   4
ATOM      4  C   UNL     1      50.997   8.838  11.927  0.00  0.00    +0.000 A 
ATOM      5  C   UNL     1      50.497   9.996  11.318  0.00  0.00    +0.000 A 
ATOM      6  C   UNL     1      49.128  10.192  11.170  0.00  0.00    +0.000 A 
ATOM      7  C   UNL     1      48.235   9.216  11.610  0.00  0.00    +0.000 A 
ATOM      8  C   UNL     1      48.688   8.020  12.198  0.00  0.00    +0.000 A 
ATOM      9  C   UNL     1      50.068   7.887  12.394  0.00  0.00    +0.000 A 
BRANCH   8  10
ATOM     10  C   UNL     1      47.767   6.897  12.471  0.00  0.00    +0.000 A 
ATOM     11  C   UNL     1      47.880   6.173  13.672  0.00  0.00    +0.000 A 
ATOM     12  C   UNL     1      46.986   5.155  14.006  0.00  0.00    +0.000 A 
ATOM     13  C   UNL     1      45.926   4.858  13.157  0.00  0.00    +0.000 A 
ATOM     14  C   UNL     1      45.802   5.545  11.951  0.00  0.00    +0.000 A 
ATOM     15  C   UNL     1      46.710   6.556  11.612  0.00  0.00    +0.000 A 
BRANCH  13  16
ATOM     16  O   UNL     1      44.969   3.914  13.396  0.00  0.00    +0.000 OA
BRANCH  16  17
ATOM     17  C   UNL     1      43.775   4.069  12.648  0.00  0.00    +0.000 C 
ATOM     18  F   UNL     1      43.352   2.827  12.303  0.00  0.00    +0.000 F 
ATOM     19  F   UNL     1      42.823   4.599  13.454  0.00  0.00    +0.000 F 
ENDBRANCH  16  17
ENDBRANCH  13  16
ENDBRANCH   8  10
ENDBRANCH   1   4
BRANCH   1  20
ATOM     20  N   UNL     1      53.065   8.325  10.627  0.00  0.00    +0.000 N 
ATOM     21  H   UNL     1      53.206   9.159  10.062  0.00  0.00    +0.000 HD
BRANCH  20  28
ATOM     22  C   UNL     1      54.807   5.790  11.058  0.00  0.00    +0.000 C 
ATOM     23  C   UNL     1      53.978   6.123   9.870  0.00  0.00    +0.000 A 
ATOM     24  C   UNL     1      54.053   5.216   8.798  0.00  0.00    +0.000 A 
ATOM     25  C   UNL     1      53.292   5.373   7.650  0.00  0.00    +0.000 A 
ATOM     26  C   UNL     1      52.459   6.471   7.630  0.00  0.00    +0.000 A 
ATOM     27  N   UNL     1      52.388   7.393   8.638  0.00  0.00    +0.000 NA
ATOM     28  C   UNL     1      53.161   7.243   9.753  0.00  0.00    +0.000 A 
BRANCH  25  29
ATOM     29  C   UNL     1      53.446   4.353   6.579  0.00  0.00    +0.000 C 
ATOM     30  N   UNL     1      53.104   3.056   6.817  0.00  0.00    +0.000 N 
ATOM     31  O   UNL     1      53.876   4.659   5.477  0.00  0.00    +0.000 OA
ATOM     32  H   UNL     1      52.723   2.686   7.676  0.00  0.00    +0.000 HD
ATOM     33  H   UNL     1      53.226   2.417   6.043  0.00  0.00    +0.000 HD
ENDBRANCH  25  29
ENDBRANCH  20  28
ENDBRANCH   1  20
TORSDOF 7
ENDMDL
MODEL 7
REMARK VINA RESULT:    -6.416      4.549      6.793
REMARK INTER + INTRA:          -9.862
REMARK INTER:                  -8.797
REMARK INTRA:                  -1.064
REMARK UNBOUND:                -0.820
REMARK  Name = 
REMARK  8 active torsions:
REMARK  status: ('A' for Active; 'I' for Inactive)
REMARK    1  A    between atoms: C_1  and  C_2
REMARK    2  A    between atoms: C_4  and  C_5
REMARK    3  A    between atoms: C_10  and  N_11
REMARK    4  A    between atoms: N_11  and  C_12
REMARK    5  A    between atoms: C_12  and  C_13
REMARK    6  A    between atoms: C_17  and  C_18
REMARK    7  A    between atoms: C_21  and  O_22
REMARK    8  A    between atoms: O_22  and  C_23
REMARK                            x       y       z     vdW  Elec       q    Type
REMARK                         _______ _______ _______ _____ _____    ______ ____
ROOT
ATOM      1  C   UNL     1      47.258   4.495  15.781  0.00  0.00    +0.000 C 
ATOM      2  C   UNL     1      47.866   3.107  15.501  0.00  0.00    +0.000 C 
ATOM      3  C   UNL     1      47.386   3.425  16.862  0.00  0.00    +0.000 C 
ENDROOT
BRANCH   1   4
ATOM      4  C   UNL     1      48.258   5.645  15.931  0.00  0.00    +0.000 A 
ATOM      5  C   UNL     1      48.878   5.910  17.159  0.00  0.00    +0.000 A 
ATOM      6  C   UNL     1      49.878   6.872  17.263  0.00  0.00    +0.000 A 
ATOM      7  C   UNL     1      50.291   7.569  16.129  0.00  0.00    +0.000 A 
ATOM      8  C   UNL     1      49.723   7.316  14.866  0.00  0.00    +0.000 A 
ATOM      9  C   UNL     1      48.672   6.392  14.811  0.00  0.00    +0.000 A 
BRANCH   8  10
ATOM     10  C   UNL     1      50.296   7.892  13.632  0.00  0.00    +0.000 A 
ATOM     11  C   UNL     1      51.538   8.553  13.677  0.00  0.00    +0.000 A 
ATOM     12  C   UNL     1      52.153   9.046  12.525  0.00  0.00    +0.000 A 
ATOM     13  C   UNL     1      51.553   8.858  11.285  0.00  0.00    +0.000 A 
ATOM     14  C   UNL     1      50.313   8.225  11.214  0.00  0.00    +0.000 A 
ATOM     15  C   UNL     1      49.692   7.745  12.372  0.00  0.00    +0.000 A 
BRANCH  13  16
ATOM     16  O   UNL     1      52.077   9.259  10.090  0.00  0.00    +0.000 OA
BRANCH  16  17
ATOM     17  C   UNL     1      53.035   8.378   9.529  0.00  0.00    +0.000 C 
ATOM     18  F   UNL     1      52.376   7.556   8.675  0.00  0.00    +0.000 F 
ATOM     19  F   UNL     1      53.907   9.101   8.785  0.00  0.00    +0.000 F 
ENDBRANCH  16  17
ENDBRANCH  13  16
ENDBRANCH   8  10
ENDBRANCH   1   4
BRANCH   1  20
ATOM     20  N   UNL     1      46.150   4.832  14.871  0.00  0.00    +0.000 N 
ATOM     21  H   UNL     1      45.264   5.053  15.318  0.00  0.00    +0.000 HD
BRANCH  20  28
ATOM     22  C   UNL     1      46.035   7.007  12.658  0.00  0.00    +0.000 C 
ATOM     23  C   UNL     1      45.729   5.559  12.515  0.00  0.00    +0.000 A 
ATOM     24  C   UNL     1      45.269   5.152  11.251  0.00  0.00    +0.000 A 
ATOM     25  C   UNL     1      44.999   3.824  10.961  0.00  0.00    +0.000 A 
ATOM     26  C   UNL     1      45.211   2.932  11.990  0.00  0.00    +0.000 A 
ATOM     27  N   UNL     1      45.622   3.297  13.244  0.00  0.00    +0.000 NA
ATOM     28  C   UNL     1      45.860   4.611  13.526  0.00  0.00    +0.000 A 
BRANCH  25  29
ATOM     29  C   UNL     1      44.521   3.503   9.590  0.00  0.00    +0.000 C 
ATOM     30  N   UNL     1      44.088   4.498   8.767  0.00  0.00    +0.000 N 
ATOM     31  O   UNL     1      44.510   2.351   9.182  0.00  0.00    +0.000 OA
ATOM     32  H   UNL     1      44.066   5.485   8.982  0.00  0.00    +0.000 HD
ATOM     33  H   UNL     1      43.785   4.211   7.846  0.00  0.00    +0.000 HD
ENDBRANCH  25  29
ENDBRANCH  20  28
ENDBRANCH   1  20
TORSDOF 7
ENDMDL
MODEL 8
REMARK VINA RESULT:    -6.354      5.712      9.423
REMARK INTER + INTRA:          -9.774
REMARK INTER:                  -8.626
REMARK INTRA:                  -1.148
REMARK UNBOUND:                -0.820
REMARK  Name = 
REMARK  8 active torsions:
REMARK  status: ('A' for Active; 'I' for Inactive)
REMARK    1  A    between atoms: C_1  and  C_2
REMARK    2  A    between atoms: C_4  and  C_5
REMARK    3  A    between atoms: C_10  and  N_11
REMARK    4  A    between atoms: N_11  and  C_12
REMARK    5  A    between atoms: C_12  and  C_13
REMARK    6  A    between atoms: C_17  and  C_18
REMARK    7  A    between atoms: C_21  and  O_22
REMARK    8  A    between atoms: O_22  and  C_23
REMARK                            x       y       z     vdW  Elec       q    Type
REMARK                         _______ _______ _______ _____ _____    ______ ____
ROOT
ATOM      1  C   UNL     1      48.445   4.719  16.691  0.00  0.00    +0.000 C 
ATOM      2  C   UNL     1      47.291   4.189  17.564  0.00  0.00    +0.000 C 
ATOM      3  C   UNL     1      47.861   3.320  16.514  0.00  0.00    +0.000 C 
ENDROOT
BRANCH   1   4
ATOM      4  C   UNL     1      48.049   5.696  15.581  0.00  0.00    +0.000 A 
ATOM      5  C   UNL     1      48.596   6.984  15.521  0.00  0.00    +0.000 A 
ATOM      6  C   UNL     1      48.331   7.825  14.444  0.00  0.00    +0.000 A 
ATOM      7  C   UNL     1      47.531   7.376  13.394  0.00  0.00    +0.000 A 
ATOM      8  C   UNL     1      46.987   6.079  13.391  0.00  0.00    +0.000 A 
ATOM      9  C   UNL     1      47.215   5.286  14.522  0.00  0.00    +0.000 A 
BRANCH   8  10
ATOM     10  C   UNL     1      46.320   5.525  12.194  0.00  0.00    +0.000 A 
ATOM     11  C   UNL     1      45.591   4.325  12.288  0.00  0.00    +0.000 A 
ATOM     12  C   UNL     1      44.883   3.805  11.204  0.00  0.00    +0.000 A 
ATOM     13  C   UNL     1      44.856   4.496   9.998  0.00  0.00    +0.000 A 
ATOM     14  C   UNL     1      45.585   5.677   9.871  0.00  0.00    +0.000 A 
ATOM     15  C   UNL     1      46.307   6.188  10.956  0.00  0.00    +0.000 A 
BRANCH  13  16
ATOM     16  O   UNL     1      44.169   4.108   8.885  0.00  0.00    +0.000 OA
BRANCH  16  17
ATOM     17  C   UNL     1      44.870   3.227   8.024  0.00  0.00    +0.000 C 
ATOM     18  F   UNL     1      46.046   3.825   7.706  0.00  0.00    +0.000 F 
ATOM     19  F   UNL     1      45.175   2.100   8.712  0.00  0.00    +0.000 F 
ENDBRANCH  16  17
ENDBRANCH  13  16
ENDBRANCH   8  10
ENDBRANCH   1   4
BRANCH   1  20
ATOM     20  N   UNL     1      49.589   5.203  17.482  0.00  0.00    +0.000 N 
ATOM     21  H   UNL     1      49.506   6.151  17.843  0.00  0.00    +0.000 HD
BRANCH  20  28
ATOM     22  C   UNL     1      52.007   6.978  16.678  0.00  0.00    +0.000 C 
ATOM     23  C   UNL     1      52.044   5.588  17.202  0.00  0.00    +0.000 A 
ATOM     24  C   UNL     1      53.316   4.994  17.271  0.00  0.00    +0.000 A 
ATOM     25  C   UNL     1      53.505   3.723  17.791  0.00  0.00    +0.000 A 
ATOM     26  C   UNL     1      52.368   3.083  18.235  0.00  0.00    +0.000 A 
ATOM     27  N   UNL     1      51.111   3.615  18.149  0.00  0.00    +0.000 NA
ATOM     28  C   UNL     1      50.933   4.857  17.612  0.00  0.00    +0.000 A 
BRANCH  25  29
ATOM     29  C   UNL     1      54.894   3.192  17.822  0.00  0.00    +0.000 C 
ATOM     30  N   UNL     1      55.201   2.129  18.616  0.00  0.00    +0.000 N 
ATOM     31  O   UNL     1      55.775   3.695  17.140  0.00  0.00    +0.000 OA
ATOM     32  H   UNL     1      54.561   1.620  19.208  0.00  0.00    +0.000 HD
ATOM     33  H   UNL     1      56.162   1.814  18.583  0.00  0.00    +0.000 HD
ENDBRANCH  25  29
ENDBRANCH  20  28
ENDBRANCH   1  20
TORSDOF 7
ENDMDL
MODEL 9
REMARK VINA RESULT:    -6.178      3.165      4.657
REMARK INTER + INTRA:          -9.526
REMARK INTER:                  -8.606
REMARK INTRA:                  -0.920
REMARK UNBOUND:                -0.820
REMARK  Name = 
REMARK  8 active torsions:
REMARK  status: ('A' for Active; 'I' for Inactive)
REMARK    1  A    between atoms: C_1  and  C_2
REMARK    2  A    between atoms: C_4  and  C_5
REMARK    3  A    between atoms: C_10  and  N_11
REMARK    4  A    between atoms: N_11  and  C_12
REMARK    5  A    between atoms: C_12  and  C_13
REMARK    6  A    between atoms: C_17  and  C_18
REMARK    7  A    between atoms: C_21  and  O_22
REMARK    8  A    between atoms: O_22  and  C_23
REMARK                            x       y       z     vdW  Elec       q    Type
REMARK                         _______ _______ _______ _____ _____    ______ ____
ROOT
ATOM      1  C   UNL     1      46.916   8.764  12.519  0.00  0.00    +0.000 C 
ATOM      2  C   UNL     1      45.438   9.086  12.812  0.00  0.00    +0.000 C 
ATOM      3  C   UNL     1      46.161   9.872  11.790  0.00  0.00    +0.000 C 
ENDROOT
BRANCH   1   4
ATOM      4  C   UNL     1      47.929   9.280  13.545  0.00  0.00    +0.000 A 
ATOM      5  C   UNL     1      48.678  10.438  13.303  0.00  0.00    +0.000 A 
ATOM      6  C   UNL     1      49.504  10.975  14.287  0.00  0.00    +0.000 A 
ATOM      7  C   UNL     1      49.572  10.371  15.541  0.00  0.00    +0.000 A 
ATOM      8  C   UNL     1      48.813   9.225  15.845  0.00  0.00    +0.000 A 
ATOM      9  C   UNL     1      48.048   8.672  14.811  0.00  0.00    +0.000 A 
BRANCH   8  10
ATOM     10  C   UNL     1      48.716   8.707  17.225  0.00  0.00    +0.000 A 
ATOM     11  C   UNL     1      47.782   9.260  18.120  0.00  0.00    +0.000 A 
ATOM     12  C   UNL     1      47.604   8.753  19.408  0.00  0.00    +0.000 A 
ATOM     13  C   UNL     1      48.336   7.647  19.824  0.00  0.00    +0.000 A 
ATOM     14  C   UNL     1      49.283   7.091  18.965  0.00  0.00    +0.000 A 
ATOM     15  C   UNL     1      49.471   7.612  17.680  0.00  0.00    +0.000 A 
BRANCH  13  16
ATOM     16  O   UNL     1      48.220   7.040  21.041  0.00  0.00    +0.000 OA
BRANCH  16  17
ATOM     17  C   UNL     1      47.403   5.882  21.058  0.00  0.00    +0.000 C 
ATOM     18  F   UNL     1      46.708   5.861  19.892  0.00  0.00    +0.000 F 
ATOM     19  F   UNL     1      48.202   4.787  21.059  0.00  0.00    +0.000 F 
ENDBRANCH  16  17
ENDBRANCH  13  16
ENDBRANCH   8  10
ENDBRANCH   1   4
BRANCH   1  20
ATOM     20  N   UNL     1      47.139   7.349  12.176  0.00  0.00    +0.000 N 
ATOM     21  H   UNL     1      48.026   7.140  11.722  0.00  0.00    +0.000 HD
BRANCH  20  28
ATOM     22  C   UNL     1      46.773   5.013  14.188  0.00  0.00    +0.000 C 
ATOM     23  C   UNL     1      46.192   5.127  12.825  0.00  0.00    +0.000 A 
ATOM     24  C   UNL     1      45.454   4.017  12.379  0.00  0.00    +0.000 A 
ATOM     25  C   UNL     1      44.811   4.009  11.152  0.00  0.00    +0.000 A 
ATOM     26  C   UNL     1      44.941   5.157  10.400  0.00  0.00    +0.000 A 
ATOM     27  N   UNL     1      45.682   6.241  10.786  0.00  0.00    +0.000 NA
ATOM     28  C   UNL     1      46.333   6.228  11.985  0.00  0.00    +0.000 A 
BRANCH  25  29
ATOM     29  C   UNL     1      44.053   2.784  10.780  0.00  0.00    +0.000 C 
ATOM     30  N   UNL     1      44.479   2.005   9.746  0.00  0.00    +0.000 N 
ATOM     31  O   UNL     1      43.046   2.458  11.391  0.00  0.00    +0.000 OA
ATOM     32  H   UNL     1      45.301   2.160   9.181  0.00  0.00    +0.000 HD
ATOM     33  H   UNL     1      43.922   1.184   9.553  0.00  0.00    +0.000 HD
ENDBRANCH  25  29
ENDBRANCH  20  28
ENDBRANCH   1  20
TORSDOF 7
ENDMDL
