MODEL 1
REMARK VINA RESULT:    -8.289      0.000      0.000
REMARK INTER + INTRA:          -9.300
REMARK INTER:                  -9.742
REMARK INTRA:                   0.442
REMARK UNBOUND:                 0.442
REMARK  Name = 
REMARK  3 active torsions:
REMARK  status: ('A' for Active; 'I' for Inactive)
REMARK    1  A    between atoms: C_2  and  C_4
REMARK    2  A    between atoms: N_8  and  C_9
REMARK    3  A    between atoms: C_9  and  C_10
REMARK                            x       y       z     vdW  Elec       q    Type
REMARK                         _______ _______ _______ _____ _____    ______ ____
ROOT
ATOM      1  C   UNL     1      46.353   2.104   7.872  0.00  0.00    +0.000 A 
ATOM      2  C   UNL     1      46.389   3.401   7.365  0.00  0.00    +0.000 A 
ATOM      3  C   UNL     1      45.675   4.400   8.026  0.00  0.00    +0.000 A 
ATOM      4  C   UNL     1      44.960   4.099   9.189  0.00  0.00    +0.000 A 
ATOM      5  N   UNL     1      44.356   5.186   9.850  0.00  0.00    +0.000 N 
ATOM      6  N   UNL     1      44.895   2.840   9.662  0.00  0.00    +0.000 NA
ATOM      7  C   UNL     1      45.573   1.871   8.991  0.00  0.00    +0.000 A 
ATOM      8  H   UNL     1      43.646   5.604   9.246  0.00  0.00    +0.000 HD
ENDROOT
BRANCH   1  10
ATOM      9  N   UNL     1      46.759  -0.281   7.646  0.00  0.00    +0.000 N 
ATOM     10  C   UNL     1      47.102   0.988   7.263  0.00  0.00    +0.000 C 
ATOM     11  O   UNL     1      47.967   1.182   6.419  0.00  0.00    +0.000 OA
ATOM     12  H   UNL     1      47.200  -1.037   7.136  0.00  0.00    +0.000 HD
ATOM     13  H   UNL     1      45.893  -0.487   8.125  0.00  0.00    +0.000 HD
ENDBRANCH   1  10
BRANCH   5  14
ATOM     14  C   UNL     1      43.935   5.192  11.282  0.00  0.00    +0.000 C 
ATOM     15  C   UNL     1      42.864   4.146  11.611  0.00  0.00    +0.000 C 
ATOM     16  C   UNL     1      42.564   5.597  11.798  0.00  0.00    +0.000 C 
BRANCH  14  17
ATOM     17  C   UNL     1      45.141   5.293  12.267  0.00  0.00    +0.000 A 
ATOM     18  N   UNL     1      45.724   6.509  12.429  0.00  0.00    +0.000 NA
ATOM     19  C   UNL     1      46.806   6.572  13.229  0.00  0.00    +0.000 A 
ATOM     20  C   UNL     1      47.344   5.484  13.871  0.00  0.00    +0.000 A 
ATOM     21  C   UNL     1      46.694   4.297  13.658  0.00  0.00    +0.000 A 
ATOM     22  N   UNL     1      45.608   4.174  12.873  0.00  0.00    +0.000 NA
ENDBRANCH  14  17
ENDBRANCH   5  14
TORSDOF 3
ENDMDL
MODEL 2
REMARK VINA RESULT:    -7.307      3.122      6.518
REMARK INTER + INTRA:          -8.146
REMARK INTER:                  -8.013
REMARK INTRA:                  -0.133
REMARK UNBOUND:                 0.442
REMARK  Name = 
REMARK  3 active torsions:
REMARK  status: ('A' for Active; 'I' for Inactive)
REMARK    1  A    between atoms: C_2  and  C_4
REMARK    2  A    between atoms: N_8  and  C_9
REMARK    3  A    between atoms: C_9  and  C_10
REMARK                            x       y       z     vdW  Elec       q    Type
REMARK                         _______ _______ _______ _____ _____    ______ ____
ROOT
ATOM      1  C   UNL     1      46.803   8.298  12.845  0.00  0.00    +0.000 A 
ATOM      2  C   UNL     1      45.576   8.685  12.313  0.00  0.00    +0.000 A 
ATOM      3  C   UNL     1      44.868   7.775  11.528  0.00  0.00    +0.000 A 
ATOM      4  C   UNL     1      45.378   6.492  11.308  0.00  0.00    +0.000 A 
ATOM      5  N   UNL     1      44.550   5.604  10.595  0.00  0.00    +0.000 N 
ATOM      6  N   UNL     1      46.580   6.128  11.793  0.00  0.00    +0.000 NA
ATOM      7  C   UNL     1      47.272   7.035  12.532  0.00  0.00    +0.000 A 
ATOM      8  H   UNL     1      44.403   5.958   9.648  0.00  0.00    +0.000 HD
ENDROOT
BRANCH   1  10
ATOM      9  N   UNL     1      47.458   9.035  15.066  0.00  0.00    +0.000 N 
ATOM     10  C   UNL     1      47.610   9.178  13.714  0.00  0.00    +0.000 C 
ATOM     11  O   UNL     1      48.414   9.975  13.248  0.00  0.00    +0.000 OA
ATOM     12  H   UNL     1      48.099   9.561  15.648  0.00  0.00    +0.000 HD
ATOM     13  H   UNL     1      47.016   8.225  15.479  0.00  0.00    +0.000 HD
ENDBRANCH   1  10
BRANCH   5  14
ATOM     14  C   UNL     1      44.670   4.116  10.616  0.00  0.00    +0.000 C 
ATOM     15  C   UNL     1      43.408   3.406  11.118  0.00  0.00    +0.000 C 
ATOM     16  C   UNL     1      44.692   3.249  11.863  0.00  0.00    +0.000 C 
BRANCH  14  17
ATOM     17  C   UNL     1      45.326   3.545   9.321  0.00  0.00    +0.000 A 
ATOM     18  N   UNL     1      45.515   2.201   9.248  0.00  0.00    +0.000 NA
ATOM     19  C   UNL     1      46.143   1.725   8.155  0.00  0.00    +0.000 A 
ATOM     20  C   UNL     1      46.601   2.519   7.133  0.00  0.00    +0.000 A 
ATOM     21  C   UNL     1      46.367   3.861   7.282  0.00  0.00    +0.000 A 
ATOM     22  N   UNL     1      45.742   4.393   8.348  0.00  0.00    +0.000 NA
ENDBRANCH  14  17
ENDBRANCH   5  14
TORSDOF 3
ENDMDL
MODEL 3
REMARK VINA RESULT:    -7.241      2.986      6.311
REMARK INTER + INTRA:          -8.069
REMARK INTER:                  -7.777
REMARK INTRA:                  -0.292
REMARK UNBOUND:                 0.442
REMARK  Name = 
REMARK  3 active torsions:
REMARK  status: ('A' for Active; 'I' for Inactive)
REMARK    1  A    between atoms: C_2  and  C_4
REMARK    2  A    between atoms: N_8  and  C_9
REMARK    3  A    between atoms: C_9  and  C_10
REMARK                            x       y       z     vdW  Elec       q    Type
REMARK                         _______ _______ _______ _____ _____    ______ ____
ROOT
ATOM      1  C   UNL     1      47.489   4.591  15.305  0.00  0.00    +0.000 A 
ATOM      2  C   UNL     1      47.542   5.877  14.775  0.00  0.00    +0.000 A 
ATOM      3  C   UNL     1      46.967   6.112  13.526  0.00  0.00    +0.000 A 
ATOM      4  C   UNL     1      46.329   5.075  12.841  0.00  0.00    +0.000 A 
ATOM      5  N   UNL     1      45.684   5.424  11.639  0.00  0.00    +0.000 N 
ATOM      6  N   UNL     1      46.306   3.823  13.336  0.00  0.00    +0.000 NA
ATOM      7  C   UNL     1      46.896   3.602  14.540  0.00  0.00    +0.000 A 
ATOM      8  H   UNL     1      46.374   5.755  10.962  0.00  0.00    +0.000 HD
ENDROOT
BRANCH   1  10
ATOM      9  N   UNL     1      47.144   3.985  17.633  0.00  0.00    +0.000 N 
ATOM     10  C   UNL     1      48.039   4.250  16.632  0.00  0.00    +0.000 C 
ATOM     11  O   UNL     1      49.246   4.167  16.823  0.00  0.00    +0.000 OA
ATOM     12  H   UNL     1      47.534   3.641  18.503  0.00  0.00    +0.000 HD
ATOM     13  H   UNL     1      46.171   3.786  17.451  0.00  0.00    +0.000 HD
ENDBRANCH   1  10
BRANCH   5  14
ATOM     14  C   UNL     1      44.606   4.627  10.982  0.00  0.00    +0.000 C 
ATOM     15  C   UNL     1      43.280   5.384  10.844  0.00  0.00    +0.000 C 
ATOM     16  C   UNL     1      43.337   4.132  11.655  0.00  0.00    +0.000 C 
BRANCH  14  17
ATOM     17  C   UNL     1      45.107   3.858   9.720  0.00  0.00    +0.000 A 
ATOM     18  N   UNL     1      45.080   2.500   9.756  0.00  0.00    +0.000 NA
ATOM     19  C   UNL     1      45.577   1.844   8.689  0.00  0.00    +0.000 A 
ATOM     20  C   UNL     1      46.108   2.472   7.589  0.00  0.00    +0.000 A 
ATOM     21  C   UNL     1      46.093   3.841   7.630  0.00  0.00    +0.000 A 
ATOM     22  N   UNL     1      45.607   4.549   8.666  0.00  0.00    +0.000 NA
ENDBRANCH  14  17
ENDBRANCH   5  14
TORSDOF 3
ENDMDL
MODEL 4
REMARK VINA RESULT:    -7.070      1.475      2.142
REMARK INTER + INTRA:          -7.868
REMARK INTER:                  -7.602
REMARK INTRA:                  -0.266
REMARK UNBOUND:                 0.442
REMARK  Name = 
REMARK  3 active torsions:
REMARK  status: ('A' for Active; 'I' for Inactive)
REMARK    1  A    between atoms: C_2  and  C_4
REMARK    2  A    between atoms: N_8  and  C_9
REMARK    3  A    between atoms: C_9  and  C_10
REMARK                            x       y       z     vdW  Elec       q    Type
REMARK                         _______ _______ _______ _____ _____    ______ ____
ROOT
ATOM      1  C   UNL     1      46.426   2.958   7.384  0.00  0.00    +0.000 A 
ATOM      2  C   UNL     1      45.836   1.894   8.061  0.00  0.00    +0.000 A 
ATOM      3  C   UNL     1      45.243   2.134   9.301  0.00  0.00    +0.000 A 
ATOM      4  C   UNL     1      45.225   3.427   9.832  0.00  0.00    +0.000 A 
ATOM      5  N   UNL     1      44.514   3.598  11.035  0.00  0.00    +0.000 N 
ATOM      6  N   UNL     1      45.825   4.450   9.194  0.00  0.00    +0.000 NA
ATOM      7  C   UNL     1      46.424   4.196   8.001  0.00  0.00    +0.000 A 
ATOM      8  H   UNL     1      44.957   3.053  11.776  0.00  0.00    +0.000 HD
ENDROOT
BRANCH   1  10
ATOM      9  N   UNL     1      48.385   2.519   6.014  0.00  0.00    +0.000 N 
ATOM     10  C   UNL     1      47.048   2.811   6.053  0.00  0.00    +0.000 C 
ATOM     11  O   UNL     1      46.390   2.904   5.025  0.00  0.00    +0.000 OA
ATOM     12  H   UNL     1      48.770   2.307   5.101  0.00  0.00    +0.000 HD
ATOM     13  H   UNL     1      48.889   2.178   6.820  0.00  0.00    +0.000 HD
ENDBRANCH   1  10
BRANCH   5  14
ATOM     14  C   UNL     1      43.994   4.901  11.545  0.00  0.00    +0.000 C 
ATOM     15  C   UNL     1      42.765   4.760  12.450  0.00  0.00    +0.000 C 
ATOM     16  C   UNL     1      42.660   5.527  11.174  0.00  0.00    +0.000 C 
BRANCH  14  17
ATOM     17  C   UNL     1      45.127   5.850  12.047  0.00  0.00    +0.000 A 
ATOM     18  N   UNL     1      46.052   5.334  12.898  0.00  0.00    +0.000 NA
ATOM     19  C   UNL     1      46.987   6.177  13.378  0.00  0.00    +0.000 A 
ATOM     20  C   UNL     1      47.044   7.511  13.060  0.00  0.00    +0.000 A 
ATOM     21  C   UNL     1      46.078   7.951  12.192  0.00  0.00    +0.000 A 
ATOM     22  N   UNL     1      45.123   7.154  11.678  0.00  0.00    +0.000 NA
ENDBRANCH  14  17
ENDBRANCH   5  14
TORSDOF 3
ENDMDL
MODEL 5
REMARK VINA RESULT:    -6.436      4.369      6.645
REMARK INTER + INTRA:          -7.123
REMARK INTER:                  -6.981
REMARK INTRA:                  -0.142
REMARK UNBOUND:                 0.442
REMARK  Name = 
REMARK  3 active torsions:
REMARK  status: ('A' for Active; 'I' for Inactive)
REMARK    1  A    between atoms: C_2  and  C_4
REMARK    2  A    between atoms: N_8  and  C_9
REMARK    3  A    between atoms: C_9  and  C_10
REMARK                            x       y       z     vdW  Elec       q    Type
REMARK                         _______ _______ _______ _____ _____    ______ ____
ROOT
ATOM      1  C   UNL     1      46.089   5.396  12.180  0.00  0.00    +0.000 A 
ATOM      2  C   UNL     1      45.779   4.040  12.238  0.00  0.00    +0.000 A 
ATOM      3  C   UNL     1      46.318   3.272  13.270  0.00  0.00    +0.000 A 
ATOM      4  C   UNL     1      47.132   3.869  14.238  0.00  0.00    +0.000 A 
ATOM      5  N   UNL     1      47.546   3.044  15.301  0.00  0.00    +0.000 N 
ATOM      6  N   UNL     1      47.460   5.172  14.164  0.00  0.00    +0.000 NA
ATOM      7  C   UNL     1      46.951   5.902  13.136  0.00  0.00    +0.000 A 
ATOM      8  H   UNL     1      48.133   2.289  14.942  0.00  0.00    +0.000 HD
ENDROOT
BRANCH   1  10
ATOM      9  N   UNL     1      45.350   5.775   9.896  0.00  0.00    +0.000 N 
ATOM     10  C   UNL     1      45.541   6.297  11.147  0.00  0.00    +0.000 C 
ATOM     11  O   UNL     1      45.229   7.453  11.405  0.00  0.00    +0.000 OA
ATOM     12  H   UNL     1      44.867   6.369   9.232  0.00  0.00    +0.000 HD
ATOM     13  H   UNL     1      45.343   4.781   9.720  0.00  0.00    +0.000 HD
ENDBRANCH   1  10
BRANCH   5  14
ATOM     14  C   UNL     1      48.026   3.532  16.628  0.00  0.00    +0.000 C 
ATOM     15  C   UNL     1      47.011   3.332  17.759  0.00  0.00    +0.000 C 
ATOM     16  C   UNL     1      47.453   4.711  17.396  0.00  0.00    +0.000 C 
BRANCH  14  17
ATOM     17  C   UNL     1      49.499   3.116  16.927  0.00  0.00    +0.000 A 
ATOM     18  N   UNL     1      49.841   1.815  16.731  0.00  0.00    +0.000 NA
ATOM     19  C   UNL     1      51.097   1.451  17.056  0.00  0.00    +0.000 A 
ATOM     20  C   UNL     1      52.030   2.315  17.575  0.00  0.00    +0.000 A 
ATOM     21  C   UNL     1      51.607   3.608  17.737  0.00  0.00    +0.000 A 
ATOM     22  N   UNL     1      50.367   4.029  17.427  0.00  0.00    +0.000 NA
ENDBRANCH  14  17
ENDBRANCH   5  14
TORSDOF 3
ENDMDL
MODEL 6
REMARK VINA RESULT:    -6.341      6.162      8.843
REMARK INTER + INTRA:          -7.011
REMARK INTER:                  -6.724
REMARK INTRA:                  -0.287
REMARK UNBOUND:                 0.442
REMARK  Name = 
REMARK  3 active torsions:
REMARK  status: ('A' for Active; 'I' for Inactive)
REMARK    1  A    between atoms: C_2  and  C_4
REMARK    2  A    between atoms: N_8  and  C_9
REMARK    3  A    between atoms: C_9  and  C_10
REMARK                            x       y       z     vdW  Elec       q    Type
REMARK                         _______ _______ _______ _____ _____    ______ ____
ROOT
ATOM      1  C   UNL     1      52.447   1.640  17.779  0.00  0.00    +0.000 A 
ATOM      2  C   UNL     1      52.671   2.928  18.259  0.00  0.00    +0.000 A 
ATOM      3  C   UNL     1      51.702   3.906  18.033  0.00  0.00    +0.000 A 
ATOM      4  C   UNL     1      50.522   3.583  17.358  0.00  0.00    +0.000 A 
ATOM      5  N   UNL     1      49.555   4.602  17.267  0.00  0.00    +0.000 N 
ATOM      6  N   UNL     1      50.319   2.347  16.863  0.00  0.00    +0.000 NA
ATOM      7  C   UNL     1      51.283   1.411  17.066  0.00  0.00    +0.000 A 
ATOM      8  H   UNL     1      49.926   5.380  16.719  0.00  0.00    +0.000 HD
ENDROOT
BRANCH   1  10
ATOM      9  N   UNL     1      52.898  -0.621  18.545  0.00  0.00    +0.000 N 
ATOM     10  C   UNL     1      53.395   0.530  17.997  0.00  0.00    +0.000 C 
ATOM     11  O   UNL     1      54.570   0.618  17.664  0.00  0.00    +0.000 OA
ATOM     12  H   UNL     1      53.533  -1.410  18.580  0.00  0.00    +0.000 HD
ATOM     13  H   UNL     1      51.908  -0.820  18.582  0.00  0.00    +0.000 HD
ENDBRANCH   1  10
BRANCH   5  14
ATOM     14  C   UNL     1      48.102   4.384  17.001  0.00  0.00    +0.000 C 
ATOM     15  C   UNL     1      47.192   4.853  18.141  0.00  0.00    +0.000 C 
ATOM     16  C   UNL     1      47.203   3.413  17.747  0.00  0.00    +0.000 C 
BRANCH  14  17
ATOM     17  C   UNL     1      47.684   4.799  15.556  0.00  0.00    +0.000 A 
ATOM     18  N   UNL     1      48.302   5.875  15.003  0.00  0.00    +0.000 NA
ATOM     19  C   UNL     1      47.887   6.265  13.782  0.00  0.00    +0.000 A 
ATOM     20  C   UNL     1      46.882   5.644  13.085  0.00  0.00    +0.000 A 
ATOM     21  C   UNL     1      46.313   4.565  13.710  0.00  0.00    +0.000 A 
ATOM     22  N   UNL     1      46.689   4.128  14.926  0.00  0.00    +0.000 NA
ENDBRANCH  14  17
ENDBRANCH   5  14
TORSDOF 3
ENDMDL
MODEL 7
REMARK VINA RESULT:    -6.277      3.472      5.304
REMARK INTER + INTRA:          -6.935
REMARK INTER:                  -6.567
REMARK INTRA:                  -0.368
REMARK UNBOUND:                 0.442
REMARK  Name = 
REMARK  3 active torsions:
REMARK  status: ('A' for Active; 'I' for Inactive)
REMARK    1  A    between atoms: C_2  and  C_4
REMARK    2  A    between atoms: N_8  and  C_9
REMARK    3  A    between atoms: C_9  and  C_10
REMARK                            x       y       z     vdW  Elec       q    Type
REMARK                         _______ _______ _______ _____ _____    ______ ____
ROOT
ATOM      1  C   UNL     1      44.725   4.479  11.706  0.00  0.00    +0.000 A 
ATOM      2  C   UNL     1      44.282   5.679  11.155  0.00  0.00    +0.000 A 
ATOM      3  C   UNL     1      45.040   6.831  11.361  0.00  0.00    +0.000 A 
ATOM      4  C   UNL     1      46.233   6.767  12.087  0.00  0.00    +0.000 A 
ATOM      5  N   UNL     1      46.987   7.954  12.156  0.00  0.00    +0.000 N 
ATOM      6  N   UNL     1      46.645   5.615  12.649  0.00  0.00    +0.000 NA
ATOM      7  C   UNL     1      45.882   4.505  12.464  0.00  0.00    +0.000 A 
ATOM      8  H   UNL     1      46.456   8.670  12.653  0.00  0.00    +0.000 HD
ENDROOT
BRANCH   1  10
ATOM      9  N   UNL     1      43.794   2.431  12.626  0.00  0.00    +0.000 N 
ATOM     10  C   UNL     1      44.010   3.201  11.515  0.00  0.00    +0.000 C 
ATOM     11  O   UNL     1      43.590   2.860  10.417  0.00  0.00    +0.000 OA
ATOM     12  H   UNL     1      43.204   1.617  12.499  0.00  0.00    +0.000 HD
ATOM     13  H   UNL     1      43.886   2.795  13.564  0.00  0.00    +0.000 HD
ENDBRANCH   1  10
BRANCH   5  14
ATOM     14  C   UNL     1      48.444   8.027  12.476  0.00  0.00    +0.000 C 
ATOM     15  C   UNL     1      49.196   9.094  11.674  0.00  0.00    +0.000 C 
ATOM     16  C   UNL     1      49.575   7.658  11.531  0.00  0.00    +0.000 C 
BRANCH  14  17
ATOM     17  C   UNL     1      48.729   7.972  14.009  0.00  0.00    +0.000 A 
ATOM     18  N   UNL     1      49.441   6.916  14.482  0.00  0.00    +0.000 NA
ATOM     19  C   UNL     1      49.625   6.843  15.815  0.00  0.00    +0.000 A 
ATOM     20  C   UNL     1      49.128   7.764  16.703  0.00  0.00    +0.000 A 
ATOM     21  C   UNL     1      48.425   8.800  16.145  0.00  0.00    +0.000 A 
ATOM     22  N   UNL     1      48.214   8.927  14.822  0.00  0.00    +0.000 NA
ENDBRANCH  14  17
ENDBRANCH   5  14
TORSDOF 3
ENDMDL
MODEL 8
REMARK VINA RESULT:    -5.666      3.847      6.503
REMARK INTER + INTRA:          -6.217
REMARK INTER:                  -6.113
REMARK INTRA:                  -0.104
REMARK UNBOUND:                 0.442
REMARK  Name = 
REMARK  3 active torsions:
REMARK  status: ('A' for Active; 'I' for Inactive)
REMARK    1  A    between atoms: C_2  and  C_4
REMARK    2  A    between atoms: N_8  and  C_9
REMARK    3  A    between atoms: C_9  and  C_10
REMARK                            x       y       z     vdW  Elec       q    Type
REMARK                         _______ _______ _______ _____ _____    ______ ____
ROOT
ATOM      1  C   UNL     1      46.004   4.884  12.702  0.00  0.00    +0.000 A 
ATOM      2  C   UNL     1      45.932   6.254  12.464  0.00  0.00    +0.000 A 
ATOM      3  C   UNL     1      46.692   7.114  13.257  0.00  0.00    +0.000 A 
ATOM      4  C   UNL     1      47.528   6.597  14.250  0.00  0.00    +0.000 A 
ATOM      5  N   UNL     1      48.339   7.526  14.930  0.00  0.00    +0.000 N 
ATOM      6  N   UNL     1      47.574   5.276  14.505  0.00  0.00    +0.000 NA
ATOM      7  C   UNL     1      46.805   4.452  13.744  0.00  0.00    +0.000 A 
ATOM      8  H   UNL     1      47.750   8.184  15.445  0.00  0.00    +0.000 HD
ENDROOT
BRANCH   1  10
ATOM      9  N   UNL     1      45.130   2.634  12.417  0.00  0.00    +0.000 N 
ATOM     10  C   UNL     1      45.264   3.893  11.896  0.00  0.00    +0.000 C 
ATOM     11  O   UNL     1      44.754   4.192  10.825  0.00  0.00    +0.000 OA
ATOM     12  H   UNL     1      44.524   2.001  11.909  0.00  0.00    +0.000 HD
ATOM     13  H   UNL     1      45.301   2.431  13.392  0.00  0.00    +0.000 HD
ENDBRANCH   1  10
BRANCH   5  14
ATOM     14  C   UNL     1      49.580   7.188  15.688  0.00  0.00    +0.000 C 
ATOM     15  C   UNL     1      50.437   8.410  16.039  0.00  0.00    +0.000 C 
ATOM     16  C   UNL     1      51.000   7.336  15.168  0.00  0.00    +0.000 C 
BRANCH  14  17
ATOM     17  C   UNL     1      49.328   6.158  16.832  0.00  0.00    +0.000 A 
ATOM     18  N   UNL     1      50.067   5.018  16.830  0.00  0.00    +0.000 NA
ATOM     19  C   UNL     1      49.796   4.105  17.783  0.00  0.00    +0.000 A 
ATOM     20  C   UNL     1      48.820   4.265  18.735  0.00  0.00    +0.000 A 
ATOM     21  C   UNL     1      48.123   5.443  18.670  0.00  0.00    +0.000 A 
ATOM     22  N   UNL     1      48.353   6.392  17.744  0.00  0.00    +0.000 NA
ENDBRANCH  14  17
ENDBRANCH   5  14
TORSDOF 3
ENDMDL
MODEL 9
REMARK VINA RESULT:    -5.481      5.024      7.689
REMARK INTER + INTRA:          -6.000
REMARK INTER:                  -5.647
REMARK INTRA:                  -0.353
REMARK UNBOUND:                 0.442
REMARK  Name = 
REMARK  3 active torsions:
REMARK  status: ('A' for Active; 'I' for Inactive)
REMARK    1  A    between atoms: C_2  and  C_4
REMARK    2  A    between atoms: N_8  and  C_9
REMARK    3  A    between atoms: C_9  and  C_10
REMARK                            x       y       z     vdW  Elec       q    Type
REMARK                         _______ _______ _______ _____ _____    ______ ____
ROOT
ATOM      1  C   UNL     1      46.632   4.871  13.725  0.00  0.00    +0.000 A 
ATOM      2  C   UNL     1      47.363   6.005  13.383  0.00  0.00    +0.000 A 
ATOM      3  C   UNL     1      48.278   6.516  14.303  0.00  0.00    +0.000 A 
ATOM      4  C   UNL     1      48.469   5.878  15.531  0.00  0.00    +0.000 A 
ATOM      5  N   UNL     1      49.487   6.397  16.354  0.00  0.00    +0.000 N 
ATOM      6  N   UNL     1      47.739   4.801  15.878  0.00  0.00    +0.000 NA
ATOM      7  C   UNL     1      46.830   4.331  14.983  0.00  0.00    +0.000 A 
ATOM      8  H   UNL     1      49.254   7.354  16.627  0.00  0.00    +0.000 HD
ENDROOT
BRANCH   1  10
ATOM      9  N   UNL     1      45.686   2.871  12.717  0.00  0.00    +0.000 N 
ATOM     10  C   UNL     1      45.665   4.237  12.807  0.00  0.00    +0.000 C 
ATOM     11  O   UNL     1      44.847   4.900  12.181  0.00  0.00    +0.000 OA
ATOM     12  H   UNL     1      44.944   2.446  12.175  0.00  0.00    +0.000 HD
ATOM     13  H   UNL     1      46.152   2.291  13.401  0.00  0.00    +0.000 HD
ENDBRANCH   1  10
BRANCH   5  14
ATOM     14  C   UNL     1      50.155   5.655  17.464  0.00  0.00    +0.000 C 
ATOM     15  C   UNL     1      51.647   5.975  17.606  0.00  0.00    +0.000 C 
ATOM     16  C   UNL     1      51.215   4.580  17.296  0.00  0.00    +0.000 C 
BRANCH  14  17
ATOM     17  C   UNL     1      49.313   5.647  18.778  0.00  0.00    +0.000 A 
ATOM     18  N   UNL     1      48.621   6.773  19.092  0.00  0.00    +0.000 NA
ATOM     19  C   UNL     1      47.951   6.780  20.261  0.00  0.00    +0.000 A 
ATOM     20  C   UNL     1      47.941   5.725  21.139  0.00  0.00    +0.000 A 
ATOM     21  C   UNL     1      48.660   4.627  20.746  0.00  0.00    +0.000 A 
ATOM     22  N   UNL     1      49.344   4.562  19.589  0.00  0.00    +0.000 NA
ENDBRANCH  14  17
ENDBRANCH   5  14
TORSDOF 3
ENDMDL
