MODEL 1
REMARK VINA RESULT:    -7.763      0.000      0.000
REMARK INTER + INTRA:         -11.234
REMARK INTER:                 -10.486
REMARK INTRA:                  -0.748
REMARK UNBOUND:                -0.748
REMARK  Name = 
REMARK  6 active torsions:
REMARK  status: ('A' for Active; 'I' for Inactive)
REMARK    1  A    between atoms: C_2  and  C_25
REMARK    2  A    between atoms: N_3  and  C_4
REMARK    3  A    between atoms: C_4  and  C_5
REMARK    4  A    between atoms: C_8  and  C_9
REMARK    5  A    between atoms: C_9  and  N_10
REMARK    6  A    between atoms: C_11  and  C_13
REMARK                            x       y       z     vdW  Elec       q    Type
REMARK                         _______ _______ _______ _____ _____    ______ ____
ROOT
ATOM      1  C   UNL     1      44.652   5.450  11.430  0.00  0.00    +0.000 A 
ATOM      2  C   UNL     1      45.696   4.926  12.204  0.00  0.00    +0.000 A 
ATOM      3  C   UNL     1      46.555   5.774  12.913  0.00  0.00    +0.000 A 
ATOM      4  C   UNL     1      46.375   7.163  12.879  0.00  0.00    +0.000 A 
ATOM      5  C   UNL     1      45.326   7.686  12.112  0.00  0.00    +0.000 A 
ATOM      6  C   UNL     1      44.466   6.838  11.405  0.00  0.00    +0.000 A 
ENDROOT
BRANCH   1   7
ATOM      7  C   UNL     1      43.775   4.541  10.609  0.00  0.00    +0.000 C 
BRANCH   7  10
ATOM      8  O   UNL     1      45.314   5.118   8.413  0.00  0.00    +0.000 OA
ATOM      9  C   UNL     1      45.282   3.949   8.788  0.00  0.00    +0.000 C 
ATOM     10  N   UNL     1      44.522   3.551   9.870  0.00  0.00    +0.000 N 
ATOM     11  H   UNL     1      44.623   2.627  10.261  0.00  0.00    +0.000 HD
BRANCH   9  12
ATOM     12  C   UNL     1      46.065   2.912   8.107  0.00  0.00    +0.000 A 
ATOM     13  C   UNL     1      45.938   1.505   8.393  0.00  0.00    +0.000 A 
ATOM     14  C   UNL     1      46.781   0.715   7.641  0.00  0.00    +0.000 A 
ATOM     15  S   UNL     1      47.741   1.649   6.584  0.00  0.00    +0.000 S 
ATOM     16  C   UNL     1      47.029   3.108   7.134  0.00  0.00    +0.000 A 
ENDBRANCH   9  12
ENDBRANCH   7  10
ENDBRANCH   1   7
BRANCH   4  17
ATOM     17  C   UNL     1      47.314   8.083  13.616  0.00  0.00    +0.000 C 
BRANCH  17  18
ATOM     18  N   UNL     1      47.726   7.523  14.880  0.00  0.00    +0.000 N 
ATOM     19  C   UNL     1      48.971   6.964  15.030  0.00  0.00    +0.000 C 
ATOM     20  O   UNL     1      49.791   6.955  14.114  0.00  0.00    +0.000 OA
ATOM     21  H   UNL     1      47.001   7.322  15.561  0.00  0.00    +0.000 HD
BRANCH  19  22
ATOM     22  C   UNL     1      49.305   6.429  16.357  0.00  0.00    +0.000 A 
ATOM     23  C   UNL     1      50.320   7.018  17.097  0.00  0.00    +0.000 A 
ATOM     24  S   UNL     1      50.548   6.313  18.634  0.00  0.00    +0.000 S 
ATOM     25  C   UNL     1      49.334   5.158  18.343  0.00  0.00    +0.000 A 
ATOM     26  N   UNL     1      49.034   4.210  19.272  0.00  0.00    +0.000 NA
ATOM     27  C   UNL     1      48.120   3.375  18.905  0.00  0.00    +0.000 A 
ATOM     28  N   UNL     1      47.472   3.407  17.697  0.00  0.00    +0.000 N 
ATOM     29  C   UNL     1      47.717   4.366  16.742  0.00  0.00    +0.000 A 
ATOM     30  O   UNL     1      47.090   4.393  15.688  0.00  0.00    +0.000 OA
ATOM     31  C   UNL     1      48.749   5.321  17.098  0.00  0.00    +0.000 A 
ATOM     32  H   UNL     1      46.762   2.726  17.473  0.00  0.00    +0.000 HD
ENDBRANCH  19  22
ENDBRANCH  17  18
ENDBRANCH   4  17
TORSDOF 6
ENDMDL
MODEL 2
REMARK VINA RESULT:    -7.351      4.958      9.219
REMARK INTER + INTRA:         -10.678
REMARK INTER:                  -9.833
REMARK INTRA:                  -0.845
REMARK UNBOUND:                -0.748
REMARK  Name = 
REMARK  6 active torsions:
REMARK  status: ('A' for Active; 'I' for Inactive)
REMARK    1  A    between atoms: C_2  and  C_25
REMARK    2  A    between atoms: N_3  and  C_4
REMARK    3  A    between atoms: C_4  and  C_5
REMARK    4  A    between atoms: C_8  and  C_9
REMARK    5  A    between atoms: C_9  and  N_10
REMARK    6  A    between atoms: C_11  and  C_13
REMARK                            x       y       z     vdW  Elec       q    Type
REMARK                         _______ _______ _______ _____ _____    ______ ____
ROOT
ATOM      1  C   UNL     1      51.542   3.055  17.757  0.00  0.00    +0.000 A 
ATOM      2  C   UNL     1      50.903   4.262  18.068  0.00  0.00    +0.000 A 
ATOM      3  C   UNL     1      49.532   4.425  17.840  0.00  0.00    +0.000 A 
ATOM      4  C   UNL     1      48.766   3.376  17.314  0.00  0.00    +0.000 A 
ATOM      5  C   UNL     1      49.404   2.165  17.011  0.00  0.00    +0.000 A 
ATOM      6  C   UNL     1      50.774   2.002  17.241  0.00  0.00    +0.000 A 
ENDROOT
BRANCH   1   7
ATOM      7  C   UNL     1      53.031   2.906  17.933  0.00  0.00    +0.000 C 
BRANCH   7  10
ATOM      8  O   UNL     1      54.249   0.995  19.477  0.00  0.00    +0.000 OA
ATOM      9  C   UNL     1      54.120   0.755  18.280  0.00  0.00    +0.000 C 
ATOM     10  N   UNL     1      53.539   1.659  17.413  0.00  0.00    +0.000 N 
ATOM     11  H   UNL     1      53.300   1.391  16.471  0.00  0.00    +0.000 HD
BRANCH   9  12
ATOM     12  C   UNL     1      54.570  -0.519  17.709  0.00  0.00    +0.000 A 
ATOM     13  C   UNL     1      54.889  -0.696  16.314  0.00  0.00    +0.000 A 
ATOM     14  C   UNL     1      55.279  -1.981  16.001  0.00  0.00    +0.000 A 
ATOM     15  S   UNL     1      55.264  -2.995  17.373  0.00  0.00    +0.000 S 
ATOM     16  C   UNL     1      54.735  -1.716  18.384  0.00  0.00    +0.000 A 
ENDBRANCH   9  12
ENDBRANCH   7  10
ENDBRANCH   1   7
BRANCH   4  17
ATOM     17  C   UNL     1      47.295   3.553  17.039  0.00  0.00    +0.000 C 
BRANCH  17  18
ATOM     18  N   UNL     1      47.058   4.558  16.031  0.00  0.00    +0.000 N 
ATOM     19  C   UNL     1      47.116   4.244  14.697  0.00  0.00    +0.000 C 
ATOM     20  O   UNL     1      47.330   3.097  14.310  0.00  0.00    +0.000 OA
ATOM     21  H   UNL     1      47.105   5.530  16.321  0.00  0.00    +0.000 HD
BRANCH  19  22
ATOM     22  C   UNL     1      46.850   5.331  13.745  0.00  0.00    +0.000 A 
ATOM     23  C   UNL     1      47.847   6.254  13.465  0.00  0.00    +0.000 A 
ATOM     24  S   UNL     1      47.398   7.420  12.303  0.00  0.00    +0.000 S 
ATOM     25  C   UNL     1      45.833   6.766  12.174  0.00  0.00    +0.000 A 
ATOM     26  N   UNL     1      44.908   7.324  11.347  0.00  0.00    +0.000 NA
ATOM     27  C   UNL     1      43.753   6.750  11.376  0.00  0.00    +0.000 A 
ATOM     28  N   UNL     1      43.439   5.663  12.150  0.00  0.00    +0.000 N 
ATOM     29  C   UNL     1      44.350   5.044  12.975  0.00  0.00    +0.000 A 
ATOM     30  O   UNL     1      44.051   4.047  13.622  0.00  0.00    +0.000 OA
ATOM     31  C   UNL     1      45.663   5.661  12.991  0.00  0.00    +0.000 A 
ATOM     32  H   UNL     1      42.516   5.257  12.122  0.00  0.00    +0.000 HD
ENDBRANCH  19  22
ENDBRANCH  17  18
ENDBRANCH   4  17
TORSDOF 6
ENDMDL
MODEL 3
REMARK VINA RESULT:    -6.982      4.852      9.126
REMARK INTER + INTRA:         -10.179
REMARK INTER:                  -9.053
REMARK INTRA:                  -1.126
REMARK UNBOUND:                -0.748
REMARK  Name = 
REMARK  6 active torsions:
REMARK  status: ('A' for Active; 'I' for Inactive)
REMARK    1  A    between atoms: C_2  and  C_25
REMARK    2  A    between atoms: N_3  and  C_4
REMARK    3  A    between atoms: C_4  and  C_5
REMARK    4  A    between atoms: C_8  and  C_9
REMARK    5  A    between atoms: C_9  and  N_10
REMARK    6  A    between atoms: C_11  and  C_13
REMARK                            x       y       z     vdW  Elec       q    Type
REMARK                         _______ _______ _______ _____ _____    ______ ____
ROOT
ATOM      1  C   UNL     1      51.513   3.120  17.752  0.00  0.00    +0.000 A 
ATOM      2  C   UNL     1      50.905   4.362  17.979  0.00  0.00    +0.000 A 
ATOM      3  C   UNL     1      49.544   4.551  17.712  0.00  0.00    +0.000 A 
ATOM      4  C   UNL     1      48.758   3.495  17.232  0.00  0.00    +0.000 A 
ATOM      5  C   UNL     1      49.364   2.251  17.015  0.00  0.00    +0.000 A 
ATOM      6  C   UNL     1      50.723   2.062  17.283  0.00  0.00    +0.000 A 
ENDROOT
BRANCH   1   7
ATOM      7  C   UNL     1      52.992   2.938  17.968  0.00  0.00    +0.000 C 
BRANCH   7  10
ATOM      8  O   UNL     1      54.183   0.940  19.421  0.00  0.00    +0.000 OA
ATOM      9  C   UNL     1      54.069   0.766  18.210  0.00  0.00    +0.000 C 
ATOM     10  N   UNL     1      53.503   1.719  17.387  0.00  0.00    +0.000 N 
ATOM     11  H   UNL     1      53.276   1.505  16.429  0.00  0.00    +0.000 HD
BRANCH   9  12
ATOM     12  C   UNL     1      54.522  -0.477  17.576  0.00  0.00    +0.000 A 
ATOM     13  C   UNL     1      54.851  -1.670  18.315  0.00  0.00    +0.000 A 
ATOM     14  C   UNL     1      55.265  -2.713  17.514  0.00  0.00    +0.000 A 
ATOM     15  S   UNL     1      55.268  -2.276  15.865  0.00  0.00    +0.000 S 
ATOM     16  C   UNL     1      54.718  -0.692  16.224  0.00  0.00    +0.000 A 
ENDBRANCH   9  12
ENDBRANCH   7  10
ENDBRANCH   1   7
BRANCH   4  17
ATOM     17  C   UNL     1      47.298   3.699  16.916  0.00  0.00    +0.000 C 
BRANCH  17  18
ATOM     18  N   UNL     1      47.111   4.657  15.853  0.00  0.00    +0.000 N 
ATOM     19  C   UNL     1      47.145   4.265  14.539  0.00  0.00    +0.000 C 
ATOM     20  O   UNL     1      47.294   3.088  14.217  0.00  0.00    +0.000 OA
ATOM     21  H   UNL     1      47.213   5.639  16.087  0.00  0.00    +0.000 HD
BRANCH  19  22
ATOM     22  C   UNL     1      46.934   5.310  13.528  0.00  0.00    +0.000 A 
ATOM     23  C   UNL     1      45.878   5.195  12.634  0.00  0.00    +0.000 A 
ATOM     24  S   UNL     1      45.739   6.514  11.561  0.00  0.00    +0.000 S 
ATOM     25  C   UNL     1      47.121   7.261  12.215  0.00  0.00    +0.000 A 
ATOM     26  N   UNL     1      47.578   8.441  11.719  0.00  0.00    +0.000 NA
ATOM     27  C   UNL     1      48.655   8.875  12.283  0.00  0.00    +0.000 A 
ATOM     28  N   UNL     1      49.312   8.239  13.305  0.00  0.00    +0.000 N 
ATOM     29  C   UNL     1      48.869   7.062  13.861  0.00  0.00    +0.000 A 
ATOM     30  O   UNL     1      49.455   6.540  14.804  0.00  0.00    +0.000 OA
ATOM     31  C   UNL     1      47.668   6.523  13.252  0.00  0.00    +0.000 A 
ATOM     32  H   UNL     1      50.149   8.635  13.707  0.00  0.00    +0.000 HD
ENDBRANCH  19  22
ENDBRANCH  17  18
ENDBRANCH   4  17
TORSDOF 6
ENDMDL
MODEL 4
REMARK VINA RESULT:    -6.872      3.730      8.421
REMARK INTER + INTRA:         -10.032
REMARK INTER:                  -9.154
REMARK INTRA:                  -0.878
REMARK UNBOUND:                -0.748
REMARK  Name = 
REMARK  6 active torsions:
REMARK  status: ('A' for Active; 'I' for Inactive)
REMARK    1  A    between atoms: C_2  and  C_25
REMARK    2  A    between atoms: N_3  and  C_4
REMARK    3  A    between atoms: C_4  and  C_5
REMARK    4  A    between atoms: C_8  and  C_9
REMARK    5  A    between atoms: C_9  and  N_10
REMARK    6  A    between atoms: C_11  and  C_13
REMARK                            x       y       z     vdW  Elec       q    Type
REMARK                         _______ _______ _______ _____ _____    ______ ____
ROOT
ATOM      1  C   UNL     1      49.997   4.480  17.704  0.00  0.00    +0.000 A 
ATOM      2  C   UNL     1      50.880   5.502  17.331  0.00  0.00    +0.000 A 
ATOM      3  C   UNL     1      50.476   6.509  16.447  0.00  0.00    +0.000 A 
ATOM      4  C   UNL     1      49.172   6.527  15.934  0.00  0.00    +0.000 A 
ATOM      5  C   UNL     1      48.286   5.510  16.314  0.00  0.00    +0.000 A 
ATOM      6  C   UNL     1      48.690   4.505  17.198  0.00  0.00    +0.000 A 
ENDROOT
BRANCH   1   7
ATOM      7  C   UNL     1      50.456   3.356  18.595  0.00  0.00    +0.000 C 
BRANCH   7  10
ATOM      8  O   UNL     1      51.161   1.009  17.365  0.00  0.00    +0.000 OA
ATOM      9  C   UNL     1      52.069   1.764  17.703  0.00  0.00    +0.000 C 
ATOM     10  N   UNL     1      51.821   2.959  18.346  0.00  0.00    +0.000 N 
ATOM     11  H   UNL     1      52.556   3.637  18.479  0.00  0.00    +0.000 HD
BRANCH   9  12
ATOM     12  C   UNL     1      53.472   1.435  17.425  0.00  0.00    +0.000 A 
ATOM     13  C   UNL     1      54.539   2.402  17.477  0.00  0.00    +0.000 A 
ATOM     14  C   UNL     1      55.774   1.872  17.168  0.00  0.00    +0.000 A 
ATOM     15  S   UNL     1      55.671   0.208  16.807  0.00  0.00    +0.000 S 
ATOM     16  C   UNL     1      53.976   0.198  17.062  0.00  0.00    +0.000 A 
ENDBRANCH   9  12
ENDBRANCH   7  10
ENDBRANCH   1   7
BRANCH   4  17
ATOM     17  C   UNL     1      48.739   7.592  14.960  0.00  0.00    +0.000 C 
BRANCH  17  18
ATOM     18  N   UNL     1      47.498   7.247  14.309  0.00  0.00    +0.000 N 
ATOM     19  C   UNL     1      47.491   6.497  13.159  0.00  0.00    +0.000 C 
ATOM     20  O   UNL     1      48.528   6.061  12.665  0.00  0.00    +0.000 OA
ATOM     21  H   UNL     1      46.672   7.776  14.568  0.00  0.00    +0.000 HD
BRANCH  19  22
ATOM     22  C   UNL     1      46.179   6.188  12.575  0.00  0.00    +0.000 A 
ATOM     23  C   UNL     1      45.415   7.210  12.029  0.00  0.00    +0.000 A 
ATOM     24  S   UNL     1      43.945   6.678  11.346  0.00  0.00    +0.000 S 
ATOM     25  C   UNL     1      44.251   5.069  11.805  0.00  0.00    +0.000 A 
ATOM     26  N   UNL     1      43.353   4.083  11.539  0.00  0.00    +0.000 NA
ATOM     27  C   UNL     1      43.695   2.918  11.976  0.00  0.00    +0.000 A 
ATOM     28  N   UNL     1      44.859   2.647  12.649  0.00  0.00    +0.000 N 
ATOM     29  C   UNL     1      45.811   3.604  12.911  0.00  0.00    +0.000 A 
ATOM     30  O   UNL     1      46.862   3.321  13.477  0.00  0.00    +0.000 OA
ATOM     31  C   UNL     1      45.468   4.937  12.453  0.00  0.00    +0.000 A 
ATOM     32  H   UNL     1      45.069   1.711  12.961  0.00  0.00    +0.000 HD
ENDBRANCH  19  22
ENDBRANCH  17  18
ENDBRANCH   4  17
TORSDOF 6
ENDMDL
MODEL 5
REMARK VINA RESULT:    -6.502      3.377      4.893
REMARK INTER + INTRA:          -9.531
REMARK INTER:                  -8.433
REMARK INTRA:                  -1.098
REMARK UNBOUND:                -0.748
REMARK  Name = 
REMARK  6 active torsions:
REMARK  status: ('A' for Active; 'I' for Inactive)
REMARK    1  A    between atoms: C_2  and  C_25
REMARK    2  A    between atoms: N_3  and  C_4
REMARK    3  A    between atoms: C_4  and  C_5
REMARK    4  A    between atoms: C_8  and  C_9
REMARK    5  A    between atoms: C_9  and  N_10
REMARK    6  A    between atoms: C_11  and  C_13
REMARK                            x       y       z     vdW  Elec       q    Type
REMARK                         _______ _______ _______ _____ _____    ______ ____
ROOT
ATOM      1  C   UNL     1      45.431   6.538  11.492  0.00  0.00    +0.000 A 
ATOM      2  C   UNL     1      45.056   7.827  11.892  0.00  0.00    +0.000 A 
ATOM      3  C   UNL     1      45.829   8.541  12.816  0.00  0.00    +0.000 A 
ATOM      4  C   UNL     1      47.003   7.988  13.344  0.00  0.00    +0.000 A 
ATOM      5  C   UNL     1      47.382   6.702  12.936  0.00  0.00    +0.000 A 
ATOM      6  C   UNL     1      46.611   5.990  12.012  0.00  0.00    +0.000 A 
ENDROOT
BRANCH   1   7
ATOM      7  C   UNL     1      44.560   5.742  10.556  0.00  0.00    +0.000 C 
BRANCH   7  10
ATOM      8  O   UNL     1      44.227   3.072  10.027  0.00  0.00    +0.000 OA
ATOM      9  C   UNL     1      45.057   3.680   9.357  0.00  0.00    +0.000 C 
ATOM     10  N   UNL     1      45.315   5.022   9.558  0.00  0.00    +0.000 N 
ATOM     11  H   UNL     1      45.880   5.543   8.905  0.00  0.00    +0.000 HD
BRANCH   9  12
ATOM     12  C   UNL     1      45.813   3.009   8.293  0.00  0.00    +0.000 A 
ATOM     13  C   UNL     1      46.123   1.601   8.307  0.00  0.00    +0.000 A 
ATOM     14  C   UNL     1      46.853   1.191   7.211  0.00  0.00    +0.000 A 
ATOM     15  S   UNL     1      47.179   2.487   6.152  0.00  0.00    +0.000 S 
ATOM     16  C   UNL     1      46.347   3.597   7.160  0.00  0.00    +0.000 A 
ENDBRANCH   9  12
ENDBRANCH   7  10
ENDBRANCH   1   7
BRANCH   4  17
ATOM     17  C   UNL     1      47.824   8.739  14.360  0.00  0.00    +0.000 C 
BRANCH  17  18
ATOM     18  N   UNL     1      49.156   9.008  13.877  0.00  0.00    +0.000 N 
ATOM     19  C   UNL     1      50.233   8.301  14.350  0.00  0.00    +0.000 C 
ATOM     20  O   UNL     1      50.102   7.392  15.168  0.00  0.00    +0.000 OA
ATOM     21  H   UNL     1      49.307   9.884  13.386  0.00  0.00    +0.000 HD
BRANCH  19  22
ATOM     22  C   UNL     1      51.549   8.639  13.791  0.00  0.00    +0.000 A 
ATOM     23  C   UNL     1      52.526   9.175  14.617  0.00  0.00    +0.000 A 
ATOM     24  S   UNL     1      54.012   9.462  13.828  0.00  0.00    +0.000 S 
ATOM     25  C   UNL     1      53.383   8.932  12.338  0.00  0.00    +0.000 A 
ATOM     26  N   UNL     1      54.147   8.946  11.213  0.00  0.00    +0.000 NA
ATOM     27  C   UNL     1      53.534   8.553  10.148  0.00  0.00    +0.000 A 
ATOM     28  N   UNL     1      52.227   8.140  10.106  0.00  0.00    +0.000 N 
ATOM     29  C   UNL     1      51.427   8.077  11.223  0.00  0.00    +0.000 A 
ATOM     30  O   UNL     1      50.274   7.661  11.161  0.00  0.00    +0.000 OA
ATOM     31  C   UNL     1      52.065   8.523  12.447  0.00  0.00    +0.000 A 
ATOM     32  H   UNL     1      51.807   7.840   9.239  0.00  0.00    +0.000 HD
ENDBRANCH  19  22
ENDBRANCH  17  18
ENDBRANCH   4  17
TORSDOF 6
ENDMDL
MODEL 6
REMARK VINA RESULT:    -6.389      2.018      2.709
REMARK INTER + INTRA:          -9.379
REMARK INTER:                  -8.667
REMARK INTRA:                  -0.712
REMARK UNBOUND:                -0.748
REMARK  Name = 
REMARK  6 active torsions:
REMARK  status: ('A' for Active; 'I' for Inactive)
REMARK    1  A    between atoms: C_2  and  C_25
REMARK    2  A    between atoms: N_3  and  C_4
REMARK    3  A    between atoms: C_4  and  C_5
REMARK    4  A    between atoms: C_8  and  C_9
REMARK    5  A    between atoms: C_9  and  N_10
REMARK    6  A    between atoms: C_11  and  C_13
REMARK                            x       y       z     vdW  Elec       q    Type
REMARK                         _______ _______ _______ _____ _____    ______ ____
ROOT
ATOM      1  C   UNL     1      45.559   6.485  11.601  0.00  0.00    +0.000 A 
ATOM      2  C   UNL     1      46.619   5.753  12.153  0.00  0.00    +0.000 A 
ATOM      3  C   UNL     1      47.452   6.323  13.123  0.00  0.00    +0.000 A 
ATOM      4  C   UNL     1      47.230   7.630  13.576  0.00  0.00    +0.000 A 
ATOM      5  C   UNL     1      46.164   8.358  13.031  0.00  0.00    +0.000 A 
ATOM      6  C   UNL     1      45.330   7.788  12.063  0.00  0.00    +0.000 A 
ENDROOT
BRANCH   1   7
ATOM      7  C   UNL     1      44.710   5.897  10.505  0.00  0.00    +0.000 C 
BRANCH   7  10
ATOM      8  O   UNL     1      44.047   3.337   9.779  0.00  0.00    +0.000 OA
ATOM      9  C   UNL     1      45.039   3.833   9.253  0.00  0.00    +0.000 C 
ATOM     10  N   UNL     1      45.469   5.108   9.564  0.00  0.00    +0.000 N 
ATOM     11  H   UNL     1      46.186   5.559   9.018  0.00  0.00    +0.000 HD
BRANCH   9  12
ATOM     12  C   UNL     1      45.815   3.095   8.250  0.00  0.00    +0.000 A 
ATOM     13  C   UNL     1      46.118   1.690   8.357  0.00  0.00    +0.000 A 
ATOM     14  C   UNL     1      46.870   1.210   7.306  0.00  0.00    +0.000 A 
ATOM     15  S   UNL     1      47.227   2.438   6.176  0.00  0.00    +0.000 S 
ATOM     16  C   UNL     1      46.378   3.610   7.096  0.00  0.00    +0.000 A 
ENDBRANCH   9  12
ENDBRANCH   7  10
ENDBRANCH   1   7
BRANCH   4  17
ATOM     17  C   UNL     1      48.139   8.260  14.599  0.00  0.00    +0.000 C 
BRANCH  17  18
ATOM     18  N   UNL     1      48.507   7.325  15.634  0.00  0.00    +0.000 N 
ATOM     19  C   UNL     1      48.660   7.738  16.934  0.00  0.00    +0.000 C 
ATOM     20  O   UNL     1      48.453   8.901  17.272  0.00  0.00    +0.000 OA
ATOM     21  H   UNL     1      48.894   6.433  15.342  0.00  0.00    +0.000 HD
BRANCH  19  22
ATOM     22  C   UNL     1      49.026   6.711  17.919  0.00  0.00    +0.000 A 
ATOM     23  C   UNL     1      48.115   5.714  18.239  0.00  0.00    +0.000 A 
ATOM     24  S   UNL     1      48.711   4.572  19.358  0.00  0.00    +0.000 S 
ATOM     25  C   UNL     1      50.190   5.401  19.498  0.00  0.00    +0.000 A 
ATOM     26  N   UNL     1      51.164   4.957  20.336  0.00  0.00    +0.000 NA
ATOM     27  C   UNL     1      52.217   5.702  20.372  0.00  0.00    +0.000 A 
ATOM     28  N   UNL     1      52.389   6.848  19.639  0.00  0.00    +0.000 N 
ATOM     29  C   UNL     1      51.447   7.317  18.753  0.00  0.00    +0.000 A 
ATOM     30  O   UNL     1      51.648   8.322  18.079  0.00  0.00    +0.000 OA
ATOM     31  C   UNL     1      50.235   6.523  18.687  0.00  0.00    +0.000 A 
ATOM     32  H   UNL     1      53.241   7.384  19.709  0.00  0.00    +0.000 HD
ENDBRANCH  19  22
ENDBRANCH  17  18
ENDBRANCH   4  17
TORSDOF 6
ENDMDL
MODEL 7
REMARK VINA RESULT:    -6.364      5.736      8.320
REMARK INTER + INTRA:          -9.345
REMARK INTER:                  -8.417
REMARK INTRA:                  -0.927
REMARK UNBOUND:                -0.748
REMARK  Name = 
REMARK  6 active torsions:
REMARK  status: ('A' for Active; 'I' for Inactive)
REMARK    1  A    between atoms: C_2  and  C_25
REMARK    2  A    between atoms: N_3  and  C_4
REMARK    3  A    between atoms: C_4  and  C_5
REMARK    4  A    between atoms: C_8  and  C_9
REMARK    5  A    between atoms: C_9  and  N_10
REMARK    6  A    between atoms: C_11  and  C_13
REMARK                            x       y       z     vdW  Elec       q    Type
REMARK                         _______ _______ _______ _____ _____    ______ ____
ROOT
ATOM      1  C   UNL     1      49.078   7.006  13.929  0.00  0.00    +0.000 A 
ATOM      2  C   UNL     1      50.158   7.624  14.572  0.00  0.00    +0.000 A 
ATOM      3  C   UNL     1      51.117   8.332  13.838  0.00  0.00    +0.000 A 
ATOM      4  C   UNL     1      51.004   8.453  12.446  0.00  0.00    +0.000 A 
ATOM      5  C   UNL     1      49.918   7.843  11.805  0.00  0.00    +0.000 A 
ATOM      6  C   UNL     1      48.959   7.137  12.539  0.00  0.00    +0.000 A 
ENDROOT
BRANCH   1   7
ATOM      7  C   UNL     1      48.088   6.183  14.711  0.00  0.00    +0.000 C 
BRANCH   7  10
ATOM      8  O   UNL     1      47.184   3.784  13.738  0.00  0.00    +0.000 OA
ATOM      9  C   UNL     1      46.455   4.762  13.593  0.00  0.00    +0.000 C 
ATOM     10  N   UNL     1      46.826   6.018  14.029  0.00  0.00    +0.000 N 
ATOM     11  H   UNL     1      46.163   6.777  14.045  0.00  0.00    +0.000 HD
BRANCH   9  12
ATOM     12  C   UNL     1      45.140   4.640  12.956  0.00  0.00    +0.000 A 
ATOM     13  C   UNL     1      44.689   3.445  12.287  0.00  0.00    +0.000 A 
ATOM     14  C   UNL     1      43.424   3.561  11.751  0.00  0.00    +0.000 A 
ATOM     15  S   UNL     1      42.759   5.106  12.038  0.00  0.00    +0.000 S 
ATOM     16  C   UNL     1      44.164   5.618  12.877  0.00  0.00    +0.000 A 
ENDBRANCH   9  12
ENDBRANCH   7  10
ENDBRANCH   1   7
BRANCH   4  17
ATOM     17  C   UNL     1      52.047   9.189  11.646  0.00  0.00    +0.000 C 
BRANCH  17  18
ATOM     18  N   UNL     1      52.238   8.597  10.345  0.00  0.00    +0.000 N 
ATOM     19  C   UNL     1      53.142   9.124   9.457  0.00  0.00    +0.000 C 
ATOM     20  O   UNL     1      53.847  10.088   9.746  0.00  0.00    +0.000 OA
ATOM     21  H   UNL     1      51.521   7.958  10.013  0.00  0.00    +0.000 HD
BRANCH  19  22
ATOM     22  C   UNL     1      53.273   8.446   8.160  0.00  0.00    +0.000 A 
ATOM     23  C   UNL     1      53.183   9.185   6.989  0.00  0.00    +0.000 A 
ATOM     24  S   UNL     1      53.409   8.261   5.573  0.00  0.00    +0.000 S 
ATOM     25  C   UNL     1      53.579   6.827   6.473  0.00  0.00    +0.000 A 
ATOM     26  N   UNL     1      53.775   5.632   5.853  0.00  0.00    +0.000 NA
ATOM     27  C   UNL     1      53.849   4.622   6.654  0.00  0.00    +0.000 A 
ATOM     28  N   UNL     1      53.754   4.699   8.019  0.00  0.00    +0.000 N 
ATOM     29  C   UNL     1      53.590   5.888   8.692  0.00  0.00    +0.000 A 
ATOM     30  O   UNL     1      53.552   5.929   9.917  0.00  0.00    +0.000 OA
ATOM     31  C   UNL     1      53.485   7.054   7.835  0.00  0.00    +0.000 A 
ATOM     32  H   UNL     1      53.825   3.871   8.590  0.00  0.00    +0.000 HD
ENDBRANCH  19  22
ENDBRANCH  17  18
ENDBRANCH   4  17
TORSDOF 6
ENDMDL
MODEL 8
REMARK VINA RESULT:    -5.732      2.244      2.790
REMARK INTER + INTRA:          -8.491
REMARK INTER:                  -7.576
REMARK INTRA:                  -0.915
REMARK UNBOUND:                -0.748
REMARK  Name = 
REMARK  6 active torsions:
REMARK  status: ('A' for Active; 'I' for Inactive)
REMARK    1  A    between atoms: C_2  and  C_25
REMARK    2  A    between atoms: N_3  and  C_4
REMARK    3  A    between atoms: C_4  and  C_5
REMARK    4  A    between atoms: C_8  and  C_9
REMARK    5  A    between atoms: C_9  and  N_10
REMARK    6  A    between atoms: C_11  and  C_13
REMARK                            x       y       z     vdW  Elec       q    Type
REMARK                         _______ _______ _______ _____ _____    ______ ____
ROOT
ATOM      1  C   UNL     1      46.387   7.484  12.389  0.00  0.00    +0.000 A 
ATOM      2  C   UNL     1      47.512   6.650  12.359  0.00  0.00    +0.000 A 
ATOM      3  C   UNL     1      48.613   6.905  13.186  0.00  0.00    +0.000 A 
ATOM      4  C   UNL     1      48.603   7.988  14.074  0.00  0.00    +0.000 A 
ATOM      5  C   UNL     1      47.474   8.817  14.110  0.00  0.00    +0.000 A 
ATOM      6  C   UNL     1      46.373   8.561  13.285  0.00  0.00    +0.000 A 
ENDROOT
BRANCH   1   7
ATOM      7  C   UNL     1      45.235   7.253  11.447  0.00  0.00    +0.000 C 
BRANCH   7  10
ATOM      8  O   UNL     1      43.938   4.837  11.496  0.00  0.00    +0.000 OA
ATOM      9  C   UNL     1      44.762   5.017  10.604  0.00  0.00    +0.000 C 
ATOM     10  N   UNL     1      45.483   6.190  10.502  0.00  0.00    +0.000 N 
ATOM     11  H   UNL     1      46.038   6.386   9.684  0.00  0.00    +0.000 HD
BRANCH   9  12
ATOM     12  C   UNL     1      45.013   3.991   9.586  0.00  0.00    +0.000 A 
ATOM     13  C   UNL     1      44.696   2.596   9.770  0.00  0.00    +0.000 A 
ATOM     14  C   UNL     1      45.030   1.812   8.685  0.00  0.00    +0.000 A 
ATOM     15  S   UNL     1      45.731   2.735   7.434  0.00  0.00    +0.000 S 
ATOM     16  C   UNL     1      45.589   4.182   8.343  0.00  0.00    +0.000 A 
ENDBRANCH   9  12
ENDBRANCH   7  10
ENDBRANCH   1   7
BRANCH   4  17
ATOM     17  C   UNL     1      49.796   8.286  14.946  0.00  0.00    +0.000 C 
BRANCH  17  18
ATOM     18  N   UNL     1      49.884   7.372  16.059  0.00  0.00    +0.000 N 
ATOM     19  C   UNL     1      50.769   7.595  17.084  0.00  0.00    +0.000 C 
ATOM     20  O   UNL     1      51.486   8.592  17.115  0.00  0.00    +0.000 OA
ATOM     21  H   UNL     1      49.475   6.450  15.940  0.00  0.00    +0.000 HD
BRANCH  19  22
ATOM     22  C   UNL     1      50.779   6.615  18.179  0.00  0.00    +0.000 A 
ATOM     23  C   UNL     1      51.921   5.861  18.411  0.00  0.00    +0.000 A 
ATOM     24  S   UNL     1      51.790   4.809  19.748  0.00  0.00    +0.000 S 
ATOM     25  C   UNL     1      50.180   5.282  20.030  0.00  0.00    +0.000 A 
ATOM     26  N   UNL     1      49.455   4.728  21.039  0.00  0.00    +0.000 NA
ATOM     27  C   UNL     1      48.238   5.151  21.115  0.00  0.00    +0.000 A 
ATOM     28  N   UNL     1      47.682   6.085  20.279  0.00  0.00    +0.000 N 
ATOM     29  C   UNL     1      48.385   6.697  19.268  0.00  0.00    +0.000 A 
ATOM     30  O   UNL     1      47.872   7.560  18.564  0.00  0.00    +0.000 OA
ATOM     31  C   UNL     1      49.756   6.244  19.129  0.00  0.00    +0.000 A 
ATOM     32  H   UNL     1      46.723   6.377  20.395  0.00  0.00    +0.000 HD
ENDBRANCH  19  22
ENDBRANCH  17  18
ENDBRANCH   4  17
TORSDOF 6
ENDMDL
MODEL 9
REMARK VINA RESULT:    -5.386      2.695      3.598
REMARK INTER + INTRA:          -8.024
REMARK INTER:                  -7.123
REMARK INTRA:                  -0.900
REMARK UNBOUND:                -0.748
REMARK  Name = 
REMARK  6 active torsions:
REMARK  status: ('A' for Active; 'I' for Inactive)
REMARK    1  A    between atoms: C_2  and  C_25
REMARK    2  A    between atoms: N_3  and  C_4
REMARK    3  A    between atoms: C_4  and  C_5
REMARK    4  A    between atoms: C_8  and  C_9
REMARK    5  A    between atoms: C_9  and  N_10
REMARK    6  A    between atoms: C_11  and  C_13
REMARK                            x       y       z     vdW  Elec       q    Type
REMARK                         _______ _______ _______ _____ _____    ______ ____
ROOT
ATOM      1  C   UNL     1      46.781   7.475  12.643  0.00  0.00    +0.000 A 
ATOM      2  C   UNL     1      47.953   6.720  12.502  0.00  0.00    +0.000 A 
ATOM      3  C   UNL     1      49.093   7.023  13.257  0.00  0.00    +0.000 A 
ATOM      4  C   UNL     1      49.077   8.075  14.183  0.00  0.00    +0.000 A 
ATOM      5  C   UNL     1      47.901   8.823  14.330  0.00  0.00    +0.000 A 
ATOM      6  C   UNL     1      46.762   8.519  13.577  0.00  0.00    +0.000 A 
ENDROOT
BRANCH   1   7
ATOM      7  C   UNL     1      45.581   7.195  11.777  0.00  0.00    +0.000 C 
BRANCH   7  10
ATOM      8  O   UNL     1      43.724   5.238  11.281  0.00  0.00    +0.000 OA
ATOM      9  C   UNL     1      44.784   5.181  10.663  0.00  0.00    +0.000 C 
ATOM     10  N   UNL     1      45.791   6.105  10.854  0.00  0.00    +0.000 N 
ATOM     11  H   UNL     1      46.586   6.138  10.236  0.00  0.00    +0.000 HD
BRANCH   9  12
ATOM     12  C   UNL     1      45.028   4.125   9.674  0.00  0.00    +0.000 A 
ATOM     13  C   UNL     1      44.713   2.736   9.900  0.00  0.00    +0.000 A 
ATOM     14  C   UNL     1      45.039   1.921   8.837  0.00  0.00    +0.000 A 
ATOM     15  S   UNL     1      45.731   2.807   7.554  0.00  0.00    +0.000 S 
ATOM     16  C   UNL     1      45.596   4.279   8.422  0.00  0.00    +0.000 A 
ENDBRANCH   9  12
ENDBRANCH   7  10
ENDBRANCH   1   7
BRANCH   4  17
ATOM     17  C   UNL     1      50.308   8.425  14.978  0.00  0.00    +0.000 C 
BRANCH  17  18
ATOM     18  N   UNL     1      50.612   7.415  15.963  0.00  0.00    +0.000 N 
ATOM     19  C   UNL     1      50.788   7.750  17.282  0.00  0.00    +0.000 C 
ATOM     20  O   UNL     1      50.657   8.906  17.680  0.00  0.00    +0.000 OA
ATOM     21  H   UNL     1      50.941   6.516  15.625  0.00  0.00    +0.000 HD
BRANCH  19  22
ATOM     22  C   UNL     1      51.084   6.653  18.213  0.00  0.00    +0.000 A 
ATOM     23  C   UNL     1      50.304   6.490  19.349  0.00  0.00    +0.000 A 
ATOM     24  S   UNL     1      50.744   5.142  20.297  0.00  0.00    +0.000 S 
ATOM     25  C   UNL     1      52.030   4.759  19.252  0.00  0.00    +0.000 A 
ATOM     26  N   UNL     1      52.847   3.702  19.507  0.00  0.00    +0.000 NA
ATOM     27  C   UNL     1      53.804   3.549  18.654  0.00  0.00    +0.000 A 
ATOM     28  N   UNL     1      54.013   4.353  17.563  0.00  0.00    +0.000 N 
ATOM     29  C   UNL     1      53.193   5.412  17.246  0.00  0.00    +0.000 A 
ATOM     30  O   UNL     1      53.382   6.086  16.239  0.00  0.00    +0.000 OA
ATOM     31  C   UNL     1      52.110   5.636  18.184  0.00  0.00    +0.000 A 
ATOM     32  H   UNL     1      54.778   4.177  16.930  0.00  0.00    +0.000 HD
ENDBRANCH  19  22
ENDBRANCH  17  18
ENDBRANCH   4  17
TORSDOF 6
ENDMDL
