MODEL 1
REMARK VINA RESULT:    -8.741      0.000      0.000
REMARK INTER + INTRA:         -12.573
REMARK INTER:                 -11.807
REMARK INTRA:                  -0.767
REMARK UNBOUND:                -0.767
REMARK  Name = 
REMARK  6 active torsions:
REMARK  status: ('A' for Active; 'I' for Inactive)
REMARK    1  A    between atoms: C_2  and  C_19
REMARK    2  A    between atoms: N_3  and  C_4
REMARK    3  A    between atoms: C_4  and  C_5
REMARK    4  A    between atoms: C_8  and  C_9
REMARK    5  A    between atoms: C_9  and  O_10
REMARK    6  A    between atoms: O_10  and  C_11
REMARK                            x       y       z     vdW  Elec       q    Type
REMARK                         _______ _______ _______ _____ _____    ______ ____
ROOT
ATOM      1  O   UNL     1      49.057   6.790  13.333  0.00  0.00    +0.000 OA
ATOM      2  C   UNL     1      48.212   6.640  14.211  0.00  0.00    +0.000 C 
ATOM      3  N   UNL     1      46.874   6.819  13.978  0.00  0.00    +0.000 N 
ATOM      4  H   UNL     1      46.223   6.828  14.756  0.00  0.00    +0.000 HD
ENDROOT
BRANCH   2   5
ATOM      5  C   UNL     1      48.591   6.208  15.562  0.00  0.00    +0.000 A 
ATOM      6  C   UNL     1      49.353   7.051  16.362  0.00  0.00    +0.000 A 
ATOM      7  S   UNL     1      49.685   6.417  17.908  0.00  0.00    +0.000 S 
ATOM      8  C   UNL     1      48.791   5.007  17.580  0.00  0.00    +0.000 A 
ATOM      9  N   UNL     1      48.630   4.047  18.529  0.00  0.00    +0.000 NA
ATOM     10  C   UNL     1      47.896   3.050  18.162  0.00  0.00    +0.000 A 
ATOM     11  N   UNL     1      47.327   2.918  16.924  0.00  0.00    +0.000 N 
ATOM     12  C   UNL     1      47.531   3.821  15.906  0.00  0.00    +0.000 A 
ATOM     13  O   UNL     1      47.130   3.596  14.768  0.00  0.00    +0.000 OA
ATOM     14  C   UNL     1      48.287   4.997  16.291  0.00  0.00    +0.000 A 
ATOM     15  H   UNL     1      46.799   2.090  16.684  0.00  0.00    +0.000 HD
ENDBRANCH   2   5
BRANCH   3  16
ATOM     16  C   UNL     1      46.362   7.270  12.708  0.00  0.00    +0.000 C 
BRANCH  16  17
ATOM     17  C   UNL     1      45.842   6.127  11.876  0.00  0.00    +0.000 A 
ATOM     18  C   UNL     1      45.922   6.175  10.479  0.00  0.00    +0.000 A 
ATOM     19  C   UNL     1      45.480   5.100   9.703  0.00  0.00    +0.000 A 
ATOM     20  C   UNL     1      44.928   3.963  10.309  0.00  0.00    +0.000 A 
ATOM     21  C   UNL     1      44.833   3.922  11.707  0.00  0.00    +0.000 A 
ATOM     22  C   UNL     1      45.274   4.999  12.482  0.00  0.00    +0.000 A 
BRANCH  20  23
ATOM     23  C   UNL     1      44.458   2.799   9.473  0.00  0.00    +0.000 C 
BRANCH  23  24
ATOM     24  O   UNL     1      45.566   1.946   9.188  0.00  0.00    +0.000 OA
BRANCH  24  25
ATOM     25  C   UNL     1      46.186   2.131   7.984  0.00  0.00    +0.000 A 
ATOM     26  C   UNL     1      45.969   3.178   7.093  0.00  0.00    +0.000 A 
ATOM     27  C   UNL     1      46.688   3.227   5.896  0.00  0.00    +0.000 A 
ATOM     28  C   UNL     1      47.603   2.223   5.631  0.00  0.00    +0.000 A 
ATOM     29  N   UNL     1      47.838   1.189   6.465  0.00  0.00    +0.000 NA
ATOM     30  C   UNL     1      47.126   1.169   7.617  0.00  0.00    +0.000 A 
ENDBRANCH  24  25
ENDBRANCH  23  24
ENDBRANCH  20  23
ENDBRANCH  16  17
ENDBRANCH   3  16
TORSDOF 6
ENDMDL
MODEL 2
REMARK VINA RESULT:    -8.554      0.959      1.413
REMARK INTER + INTRA:         -12.321
REMARK INTER:                 -11.277
REMARK INTRA:                  -1.044
REMARK UNBOUND:                -0.767
REMARK  Name = 
REMARK  6 active torsions:
REMARK  status: ('A' for Active; 'I' for Inactive)
REMARK    1  A    between atoms: C_2  and  C_19
REMARK    2  A    between atoms: N_3  and  C_4
REMARK    3  A    between atoms: C_4  and  C_5
REMARK    4  A    between atoms: C_8  and  C_9
REMARK    5  A    between atoms: C_9  and  O_10
REMARK    6  A    between atoms: O_10  and  C_11
REMARK                            x       y       z     vdW  Elec       q    Type
REMARK                         _______ _______ _______ _____ _____    ______ ____
ROOT
ATOM      1  O   UNL     1      49.362   6.902  13.572  0.00  0.00    +0.000 OA
ATOM      2  C   UNL     1      48.587   6.770  14.515  0.00  0.00    +0.000 C 
ATOM      3  N   UNL     1      47.266   7.126  14.433  0.00  0.00    +0.000 N 
ATOM      4  H   UNL     1      46.694   7.138  15.271  0.00  0.00    +0.000 HD
ENDROOT
BRANCH   2   5
ATOM      5  C   UNL     1      49.030   6.175  15.782  0.00  0.00    +0.000 A 
ATOM      6  C   UNL     1      50.058   6.773  16.498  0.00  0.00    +0.000 A 
ATOM      7  S   UNL     1      50.433   5.977  17.958  0.00  0.00    +0.000 S 
ATOM      8  C   UNL     1      49.211   4.823  17.704  0.00  0.00    +0.000 A 
ATOM      9  N   UNL     1      48.960   3.858  18.629  0.00  0.00    +0.000 NA
ATOM     10  C   UNL     1      47.979   3.073  18.330  0.00  0.00    +0.000 A 
ATOM     11  N   UNL     1      47.241   3.153  17.180  0.00  0.00    +0.000 N 
ATOM     12  C   UNL     1      47.511   4.058  16.179  0.00  0.00    +0.000 A 
ATOM     13  O   UNL     1      46.927   4.005  15.100  0.00  0.00    +0.000 OA
ATOM     14  C   UNL     1      48.556   5.012  16.499  0.00  0.00    +0.000 A 
ATOM     15  H   UNL     1      46.514   2.479  16.985  0.00  0.00    +0.000 HD
ENDBRANCH   2   5
BRANCH   3  16
ATOM     16  C   UNL     1      46.703   7.749  13.261  0.00  0.00    +0.000 C 
BRANCH  16  17
ATOM     17  C   UNL     1      46.059   6.740  12.346  0.00  0.00    +0.000 A 
ATOM     18  C   UNL     1      45.003   5.942  12.804  0.00  0.00    +0.000 A 
ATOM     19  C   UNL     1      44.373   5.035  11.949  0.00  0.00    +0.000 A 
ATOM     20  C   UNL     1      44.801   4.891  10.622  0.00  0.00    +0.000 A 
ATOM     21  C   UNL     1      45.869   5.678  10.168  0.00  0.00    +0.000 A 
ATOM     22  C   UNL     1      46.499   6.585  11.025  0.00  0.00    +0.000 A 
BRANCH  20  23
ATOM     23  C   UNL     1      44.116   3.918   9.695  0.00  0.00    +0.000 C 
BRANCH  23  24
ATOM     24  O   UNL     1      44.602   4.109   8.368  0.00  0.00    +0.000 OA
BRANCH  24  25
ATOM     25  C   UNL     1      45.469   3.165   7.893  0.00  0.00    +0.000 A 
ATOM     26  C   UNL     1      46.328   3.302   6.805  0.00  0.00    +0.000 A 
ATOM     27  C   UNL     1      47.160   2.240   6.444  0.00  0.00    +0.000 A 
ATOM     28  C   UNL     1      47.105   1.072   7.186  0.00  0.00    +0.000 A 
ATOM     29  N   UNL     1      46.285   0.898   8.242  0.00  0.00    +0.000 NA
ATOM     30  C   UNL     1      45.490   1.946   8.568  0.00  0.00    +0.000 A 
ENDBRANCH  24  25
ENDBRANCH  23  24
ENDBRANCH  20  23
ENDBRANCH  16  17
ENDBRANCH   3  16
TORSDOF 6
ENDMDL
MODEL 3
REMARK VINA RESULT:    -8.065      1.820      2.392
REMARK INTER + INTRA:         -11.661
REMARK INTER:                 -10.843
REMARK INTRA:                  -0.818
REMARK UNBOUND:                -0.767
REMARK  Name = 
REMARK  6 active torsions:
REMARK  status: ('A' for Active; 'I' for Inactive)
REMARK    1  A    between atoms: C_2  and  C_19
REMARK    2  A    between atoms: N_3  and  C_4
REMARK    3  A    between atoms: C_4  and  C_5
REMARK    4  A    between atoms: C_8  and  C_9
REMARK    5  A    between atoms: C_9  and  O_10
REMARK    6  A    between atoms: O_10  and  C_11
REMARK                            x       y       z     vdW  Elec       q    Type
REMARK                         _______ _______ _______ _____ _____    ______ ____
ROOT
ATOM      1  O   UNL     1      49.501   6.702  15.213  0.00  0.00    +0.000 OA
ATOM      2  C   UNL     1      48.509   6.084  15.586  0.00  0.00    +0.000 C 
ATOM      3  N   UNL     1      47.397   5.937  14.799  0.00  0.00    +0.000 N 
ATOM      4  H   UNL     1      46.547   5.547  15.193  0.00  0.00    +0.000 HD
ENDROOT
BRANCH   2   5
ATOM      5  C   UNL     1      48.478   5.420  16.896  0.00  0.00    +0.000 A 
ATOM      6  C   UNL     1      48.420   4.034  16.961  0.00  0.00    +0.000 A 
ATOM      7  S   UNL     1      48.420   3.420  18.551  0.00  0.00    +0.000 S 
ATOM      8  C   UNL     1      48.533   4.983  19.211  0.00  0.00    +0.000 A 
ATOM      9  N   UNL     1      48.626   5.167  20.555  0.00  0.00    +0.000 NA
ATOM     10  C   UNL     1      48.748   6.400  20.919  0.00  0.00    +0.000 A 
ATOM     11  N   UNL     1      48.763   7.466  20.061  0.00  0.00    +0.000 N 
ATOM     12  C   UNL     1      48.588   7.336  18.702  0.00  0.00    +0.000 A 
ATOM     13  O   UNL     1      48.457   8.321  17.981  0.00  0.00    +0.000 OA
ATOM     14  C   UNL     1      48.522   5.964  18.235  0.00  0.00    +0.000 A 
ATOM     15  H   UNL     1      48.816   8.412  20.413  0.00  0.00    +0.000 HD
ENDBRANCH   2   5
BRANCH   3  16
ATOM     16  C   UNL     1      47.278   6.558  13.504  0.00  0.00    +0.000 C 
BRANCH  16  17
ATOM     17  C   UNL     1      46.472   5.716  12.550  0.00  0.00    +0.000 A 
ATOM     18  C   UNL     1      46.184   6.184  11.262  0.00  0.00    +0.000 A 
ATOM     19  C   UNL     1      45.473   5.390  10.358  0.00  0.00    +0.000 A 
ATOM     20  C   UNL     1      45.016   4.119  10.733  0.00  0.00    +0.000 A 
ATOM     21  C   UNL     1      45.290   3.657  12.028  0.00  0.00    +0.000 A 
ATOM     22  C   UNL     1      46.000   4.453  12.931  0.00  0.00    +0.000 A 
BRANCH  20  23
ATOM     23  C   UNL     1      44.256   3.258   9.755  0.00  0.00    +0.000 C 
BRANCH  23  24
ATOM     24  O   UNL     1      45.050   2.125   9.409  0.00  0.00    +0.000 OA
BRANCH  24  25
ATOM     25  C   UNL     1      45.786   2.222   8.262  0.00  0.00    +0.000 A 
ATOM     26  C   UNL     1      45.810   3.301   7.382  0.00  0.00    +0.000 A 
ATOM     27  C   UNL     1      46.623   3.248   6.246  0.00  0.00    +0.000 A 
ATOM     28  C   UNL     1      47.386   2.114   6.029  0.00  0.00    +0.000 A 
ATOM     29  N   UNL     1      47.387   1.046   6.854  0.00  0.00    +0.000 NA
ATOM     30  C   UNL     1      46.589   1.127   7.946  0.00  0.00    +0.000 A 
ENDBRANCH  24  25
ENDBRANCH  23  24
ENDBRANCH  20  23
ENDBRANCH  16  17
ENDBRANCH   3  16
TORSDOF 6
ENDMDL
MODEL 4
REMARK VINA RESULT:    -7.673      1.744      2.247
REMARK INTER + INTRA:         -11.131
REMARK INTER:                 -10.254
REMARK INTRA:                  -0.878
REMARK UNBOUND:                -0.767
REMARK  Name = 
REMARK  6 active torsions:
REMARK  status: ('A' for Active; 'I' for Inactive)
REMARK    1  A    between atoms: C_2  and  C_19
REMARK    2  A    between atoms: N_3  and  C_4
REMARK    3  A    between atoms: C_4  and  C_5
REMARK    4  A    between atoms: C_8  and  C_9
REMARK    5  A    between atoms: C_9  and  O_10
REMARK    6  A    between atoms: O_10  and  C_11
REMARK                            x       y       z     vdW  Elec       q    Type
REMARK                         _______ _______ _______ _____ _____    ______ ____
ROOT
ATOM      1  O   UNL     1      49.630   8.036  15.516  0.00  0.00    +0.000 OA
ATOM      2  C   UNL     1      48.774   7.270  15.951  0.00  0.00    +0.000 C 
ATOM      3  N   UNL     1      47.975   6.522  15.128  0.00  0.00    +0.000 N 
ATOM      4  H   UNL     1      47.187   6.013  15.515  0.00  0.00    +0.000 HD
ENDROOT
BRANCH   2   5
ATOM      5  C   UNL     1      48.593   7.078  17.395  0.00  0.00    +0.000 A 
ATOM      6  C   UNL     1      48.257   8.164  18.194  0.00  0.00    +0.000 A 
ATOM      7  S   UNL     1      48.055   7.770  19.840  0.00  0.00    +0.000 S 
ATOM      8  C   UNL     1      48.373   6.126  19.540  0.00  0.00    +0.000 A 
ATOM      9  N   UNL     1      48.309   5.210  20.543  0.00  0.00    +0.000 NA
ATOM     10  C   UNL     1      48.532   3.994  20.170  0.00  0.00    +0.000 A 
ATOM     11  N   UNL     1      48.834   3.615  18.890  0.00  0.00    +0.000 N 
ATOM     12  C   UNL     1      48.991   4.515  17.860  0.00  0.00    +0.000 A 
ATOM     13  O   UNL     1      49.406   4.158  16.762  0.00  0.00    +0.000 OA
ATOM     14  C   UNL     1      48.678   5.888  18.211  0.00  0.00    +0.000 A 
ATOM     15  H   UNL     1      49.041   2.651  18.672  0.00  0.00    +0.000 HD
ENDBRANCH   2   5
BRANCH   3  16
ATOM     16  C   UNL     1      48.024   6.631  13.691  0.00  0.00    +0.000 C 
BRANCH  16  17
ATOM     17  C   UNL     1      46.969   5.784  13.028  0.00  0.00    +0.000 A 
ATOM     18  C   UNL     1      46.216   6.297  11.964  0.00  0.00    +0.000 A 
ATOM     19  C   UNL     1      45.265   5.502  11.318  0.00  0.00    +0.000 A 
ATOM     20  C   UNL     1      45.033   4.185  11.737  0.00  0.00    +0.000 A 
ATOM     21  C   UNL     1      45.776   3.678  12.812  0.00  0.00    +0.000 A 
ATOM     22  C   UNL     1      46.726   4.473  13.459  0.00  0.00    +0.000 A 
BRANCH  20  23
ATOM     23  C   UNL     1      44.013   3.325  11.033  0.00  0.00    +0.000 C 
BRANCH  23  24
ATOM     24  O   UNL     1      43.953   3.696   9.657  0.00  0.00    +0.000 OA
BRANCH  24  25
ATOM     25  C   UNL     1      44.951   3.222   8.853  0.00  0.00    +0.000 A 
ATOM     26  C   UNL     1      45.418   1.912   8.797  0.00  0.00    +0.000 A 
ATOM     27  C   UNL     1      46.450   1.584   7.914  0.00  0.00    +0.000 A 
ATOM     28  C   UNL     1      46.982   2.581   7.115  0.00  0.00    +0.000 A 
ATOM     29  N   UNL     1      46.561   3.862   7.143  0.00  0.00    +0.000 NA
ATOM     30  C   UNL     1      45.559   4.150   8.009  0.00  0.00    +0.000 A 
ENDBRANCH  24  25
ENDBRANCH  23  24
ENDBRANCH  20  23
ENDBRANCH  16  17
ENDBRANCH   3  16
TORSDOF 6
ENDMDL
MODEL 5
REMARK VINA RESULT:    -7.672      2.556      4.137
REMARK INTER + INTRA:         -11.130
REMARK INTER:                 -10.243
REMARK INTRA:                  -0.887
REMARK UNBOUND:                -0.767
REMARK  Name = 
REMARK  6 active torsions:
REMARK  status: ('A' for Active; 'I' for Inactive)
REMARK    1  A    between atoms: C_2  and  C_19
REMARK    2  A    between atoms: N_3  and  C_4
REMARK    3  A    between atoms: C_4  and  C_5
REMARK    4  A    between atoms: C_8  and  C_9
REMARK    5  A    between atoms: C_9  and  O_10
REMARK    6  A    between atoms: O_10  and  C_11
REMARK                            x       y       z     vdW  Elec       q    Type
REMARK                         _______ _______ _______ _____ _____    ______ ____
ROOT
ATOM      1  O   UNL     1      49.387   5.900  15.790  0.00  0.00    +0.000 OA
ATOM      2  C   UNL     1      48.847   6.729  15.064  0.00  0.00    +0.000 C 
ATOM      3  N   UNL     1      47.688   6.464  14.384  0.00  0.00    +0.000 N 
ATOM      4  H   UNL     1      47.352   7.118  13.685  0.00  0.00    +0.000 HD
ENDROOT
BRANCH   2   5
ATOM      5  C   UNL     1      49.398   8.084  14.921  0.00  0.00    +0.000 A 
ATOM      6  C   UNL     1      49.602   8.864  16.052  0.00  0.00    +0.000 A 
ATOM      7  S   UNL     1      50.271  10.395  15.719  0.00  0.00    +0.000 S 
ATOM      8  C   UNL     1      50.347  10.058  14.053  0.00  0.00    +0.000 A 
ATOM      9  N   UNL     1      50.881  10.957  13.184  0.00  0.00    +0.000 NA
ATOM     10  C   UNL     1      50.914  10.559  11.956  0.00  0.00    +0.000 A 
ATOM     11  N   UNL     1      50.442   9.351  11.517  0.00  0.00    +0.000 N 
ATOM     12  C   UNL     1      49.819   8.445  12.345  0.00  0.00    +0.000 A 
ATOM     13  O   UNL     1      49.276   7.441  11.894  0.00  0.00    +0.000 OA
ATOM     14  C   UNL     1      49.823   8.814  13.748  0.00  0.00    +0.000 A 
ATOM     15  H   UNL     1      50.457   9.117  10.535  0.00  0.00    +0.000 HD
ENDBRANCH   2   5
BRANCH   3  16
ATOM     16  C   UNL     1      47.054   5.169  14.409  0.00  0.00    +0.000 C 
BRANCH  16  17
ATOM     17  C   UNL     1      46.288   4.896  13.141  0.00  0.00    +0.000 A 
ATOM     18  C   UNL     1      46.230   5.862  12.128  0.00  0.00    +0.000 A 
ATOM     19  C   UNL     1      45.557   5.599  10.932  0.00  0.00    +0.000 A 
ATOM     20  C   UNL     1      44.910   4.372  10.733  0.00  0.00    +0.000 A 
ATOM     21  C   UNL     1      44.955   3.412  11.753  0.00  0.00    +0.000 A 
ATOM     22  C   UNL     1      45.627   3.676  12.950  0.00  0.00    +0.000 A 
BRANCH  20  23
ATOM     23  C   UNL     1      44.191   4.085   9.438  0.00  0.00    +0.000 C 
BRANCH  23  24
ATOM     24  O   UNL     1      45.059   4.375   8.344  0.00  0.00    +0.000 OA
BRANCH  24  25
ATOM     25  C   UNL     1      45.845   3.350   7.899  0.00  0.00    +0.000 A 
ATOM     26  C   UNL     1      46.847   3.432   6.936  0.00  0.00    +0.000 A 
ATOM     27  C   UNL     1      47.568   2.287   6.589  0.00  0.00    +0.000 A 
ATOM     28  C   UNL     1      47.261   1.094   7.220  0.00  0.00    +0.000 A 
ATOM     29  N   UNL     1      46.295   0.971   8.153  0.00  0.00    +0.000 NA
ATOM     30  C   UNL     1      45.613   2.099   8.468  0.00  0.00    +0.000 A 
ENDBRANCH  24  25
ENDBRANCH  23  24
ENDBRANCH  20  23
ENDBRANCH  16  17
ENDBRANCH   3  16
TORSDOF 6
ENDMDL
MODEL 6
REMARK VINA RESULT:    -7.670      2.850      3.708
REMARK INTER + INTRA:         -11.127
REMARK INTER:                 -10.506
REMARK INTRA:                  -0.622
REMARK UNBOUND:                -0.767
REMARK  Name = 
REMARK  6 active torsions:
REMARK  status: ('A' for Active; 'I' for Inactive)
REMARK    1  A    between atoms: C_2  and  C_19
REMARK    2  A    between atoms: N_3  and  C_4
REMARK    3  A    between atoms: C_4  and  C_5
REMARK    4  A    between atoms: C_8  and  C_9
REMARK    5  A    between atoms: C_9  and  O_10
REMARK    6  A    between atoms: O_10  and  C_11
REMARK                            x       y       z     vdW  Elec       q    Type
REMARK                         _______ _______ _______ _____ _____    ______ ____
ROOT
ATOM      1  O   UNL     1      45.079   8.527  11.614  0.00  0.00    +0.000 OA
ATOM      2  C   UNL     1      45.921   8.092  12.394  0.00  0.00    +0.000 C 
ATOM      3  N   UNL     1      45.727   6.945  13.117  0.00  0.00    +0.000 N 
ATOM      4  H   UNL     1      46.378   6.697  13.854  0.00  0.00    +0.000 HD
ENDROOT
BRANCH   2   5
ATOM      5  C   UNL     1      47.217   8.763  12.561  0.00  0.00    +0.000 A 
ATOM      6  C   UNL     1      47.386  10.057  12.084  0.00  0.00    +0.000 A 
ATOM      7  S   UNL     1      48.935  10.702  12.381  0.00  0.00    +0.000 S 
ATOM      8  C   UNL     1      49.426   9.289  13.190  0.00  0.00    +0.000 A 
ATOM      9  N   UNL     1      50.662   9.201  13.750  0.00  0.00    +0.000 NA
ATOM     10  C   UNL     1      50.891   8.090  14.368  0.00  0.00    +0.000 A 
ATOM     11  N   UNL     1      50.003   7.052  14.457  0.00  0.00    +0.000 N 
ATOM     12  C   UNL     1      48.774   7.062  13.836  0.00  0.00    +0.000 A 
ATOM     13  O   UNL     1      48.067   6.060  13.811  0.00  0.00    +0.000 OA
ATOM     14  C   UNL     1      48.439   8.318  13.191  0.00  0.00    +0.000 A 
ATOM     15  H   UNL     1      50.259   6.191  14.918  0.00  0.00    +0.000 HD
ENDBRANCH   2   5
BRANCH   3  16
ATOM     16  C   UNL     1      44.492   6.202  13.073  0.00  0.00    +0.000 C 
BRANCH  16  17
ATOM     17  C   UNL     1      44.532   5.110  12.036  0.00  0.00    +0.000 A 
ATOM     18  C   UNL     1      45.227   3.920  12.288  0.00  0.00    +0.000 A 
ATOM     19  C   UNL     1      45.233   2.887  11.348  0.00  0.00    +0.000 A 
ATOM     20  C   UNL     1      44.561   3.031  10.126  0.00  0.00    +0.000 A 
ATOM     21  C   UNL     1      43.879   4.228   9.868  0.00  0.00    +0.000 A 
ATOM     22  C   UNL     1      43.875   5.262  10.808  0.00  0.00    +0.000 A 
BRANCH  20  23
ATOM     23  C   UNL     1      44.560   1.912   9.114  0.00  0.00    +0.000 C 
BRANCH  23  24
ATOM     24  O   UNL     1      45.904   1.512   8.853  0.00  0.00    +0.000 OA
BRANCH  24  25
ATOM     25  C   UNL     1      46.455   1.949   7.681  0.00  0.00    +0.000 A 
ATOM     26  C   UNL     1      46.057   3.061   6.943  0.00  0.00    +0.000 A 
ATOM     27  C   UNL     1      46.727   3.379   5.758  0.00  0.00    +0.000 A 
ATOM     28  C   UNL     1      47.774   2.571   5.350  0.00  0.00    +0.000 A 
ATOM     29  N   UNL     1      48.185   1.483   6.033  0.00  0.00    +0.000 NA
ATOM     30  C   UNL     1      47.517   1.200   7.178  0.00  0.00    +0.000 A 
ENDBRANCH  24  25
ENDBRANCH  23  24
ENDBRANCH  20  23
ENDBRANCH  16  17
ENDBRANCH   3  16
TORSDOF 6
ENDMDL
MODEL 7
REMARK VINA RESULT:    -7.392      3.536      4.859
REMARK INTER + INTRA:         -10.752
REMARK INTER:                 -10.084
REMARK INTRA:                  -0.668
REMARK UNBOUND:                -0.767
REMARK  Name = 
REMARK  6 active torsions:
REMARK  status: ('A' for Active; 'I' for Inactive)
REMARK    1  A    between atoms: C_2  and  C_19
REMARK    2  A    between atoms: N_3  and  C_4
REMARK    3  A    between atoms: C_4  and  C_5
REMARK    4  A    between atoms: C_8  and  C_9
REMARK    5  A    between atoms: C_9  and  O_10
REMARK    6  A    between atoms: O_10  and  C_11
REMARK                            x       y       z     vdW  Elec       q    Type
REMARK                         _______ _______ _______ _____ _____    ______ ____
ROOT
ATOM      1  O   UNL     1      47.739   7.301  13.859  0.00  0.00    +0.000 OA
ATOM      2  C   UNL     1      47.183   7.928  12.961  0.00  0.00    +0.000 C 
ATOM      3  N   UNL     1      45.914   7.634  12.539  0.00  0.00    +0.000 N 
ATOM      4  H   UNL     1      45.545   8.075  11.703  0.00  0.00    +0.000 HD
ENDROOT
BRANCH   2   5
ATOM      5  C   UNL     1      47.842   9.072  12.316  0.00  0.00    +0.000 A 
ATOM      6  C   UNL     1      47.159  10.275  12.191  0.00  0.00    +0.000 A 
ATOM      7  S   UNL     1      48.070  11.508  11.447  0.00  0.00    +0.000 S 
ATOM      8  C   UNL     1      49.424  10.490  11.298  0.00  0.00    +0.000 A 
ATOM      9  N   UNL     1      50.591  10.954  10.775  0.00  0.00    +0.000 NA
ATOM     10  C   UNL     1      51.550  10.090  10.758  0.00  0.00    +0.000 A 
ATOM     11  N   UNL     1      51.441   8.798  11.196  0.00  0.00    +0.000 N 
ATOM     12  C   UNL     1      50.260   8.260  11.655  0.00  0.00    +0.000 A 
ATOM     13  O   UNL     1      50.160   7.061  11.898  0.00  0.00    +0.000 OA
ATOM     14  C   UNL     1      49.170   9.212  11.764  0.00  0.00    +0.000 A 
ATOM     15  H   UNL     1      52.218   8.157  11.114  0.00  0.00    +0.000 HD
ENDBRANCH   2   5
BRANCH   3  16
ATOM     16  C   UNL     1      45.162   6.521  13.062  0.00  0.00    +0.000 C 
BRANCH  16  17
ATOM     17  C   UNL     1      45.012   5.419  12.046  0.00  0.00    +0.000 A 
ATOM     18  C   UNL     1      44.516   4.166  12.429  0.00  0.00    +0.000 A 
ATOM     19  C   UNL     1      44.335   3.153  11.484  0.00  0.00    +0.000 A 
ATOM     20  C   UNL     1      44.667   3.366  10.139  0.00  0.00    +0.000 A 
ATOM     21  C   UNL     1      45.178   4.614   9.758  0.00  0.00    +0.000 A 
ATOM     22  C   UNL     1      45.360   5.627  10.705  0.00  0.00    +0.000 A 
BRANCH  20  23
ATOM     23  C   UNL     1      44.463   2.275   9.117  0.00  0.00    +0.000 C 
BRANCH  23  24
ATOM     24  O   UNL     1      45.713   1.641   8.849  0.00  0.00    +0.000 OA
BRANCH  24  25
ATOM     25  C   UNL     1      46.336   1.987   7.684  0.00  0.00    +0.000 A 
ATOM     26  C   UNL     1      45.990   3.039   6.840  0.00  0.00    +0.000 A 
ATOM     27  C   UNL     1      46.733   3.266   5.679  0.00  0.00    +0.000 A 
ATOM     28  C   UNL     1      47.800   2.430   5.399  0.00  0.00    +0.000 A 
ATOM     29  N   UNL     1      48.164   1.398   6.187  0.00  0.00    +0.000 NA
ATOM     30  C   UNL     1      47.425   1.203   7.307  0.00  0.00    +0.000 A 
ENDBRANCH  24  25
ENDBRANCH  23  24
ENDBRANCH  20  23
ENDBRANCH  16  17
ENDBRANCH   3  16
TORSDOF 6
ENDMDL
MODEL 8
REMARK VINA RESULT:    -7.234      4.567      8.921
REMARK INTER + INTRA:         -10.538
REMARK INTER:                  -9.760
REMARK INTRA:                  -0.778
REMARK UNBOUND:                -0.767
REMARK  Name = 
REMARK  6 active torsions:
REMARK  status: ('A' for Active; 'I' for Inactive)
REMARK    1  A    between atoms: C_2  and  C_19
REMARK    2  A    between atoms: N_3  and  C_4
REMARK    3  A    between atoms: C_4  and  C_5
REMARK    4  A    between atoms: C_8  and  C_9
REMARK    5  A    between atoms: C_9  and  O_10
REMARK    6  A    between atoms: O_10  and  C_11
REMARK                            x       y       z     vdW  Elec       q    Type
REMARK                         _______ _______ _______ _____ _____    ______ ____
ROOT
ATOM      1  O   UNL     1      47.374   3.082  14.346  0.00  0.00    +0.000 OA
ATOM      2  C   UNL     1      47.097   4.203  14.765  0.00  0.00    +0.000 C 
ATOM      3  N   UNL     1      47.078   4.501  16.102  0.00  0.00    +0.000 N 
ATOM      4  H   UNL     1      46.705   5.392  16.415  0.00  0.00    +0.000 HD
ENDROOT
BRANCH   2   5
ATOM      5  C   UNL     1      46.813   5.308  13.841  0.00  0.00    +0.000 A 
ATOM      6  C   UNL     1      47.765   6.302  13.648  0.00  0.00    +0.000 A 
ATOM      7  S   UNL     1      47.295   7.495  12.526  0.00  0.00    +0.000 S 
ATOM      8  C   UNL     1      45.816   6.709  12.230  0.00  0.00    +0.000 A 
ATOM      9  N   UNL     1      44.940   7.195  11.309  0.00  0.00    +0.000 NA
ATOM     10  C   UNL     1      43.876   6.480  11.154  0.00  0.00    +0.000 A 
ATOM     11  N   UNL     1      43.600   5.335  11.852  0.00  0.00    +0.000 N 
ATOM     12  C   UNL     1      44.415   4.851  12.850  0.00  0.00    +0.000 A 
ATOM     13  O   UNL     1      44.065   3.909  13.555  0.00  0.00    +0.000 OA
ATOM     14  C   UNL     1      45.660   5.578  13.012  0.00  0.00    +0.000 A 
ATOM     15  H   UNL     1      42.728   4.844  11.715  0.00  0.00    +0.000 HD
ENDBRANCH   2   5
BRANCH   3  16
ATOM     16  C   UNL     1      47.308   3.507  17.121  0.00  0.00    +0.000 C 
BRANCH  16  17
ATOM     17  C   UNL     1      48.778   3.275  17.354  0.00  0.00    +0.000 A 
ATOM     18  C   UNL     1      49.375   2.072  16.956  0.00  0.00    +0.000 A 
ATOM     19  C   UNL     1      50.746   1.866  17.131  0.00  0.00    +0.000 A 
ATOM     20  C   UNL     1      51.544   2.852  17.728  0.00  0.00    +0.000 A 
ATOM     21  C   UNL     1      50.943   4.049  18.141  0.00  0.00    +0.000 A 
ATOM     22  C   UNL     1      49.571   4.253  17.967  0.00  0.00    +0.000 A 
BRANCH  20  23
ATOM     23  C   UNL     1      53.026   2.633  17.909  0.00  0.00    +0.000 C 
BRANCH  23  24
ATOM     24  O   UNL     1      53.241   1.390  18.574  0.00  0.00    +0.000 OA
BRANCH  24  25
ATOM     25  C   UNL     1      53.972   0.454  17.899  0.00  0.00    +0.000 A 
ATOM     26  C   UNL     1      54.620   0.631  16.679  0.00  0.00    +0.000 A 
ATOM     27  C   UNL     1      55.334  -0.429  16.116  0.00  0.00    +0.000 A 
ATOM     28  C   UNL     1      55.375  -1.636  16.794  0.00  0.00    +0.000 A 
ATOM     29  N   UNL     1      54.757  -1.849  17.973  0.00  0.00    +0.000 NA
ATOM     30  C   UNL     1      54.073  -0.802  18.495  0.00  0.00    +0.000 A 
ENDBRANCH  24  25
ENDBRANCH  23  24
ENDBRANCH  20  23
ENDBRANCH  16  17
ENDBRANCH   3  16
TORSDOF 6
ENDMDL
MODEL 9
REMARK VINA RESULT:    -7.159      2.561      3.679
REMARK INTER + INTRA:         -10.437
REMARK INTER:                  -9.381
REMARK INTRA:                  -1.056
REMARK UNBOUND:                -0.767
REMARK  Name = 
REMARK  6 active torsions:
REMARK  status: ('A' for Active; 'I' for Inactive)
REMARK    1  A    between atoms: C_2  and  C_19
REMARK    2  A    between atoms: N_3  and  C_4
REMARK    3  A    between atoms: C_4  and  C_5
REMARK    4  A    between atoms: C_8  and  C_9
REMARK    5  A    between atoms: C_9  and  O_10
REMARK    6  A    between atoms: O_10  and  C_11
REMARK                            x       y       z     vdW  Elec       q    Type
REMARK                         _______ _______ _______ _____ _____    ______ ____
ROOT
ATOM      1  O   UNL     1      49.092   4.765  16.265  0.00  0.00    +0.000 OA
ATOM      2  C   UNL     1      48.524   5.842  16.424  0.00  0.00    +0.000 C 
ATOM      3  N   UNL     1      48.166   6.644  15.373  0.00  0.00    +0.000 N 
ATOM      4  H   UNL     1      47.832   7.586  15.548  0.00  0.00    +0.000 HD
ENDROOT
BRANCH   2   5
ATOM      5  C   UNL     1      48.152   6.311  17.765  0.00  0.00    +0.000 A 
ATOM      6  C   UNL     1      47.525   5.440  18.647  0.00  0.00    +0.000 A 
ATOM      7  S   UNL     1      47.186   6.128  20.168  0.00  0.00    +0.000 S 
ATOM      8  C   UNL     1      47.897   7.605  19.718  0.00  0.00    +0.000 A 
ATOM      9  N   UNL     1      47.985   8.635  20.602  0.00  0.00    +0.000 NA
ATOM     10  C   UNL     1      48.584   9.683  20.144  0.00  0.00    +0.000 A 
ATOM     11  N   UNL     1      49.083   9.801  18.876  0.00  0.00    +0.000 N 
ATOM     12  C   UNL     1      48.944   8.819  17.921  0.00  0.00    +0.000 A 
ATOM     13  O   UNL     1      49.270   9.016  16.755  0.00  0.00    +0.000 OA
ATOM     14  C   UNL     1      48.344   7.591  18.408  0.00  0.00    +0.000 A 
ATOM     15  H   UNL     1      49.503  10.666  18.564  0.00  0.00    +0.000 HD
ENDBRANCH   2   5
BRANCH   3  16
ATOM     16  C   UNL     1      48.494   6.323  14.006  0.00  0.00    +0.000 C 
BRANCH  16  17
ATOM     17  C   UNL     1      47.264   6.009  13.195  0.00  0.00    +0.000 A 
ATOM     18  C   UNL     1      46.382   5.003  13.608  0.00  0.00    +0.000 A 
ATOM     19  C   UNL     1      45.218   4.736  12.883  0.00  0.00    +0.000 A 
ATOM     20  C   UNL     1      44.923   5.455  11.717  0.00  0.00    +0.000 A 
ATOM     21  C   UNL     1      45.815   6.451  11.295  0.00  0.00    +0.000 A 
ATOM     22  C   UNL     1      46.980   6.717  12.020  0.00  0.00    +0.000 A 
BRANCH  20  23
ATOM     23  C   UNL     1      43.662   5.173  10.939  0.00  0.00    +0.000 C 
BRANCH  23  24
ATOM     24  O   UNL     1      43.628   3.792  10.583  0.00  0.00    +0.000 OA
BRANCH  24  25
ATOM     25  C   UNL     1      44.474   3.397   9.584  0.00  0.00    +0.000 A 
ATOM     26  C   UNL     1      44.909   4.173   8.513  0.00  0.00    +0.000 A 
ATOM     27  C   UNL     1      45.781   3.621   7.570  0.00  0.00    +0.000 A 
ATOM     28  C   UNL     1      46.189   2.309   7.732  0.00  0.00    +0.000 A 
ATOM     29  N   UNL     1      45.786   1.523   8.752  0.00  0.00    +0.000 NA
ATOM     30  C   UNL     1      44.941   2.086   9.650  0.00  0.00    +0.000 A 
ENDBRANCH  24  25
ENDBRANCH  23  24
ENDBRANCH  20  23
ENDBRANCH  16  17
ENDBRANCH   3  16
TORSDOF 6
ENDMDL
