MODEL 1
REMARK VINA RESULT:    -9.337      0.000      0.000
REMARK INTER + INTRA:         -12.687
REMARK INTER:                 -12.339
REMARK INTRA:                  -0.347
REMARK UNBOUND:                -0.347
REMARK  Name = 
REMARK  6 active torsions:
REMARK  status: ('A' for Active; 'I' for Inactive)
REMARK    1  A    between atoms: C_2  and  C_19
REMARK    2  A    between atoms: N_3  and  C_4
REMARK    3  A    between atoms: C_4  and  C_5
REMARK    4  A    between atoms: N_8  and  C_9
REMARK    5  A    between atoms: C_9  and  C_10
REMARK    6  A    between atoms: C_13  and  O_14
REMARK                            x       y       z     vdW  Elec       q    Type
REMARK                         _______ _______ _______ _____ _____    ______ ____
ROOT
ATOM      1  C   UNL     1      45.344   7.503  12.149  0.00  0.00    +0.000 C 
ENDROOT
BRANCH   1   2
ATOM      2  C   UNL     1      45.079   6.223  11.397  0.00  0.00    +0.000 C 
ATOM      3  C   UNL     1      44.047   5.437  11.763  0.00  0.00    +0.000 C 
ATOM      4  C   UNL     1      43.749   4.259  11.002  0.00  0.00    +0.000 C 
ATOM      5  N   UNL     1      44.562   3.971   9.927  0.00  0.00    +0.000 N 
ATOM      6  C   UNL     1      45.589   4.863   9.655  0.00  0.00    +0.000 C 
ATOM      7  N   UNL     1      45.897   5.947  10.308  0.00  0.00    +0.000 NA
BRANCH   5   8
ATOM      8  C   UNL     1      44.343   2.798   9.084  0.00  0.00    +0.000 C 
BRANCH   8   9
ATOM      9  C   UNL     1      45.525   2.551   8.173  0.00  0.00    +0.000 A 
ATOM     10  C   UNL     1      45.874   3.489   7.188  0.00  0.00    +0.000 A 
ATOM     11  C   UNL     1      46.891   3.213   6.272  0.00  0.00    +0.000 A 
ATOM     12  C   UNL     1      47.572   2.003   6.348  0.00  0.00    +0.000 A 
ATOM     13  C   UNL     1      47.274   1.082   7.342  0.00  0.00    +0.000 A 
ATOM     14  C   UNL     1      46.251   1.351   8.253  0.00  0.00    +0.000 A 
BRANCH  12  15
ATOM     15  O   UNL     1      48.542   1.677   5.447  0.00  0.00    +0.000 OA
ATOM     16  H   UNL     1      48.708   0.722   5.505  0.00  0.00    +0.000 HD
ENDBRANCH  12  15
ENDBRANCH   8   9
ENDBRANCH   5   8
ENDBRANCH   1   2
BRANCH   1  19
ATOM     17  O   UNL     1      48.169   7.381  12.298  0.00  0.00    +0.000 OA
ATOM     18  C   UNL     1      47.496   7.110  13.289  0.00  0.00    +0.000 C 
ATOM     19  N   UNL     1      46.131   7.204  13.319  0.00  0.00    +0.000 N 
ATOM     20  H   UNL     1      45.614   6.971  14.154  0.00  0.00    +0.000 HD
BRANCH  18  21
ATOM     21  C   UNL     1      48.118   6.704  14.549  0.00  0.00    +0.000 A 
ATOM     22  C   UNL     1      49.069   7.505  15.161  0.00  0.00    +0.000 A 
ATOM     23  S   UNL     1      49.628   6.867  16.644  0.00  0.00    +0.000 S 
ATOM     24  C   UNL     1      48.644   5.485  16.487  0.00  0.00    +0.000 A 
ATOM     25  N   UNL     1      48.632   4.515  17.439  0.00  0.00    +0.000 NA
ATOM     26  C   UNL     1      47.848   3.523  17.178  0.00  0.00    +0.000 A 
ATOM     27  N   UNL     1      47.085   3.404  16.044  0.00  0.00    +0.000 N 
ATOM     28  C   UNL     1      47.077   4.354  15.048  0.00  0.00    +0.000 A 
ATOM     29  O   UNL     1      46.386   4.196  14.045  0.00  0.00    +0.000 OA
ATOM     30  C   UNL     1      47.911   5.503  15.314  0.00  0.00    +0.000 A 
ATOM     31  H   UNL     1      46.499   2.596  15.896  0.00  0.00    +0.000 HD
ENDBRANCH  18  21
ENDBRANCH   1  19
TORSDOF 6
ENDMDL
MODEL 2
REMARK VINA RESULT:    -9.125      1.909      2.626
REMARK INTER + INTRA:         -12.406
REMARK INTER:                 -11.949
REMARK INTRA:                  -0.457
REMARK UNBOUND:                -0.347
REMARK  Name = 
REMARK  6 active torsions:
REMARK  status: ('A' for Active; 'I' for Inactive)
REMARK    1  A    between atoms: C_2  and  C_19
REMARK    2  A    between atoms: N_3  and  C_4
REMARK    3  A    between atoms: C_4  and  C_5
REMARK    4  A    between atoms: N_8  and  C_9
REMARK    5  A    between atoms: C_9  and  C_10
REMARK    6  A    between atoms: C_13  and  O_14
REMARK                            x       y       z     vdW  Elec       q    Type
REMARK                         _______ _______ _______ _____ _____    ______ ____
ROOT
ATOM      1  C   UNL     1      46.437   6.548  13.098  0.00  0.00    +0.000 C 
ENDROOT
BRANCH   1   2
ATOM      2  C   UNL     1      45.943   5.544  12.088  0.00  0.00    +0.000 C 
ATOM      3  C   UNL     1      45.630   4.295  12.488  0.00  0.00    +0.000 C 
ATOM      4  C   UNL     1      45.090   3.363  11.543  0.00  0.00    +0.000 C 
ATOM      5  N   UNL     1      44.932   3.790  10.243  0.00  0.00    +0.000 N 
ATOM      6  C   UNL     1      45.289   5.102   9.961  0.00  0.00    +0.000 C 
ATOM      7  N   UNL     1      45.777   5.988  10.782  0.00  0.00    +0.000 NA
BRANCH   5   8
ATOM      8  C   UNL     1      44.386   2.922   9.203  0.00  0.00    +0.000 C 
BRANCH   8   9
ATOM      9  C   UNL     1      45.445   2.549   8.188  0.00  0.00    +0.000 A 
ATOM     10  C   UNL     1      46.065   1.290   8.238  0.00  0.00    +0.000 A 
ATOM     11  C   UNL     1      47.122   0.985   7.378  0.00  0.00    +0.000 A 
ATOM     12  C   UNL     1      47.550   1.933   6.455  0.00  0.00    +0.000 A 
ATOM     13  C   UNL     1      46.920   3.166   6.358  0.00  0.00    +0.000 A 
ATOM     14  C   UNL     1      45.870   3.477   7.225  0.00  0.00    +0.000 A 
BRANCH  12  15
ATOM     15  O   UNL     1      48.606   1.690   5.627  0.00  0.00    +0.000 OA
ATOM     16  H   UNL     1      49.411   2.038   6.043  0.00  0.00    +0.000 HD
ENDBRANCH  12  15
ENDBRANCH   8   9
ENDBRANCH   5   8
ENDBRANCH   1   2
BRANCH   1  19
ATOM     17  O   UNL     1      48.922   6.286  14.431  0.00  0.00    +0.000 OA
ATOM     18  C   UNL     1      47.922   5.745  14.898  0.00  0.00    +0.000 C 
ATOM     19  N   UNL     1      46.674   5.875  14.351  0.00  0.00    +0.000 N 
ATOM     20  H   UNL     1      45.876   5.414  14.764  0.00  0.00    +0.000 HD
BRANCH  18  21
ATOM     21  C   UNL     1      47.983   4.949  16.122  0.00  0.00    +0.000 A 
ATOM     22  C   UNL     1      47.640   3.605  16.113  0.00  0.00    +0.000 A 
ATOM     23  S   UNL     1      47.830   2.856  17.636  0.00  0.00    +0.000 S 
ATOM     24  C   UNL     1      48.337   4.314  18.356  0.00  0.00    +0.000 A 
ATOM     25  N   UNL     1      48.674   4.373  19.672  0.00  0.00    +0.000 NA
ATOM     26  C   UNL     1      49.026   5.545  20.080  0.00  0.00    +0.000 A 
ATOM     27  N   UNL     1      49.058   6.671  19.296  0.00  0.00    +0.000 N 
ATOM     28  C   UNL     1      48.712   6.662  17.964  0.00  0.00    +0.000 A 
ATOM     29  O   UNL     1      48.745   7.699  17.306  0.00  0.00    +0.000 OA
ATOM     30  C   UNL     1      48.348   5.361  17.452  0.00  0.00    +0.000 A 
ATOM     31  H   UNL     1      49.334   7.562  19.679  0.00  0.00    +0.000 HD
ENDBRANCH  18  21
ENDBRANCH   1  19
TORSDOF 6
ENDMDL
MODEL 3
REMARK VINA RESULT:    -9.105      0.555      1.299
REMARK INTER + INTRA:         -12.380
REMARK INTER:                 -12.122
REMARK INTRA:                  -0.257
REMARK UNBOUND:                -0.347
REMARK  Name = 
REMARK  6 active torsions:
REMARK  status: ('A' for Active; 'I' for Inactive)
REMARK    1  A    between atoms: C_2  and  C_19
REMARK    2  A    between atoms: N_3  and  C_4
REMARK    3  A    between atoms: C_4  and  C_5
REMARK    4  A    between atoms: N_8  and  C_9
REMARK    5  A    between atoms: C_9  and  C_10
REMARK    6  A    between atoms: C_13  and  O_14
REMARK                            x       y       z     vdW  Elec       q    Type
REMARK                         _______ _______ _______ _____ _____    ______ ____
ROOT
ATOM      1  C   UNL     1      45.497   7.666  12.267  0.00  0.00    +0.000 C 
ENDROOT
BRANCH   1   2
ATOM      2  C   UNL     1      45.197   6.433  11.454  0.00  0.00    +0.000 C 
ATOM      3  C   UNL     1      45.932   6.164  10.356  0.00  0.00    +0.000 C 
ATOM      4  C   UNL     1      45.696   4.954   9.625  0.00  0.00    +0.000 C 
ATOM      5  N   UNL     1      44.698   4.118  10.077  0.00  0.00    +0.000 N 
ATOM      6  C   UNL     1      44.017   4.509  11.221  0.00  0.00    +0.000 C 
ATOM      7  N   UNL     1      44.196   5.592  11.924  0.00  0.00    +0.000 NA
BRANCH   5   8
ATOM      8  C   UNL     1      44.380   2.859   9.408  0.00  0.00    +0.000 C 
BRANCH   8   9
ATOM      9  C   UNL     1      45.398   2.536   8.336  0.00  0.00    +0.000 A 
ATOM     10  C   UNL     1      46.109   1.325   8.371  0.00  0.00    +0.000 A 
ATOM     11  C   UNL     1      47.129   1.073   7.452  0.00  0.00    +0.000 A 
ATOM     12  C   UNL     1      47.431   2.026   6.486  0.00  0.00    +0.000 A 
ATOM     13  C   UNL     1      46.710   3.209   6.404  0.00  0.00    +0.000 A 
ATOM     14  C   UNL     1      45.696   3.467   7.329  0.00  0.00    +0.000 A 
BRANCH  12  15
ATOM     15  O   UNL     1      48.448   1.838   5.597  0.00  0.00    +0.000 OA
ATOM     16  H   UNL     1      48.065   1.690   4.717  0.00  0.00    +0.000 HD
ENDBRANCH  12  15
ENDBRANCH   8   9
ENDBRANCH   5   8
ENDBRANCH   1   2
BRANCH   1  19
ATOM     17  O   UNL     1      48.318   7.537  12.478  0.00  0.00    +0.000 OA
ATOM     18  C   UNL     1      47.621   7.195  13.431  0.00  0.00    +0.000 C 
ATOM     19  N   UNL     1      46.255   7.286  13.433  0.00  0.00    +0.000 N 
ATOM     20  H   UNL     1      45.717   6.994  14.236  0.00  0.00    +0.000 HD
BRANCH  18  21
ATOM     21  C   UNL     1      48.212   6.702  14.674  0.00  0.00    +0.000 A 
ATOM     22  C   UNL     1      49.197   7.426  15.327  0.00  0.00    +0.000 A 
ATOM     23  S   UNL     1      49.712   6.694  16.782  0.00  0.00    +0.000 S 
ATOM     24  C   UNL     1      48.661   5.372  16.557  0.00  0.00    +0.000 A 
ATOM     25  N   UNL     1      48.593   4.361  17.464  0.00  0.00    +0.000 NA
ATOM     26  C   UNL     1      47.763   3.423  17.154  0.00  0.00    +0.000 A 
ATOM     27  N   UNL     1      47.003   3.394  16.011  0.00  0.00    +0.000 N 
ATOM     28  C   UNL     1      47.051   4.387  15.059  0.00  0.00    +0.000 A 
ATOM     29  O   UNL     1      46.360   4.310  14.046  0.00  0.00    +0.000 OA
ATOM     30  C   UNL     1      47.939   5.480  15.383  0.00  0.00    +0.000 A 
ATOM     31  H   UNL     1      46.379   2.624  15.823  0.00  0.00    +0.000 HD
ENDBRANCH  18  21
ENDBRANCH   1  19
TORSDOF 6
ENDMDL
MODEL 4
REMARK VINA RESULT:    -8.999      2.276      3.866
REMARK INTER + INTRA:         -12.240
REMARK INTER:                 -11.248
REMARK INTRA:                  -0.992
REMARK UNBOUND:                -0.347
REMARK  Name = 
REMARK  6 active torsions:
REMARK  status: ('A' for Active; 'I' for Inactive)
REMARK    1  A    between atoms: C_2  and  C_19
REMARK    2  A    between atoms: N_3  and  C_4
REMARK    3  A    between atoms: C_4  and  C_5
REMARK    4  A    between atoms: N_8  and  C_9
REMARK    5  A    between atoms: C_9  and  C_10
REMARK    6  A    between atoms: C_13  and  O_14
REMARK                            x       y       z     vdW  Elec       q    Type
REMARK                         _______ _______ _______ _____ _____    ______ ____
ROOT
ATOM      1  C   UNL     1      46.746   4.867  14.370  0.00  0.00    +0.000 C 
ENDROOT
BRANCH   1   2
ATOM      2  C   UNL     1      46.062   4.529  13.070  0.00  0.00    +0.000 C 
ATOM      3  C   UNL     1      45.922   5.480  12.125  0.00  0.00    +0.000 C 
ATOM      4  C   UNL     1      45.339   5.141  10.860  0.00  0.00    +0.000 C 
ATOM      5  N   UNL     1      44.924   3.840  10.676  0.00  0.00    +0.000 N 
ATOM      6  C   UNL     1      45.128   2.957  11.727  0.00  0.00    +0.000 C 
ATOM      7  N   UNL     1      45.657   3.212  12.890  0.00  0.00    +0.000 NA
BRANCH   5   8
ATOM      8  C   UNL     1      44.322   3.389   9.423  0.00  0.00    +0.000 C 
BRANCH   8   9
ATOM      9  C   UNL     1      45.377   2.902   8.454  0.00  0.00    +0.000 A 
ATOM     10  C   UNL     1      45.794   1.561   8.470  0.00  0.00    +0.000 A 
ATOM     11  C   UNL     1      46.846   1.134   7.658  0.00  0.00    +0.000 A 
ATOM     12  C   UNL     1      47.474   2.045   6.815  0.00  0.00    +0.000 A 
ATOM     13  C   UNL     1      47.047   3.364   6.749  0.00  0.00    +0.000 A 
ATOM     14  C   UNL     1      46.002   3.795   7.568  0.00  0.00    +0.000 A 
BRANCH  12  15
ATOM     15  O   UNL     1      48.533   1.679   6.038  0.00  0.00    +0.000 OA
ATOM     16  H   UNL     1      48.453   0.733   5.834  0.00  0.00    +0.000 HD
ENDBRANCH  12  15
ENDBRANCH   8   9
ENDBRANCH   5   8
ENDBRANCH   1   2
BRANCH   1  19
ATOM     17  O   UNL     1      49.134   5.856  15.525  0.00  0.00    +0.000 OA
ATOM     18  C   UNL     1      48.376   6.628  14.942  0.00  0.00    +0.000 C 
ATOM     19  N   UNL     1      47.236   6.221  14.305  0.00  0.00    +0.000 N 
ATOM     20  H   UNL     1      46.637   6.887  13.837  0.00  0.00    +0.000 HD
BRANCH  18  21
ATOM     21  C   UNL     1      48.666   8.058  14.844  0.00  0.00    +0.000 A 
ATOM     22  C   UNL     1      48.671   8.860  15.975  0.00  0.00    +0.000 A 
ATOM     23  S   UNL     1      49.081  10.484  15.641  0.00  0.00    +0.000 S 
ATOM     24  C   UNL     1      49.222  10.167  13.973  0.00  0.00    +0.000 A 
ATOM     25  N   UNL     1      49.567  11.146  13.095  0.00  0.00    +0.000 NA
ATOM     26  C   UNL     1      49.623  10.761  11.864  0.00  0.00    +0.000 A 
ATOM     27  N   UNL     1      49.351   9.488  11.427  0.00  0.00    +0.000 N 
ATOM     28  C   UNL     1      48.985   8.470  12.278  0.00  0.00    +0.000 A 
ATOM     29  O   UNL     1      48.741   7.350  11.838  0.00  0.00    +0.000 OA
ATOM     30  C   UNL     1      48.948   8.845  13.673  0.00  0.00    +0.000 A 
ATOM     31  H   UNL     1      49.404   9.254  10.448  0.00  0.00    +0.000 HD
ENDBRANCH  18  21
ENDBRANCH   1  19
TORSDOF 6
ENDMDL
MODEL 5
REMARK VINA RESULT:    -8.745      2.566      3.384
REMARK INTER + INTRA:         -11.904
REMARK INTER:                 -11.080
REMARK INTRA:                  -0.824
REMARK UNBOUND:                -0.347
REMARK  Name = 
REMARK  6 active torsions:
REMARK  status: ('A' for Active; 'I' for Inactive)
REMARK    1  A    between atoms: C_2  and  C_19
REMARK    2  A    between atoms: N_3  and  C_4
REMARK    3  A    between atoms: C_4  and  C_5
REMARK    4  A    between atoms: N_8  and  C_9
REMARK    5  A    between atoms: C_9  and  C_10
REMARK    6  A    between atoms: C_13  and  O_14
REMARK                            x       y       z     vdW  Elec       q    Type
REMARK                         _______ _______ _______ _____ _____    ______ ____
ROOT
ATOM      1  C   UNL     1      46.162   5.734  13.745  0.00  0.00    +0.000 C 
ENDROOT
BRANCH   1   2
ATOM      2  C   UNL     1      45.645   5.030  12.516  0.00  0.00    +0.000 C 
ATOM      3  C   UNL     1      45.430   5.734  11.387  0.00  0.00    +0.000 C 
ATOM      4  C   UNL     1      45.010   5.053  10.197  0.00  0.00    +0.000 C 
ATOM      5  N   UNL     1      44.823   3.690  10.273  0.00  0.00    +0.000 N 
ATOM      6  C   UNL     1      45.082   3.084  11.495  0.00  0.00    +0.000 C 
ATOM      7  N   UNL     1      45.470   3.654  12.600  0.00  0.00    +0.000 NA
BRANCH   5   8
ATOM      8  C   UNL     1      44.402   2.900   9.119  0.00  0.00    +0.000 C 
BRANCH   8   9
ATOM      9  C   UNL     1      45.565   2.619   8.193  0.00  0.00    +0.000 A 
ATOM     10  C   UNL     1      45.958   3.568   7.236  0.00  0.00    +0.000 A 
ATOM     11  C   UNL     1      46.955   3.268   6.305  0.00  0.00    +0.000 A 
ATOM     12  C   UNL     1      47.571   2.022   6.340  0.00  0.00    +0.000 A 
ATOM     13  C   UNL     1      47.231   1.087   7.307  0.00  0.00    +0.000 A 
ATOM     14  C   UNL     1      46.227   1.382   8.232  0.00  0.00    +0.000 A 
BRANCH  12  15
ATOM     15  O   UNL     1      48.518   1.673   5.423  0.00  0.00    +0.000 OA
ATOM     16  H   UNL     1      48.599   2.391   4.774  0.00  0.00    +0.000 HD
ENDBRANCH  12  15
ENDBRANCH   8   9
ENDBRANCH   5   8
ENDBRANCH   1   2
BRANCH   1  19
ATOM     17  O   UNL     1      46.631   8.522  13.586  0.00  0.00    +0.000 OA
ATOM     18  C   UNL     1      47.537   7.736  13.314  0.00  0.00    +0.000 C 
ATOM     19  N   UNL     1      47.411   6.378  13.426  0.00  0.00    +0.000 N 
ATOM     20  H   UNL     1      48.179   5.766  13.192  0.00  0.00    +0.000 HD
BRANCH  18  21
ATOM     21  C   UNL     1      48.855   8.205  12.889  0.00  0.00    +0.000 A 
ATOM     22  C   UNL     1      49.013   8.893  11.696  0.00  0.00    +0.000 A 
ATOM     23  S   UNL     1      50.623   9.390  11.418  0.00  0.00    +0.000 S 
ATOM     24  C   UNL     1      51.158   8.665  12.864  0.00  0.00    +0.000 A 
ATOM     25  N   UNL     1      52.462   8.729  13.246  0.00  0.00    +0.000 NA
ATOM     26  C   UNL     1      52.721   8.124  14.357  0.00  0.00    +0.000 A 
ATOM     27  N   UNL     1      51.798   7.448  15.115  0.00  0.00    +0.000 N 
ATOM     28  C   UNL     1      50.473   7.346  14.761  0.00  0.00    +0.000 A 
ATOM     29  O   UNL     1      49.687   6.719  15.467  0.00  0.00    +0.000 OA
ATOM     30  C   UNL     1      50.127   8.041  13.542  0.00  0.00    +0.000 A 
ATOM     31  H   UNL     1      52.069   6.987  15.971  0.00  0.00    +0.000 HD
ENDBRANCH  18  21
ENDBRANCH   1  19
TORSDOF 6
ENDMDL
MODEL 6
REMARK VINA RESULT:    -8.024      2.650      3.659
REMARK INTER + INTRA:         -10.951
REMARK INTER:                 -10.783
REMARK INTRA:                  -0.168
REMARK UNBOUND:                -0.347
REMARK  Name = 
REMARK  6 active torsions:
REMARK  status: ('A' for Active; 'I' for Inactive)
REMARK    1  A    between atoms: C_2  and  C_19
REMARK    2  A    between atoms: N_3  and  C_4
REMARK    3  A    between atoms: C_4  and  C_5
REMARK    4  A    between atoms: N_8  and  C_9
REMARK    5  A    between atoms: C_9  and  C_10
REMARK    6  A    between atoms: C_13  and  O_14
REMARK                            x       y       z     vdW  Elec       q    Type
REMARK                         _______ _______ _______ _____ _____    ______ ____
ROOT
ATOM      1  C   UNL     1      46.737   4.632  14.681  0.00  0.00    +0.000 C 
ENDROOT
BRANCH   1   2
ATOM      2  C   UNL     1      46.064   4.519  13.337  0.00  0.00    +0.000 C 
ATOM      3  C   UNL     1      46.148   5.541  12.462  0.00  0.00    +0.000 C 
ATOM      4  C   UNL     1      45.572   5.405  11.156  0.00  0.00    +0.000 C 
ATOM      5  N   UNL     1      44.930   4.222  10.861  0.00  0.00    +0.000 N 
ATOM      6  C   UNL     1      44.917   3.248  11.849  0.00  0.00    +0.000 C 
ATOM      7  N   UNL     1      45.429   3.318  13.045  0.00  0.00    +0.000 NA
BRANCH   5   8
ATOM      8  C   UNL     1      44.314   3.979   9.559  0.00  0.00    +0.000 C 
BRANCH   8   9
ATOM      9  C   UNL     1      45.266   3.260   8.629  0.00  0.00    +0.000 A 
ATOM     10  C   UNL     1      45.477   1.877   8.756  0.00  0.00    +0.000 A 
ATOM     11  C   UNL     1      46.439   1.231   7.978  0.00  0.00    +0.000 A 
ATOM     12  C   UNL     1      47.182   1.963   7.058  0.00  0.00    +0.000 A 
ATOM     13  C   UNL     1      46.956   3.322   6.883  0.00  0.00    +0.000 A 
ATOM     14  C   UNL     1      46.003   3.972   7.669  0.00  0.00    +0.000 A 
BRANCH  12  15
ATOM     15  O   UNL     1      48.159   1.379   6.309  0.00  0.00    +0.000 OA
ATOM     16  H   UNL     1      48.526   2.045   5.705  0.00  0.00    +0.000 HD
ENDBRANCH  12  15
ENDBRANCH   8   9
ENDBRANCH   5   8
ENDBRANCH   1   2
BRANCH   1  19
ATOM     17  O   UNL     1      48.797   5.211  16.536  0.00  0.00    +0.000 OA
ATOM     18  C   UNL     1      48.530   6.022  15.652  0.00  0.00    +0.000 C 
ATOM     19  N   UNL     1      47.594   5.792  14.680  0.00  0.00    +0.000 N 
ATOM     20  H   UNL     1      47.402   6.484  13.971  0.00  0.00    +0.000 HD
BRANCH  18  21
ATOM     21  C   UNL     1      49.239   7.296  15.541  0.00  0.00    +0.000 A 
ATOM     22  C   UNL     1      48.601   8.423  15.046  0.00  0.00    +0.000 A 
ATOM     23  S   UNL     1      49.597   9.811  15.050  0.00  0.00    +0.000 S 
ATOM     24  C   UNL     1      50.917   8.935  15.675  0.00  0.00    +0.000 A 
ATOM     25  N   UNL     1      52.108   9.538  15.932  0.00  0.00    +0.000 NA
ATOM     26  C   UNL     1      53.017   8.747  16.391  0.00  0.00    +0.000 A 
ATOM     27  N   UNL     1      52.852   7.401  16.604  0.00  0.00    +0.000 N 
ATOM     28  C   UNL     1      51.670   6.746  16.344  0.00  0.00    +0.000 A 
ATOM     29  O   UNL     1      51.575   5.537  16.540  0.00  0.00    +0.000 OA
ATOM     30  C   UNL     1      50.608   7.600  15.865  0.00  0.00    +0.000 A 
ATOM     31  H   UNL     1      53.609   6.835  16.956  0.00  0.00    +0.000 HD
ENDBRANCH  18  21
ENDBRANCH   1  19
TORSDOF 6
ENDMDL
MODEL 7
REMARK VINA RESULT:    -7.694      2.627      3.630
REMARK INTER + INTRA:         -10.515
REMARK INTER:                  -9.639
REMARK INTRA:                  -0.876
REMARK UNBOUND:                -0.347
REMARK  Name = 
REMARK  6 active torsions:
REMARK  status: ('A' for Active; 'I' for Inactive)
REMARK    1  A    between atoms: C_2  and  C_19
REMARK    2  A    between atoms: N_3  and  C_4
REMARK    3  A    between atoms: C_4  and  C_5
REMARK    4  A    between atoms: N_8  and  C_9
REMARK    5  A    between atoms: C_9  and  C_10
REMARK    6  A    between atoms: C_13  and  O_14
REMARK                            x       y       z     vdW  Elec       q    Type
REMARK                         _______ _______ _______ _____ _____    ______ ____
ROOT
ATOM      1  C   UNL     1      48.379   7.038  13.954  0.00  0.00    +0.000 C 
ENDROOT
BRANCH   1   2
ATOM      2  C   UNL     1      47.256   6.490  13.111  0.00  0.00    +0.000 C 
ATOM      3  C   UNL     1      46.643   7.291  12.216  0.00  0.00    +0.000 C 
ATOM      4  C   UNL     1      45.625   6.751  11.363  0.00  0.00    +0.000 C 
ATOM      5  N   UNL     1      45.302   5.421  11.517  0.00  0.00    +0.000 N 
ATOM      6  C   UNL     1      46.009   4.705  12.473  0.00  0.00    +0.000 C 
ATOM      7  N   UNL     1      46.945   5.145  13.266  0.00  0.00    +0.000 NA
BRANCH   5   8
ATOM      8  C   UNL     1      44.283   4.771  10.696  0.00  0.00    +0.000 C 
BRANCH   8   9
ATOM      9  C   UNL     1      44.913   3.920   9.615  0.00  0.00    +0.000 A 
ATOM     10  C   UNL     1      44.845   2.519   9.682  0.00  0.00    +0.000 A 
ATOM     11  C   UNL     1      45.522   1.730   8.750  0.00  0.00    +0.000 A 
ATOM     12  C   UNL     1      46.255   2.340   7.739  0.00  0.00    +0.000 A 
ATOM     13  C   UNL     1      46.297   3.723   7.627  0.00  0.00    +0.000 A 
ATOM     14  C   UNL     1      45.630   4.514   8.564  0.00  0.00    +0.000 A 
BRANCH  12  15
ATOM     15  O   UNL     1      46.965   1.606   6.835  0.00  0.00    +0.000 OA
ATOM     16  H   UNL     1      46.379   0.930   6.459  0.00  0.00    +0.000 HD
ENDBRANCH  12  15
ENDBRANCH   8   9
ENDBRANCH   5   8
ENDBRANCH   1   2
BRANCH   1  19
ATOM     17  O   UNL     1      50.442   6.488  15.815  0.00  0.00    +0.000 OA
ATOM     18  C   UNL     1      49.271   6.284  16.127  0.00  0.00    +0.000 C 
ATOM     19  N   UNL     1      48.213   6.581  15.311  0.00  0.00    +0.000 N 
ATOM     20  H   UNL     1      47.265   6.397  15.604  0.00  0.00    +0.000 HD
BRANCH  18  21
ATOM     21  C   UNL     1      48.911   5.743  17.437  0.00  0.00    +0.000 A 
ATOM     22  C   UNL     1      49.064   4.393  17.714  0.00  0.00    +0.000 A 
ATOM     23  S   UNL     1      48.632   3.985  19.315  0.00  0.00    +0.000 S 
ATOM     24  C   UNL     1      48.190   5.593  19.668  0.00  0.00    +0.000 A 
ATOM     25  N   UNL     1      47.733   5.946  20.899  0.00  0.00    +0.000 NA
ATOM     26  C   UNL     1      47.426   7.194  21.014  0.00  0.00    +0.000 A 
ATOM     27  N   UNL     1      47.521   8.121  20.007  0.00  0.00    +0.000 N 
ATOM     28  C   UNL     1      47.965   7.806  18.743  0.00  0.00    +0.000 A 
ATOM     29  O   UNL     1      48.020   8.669  17.871  0.00  0.00    +0.000 OA
ATOM     30  C   UNL     1      48.357   6.426  18.577  0.00  0.00    +0.000 A 
ATOM     31  H   UNL     1      47.255   9.082  20.160  0.00  0.00    +0.000 HD
ENDBRANCH  18  21
ENDBRANCH   1  19
TORSDOF 6
ENDMDL
MODEL 8
REMARK VINA RESULT:    -7.632      2.402      3.414
REMARK INTER + INTRA:         -10.433
REMARK INTER:                  -9.704
REMARK INTRA:                  -0.729
REMARK UNBOUND:                -0.347
REMARK  Name = 
REMARK  6 active torsions:
REMARK  status: ('A' for Active; 'I' for Inactive)
REMARK    1  A    between atoms: C_2  and  C_19
REMARK    2  A    between atoms: N_3  and  C_4
REMARK    3  A    between atoms: C_4  and  C_5
REMARK    4  A    between atoms: N_8  and  C_9
REMARK    5  A    between atoms: C_9  and  C_10
REMARK    6  A    between atoms: C_13  and  O_14
REMARK                            x       y       z     vdW  Elec       q    Type
REMARK                         _______ _______ _______ _____ _____    ______ ____
ROOT
ATOM      1  C   UNL     1      47.561   7.410  13.788  0.00  0.00    +0.000 C 
ENDROOT
BRANCH   1   2
ATOM      2  C   UNL     1      46.549   6.725  12.906  0.00  0.00    +0.000 C 
ATOM      3  C   UNL     1      45.794   7.460  12.064  0.00  0.00    +0.000 C 
ATOM      4  C   UNL     1      44.884   6.802  11.172  0.00  0.00    +0.000 C 
ATOM      5  N   UNL     1      44.809   5.428  11.234  0.00  0.00    +0.000 N 
ATOM      6  C   UNL     1      45.643   4.790  12.142  0.00  0.00    +0.000 C 
ATOM      7  N   UNL     1      46.489   5.338  12.968  0.00  0.00    +0.000 NA
BRANCH   5   8
ATOM      8  C   UNL     1      43.919   4.661  10.366  0.00  0.00    +0.000 C 
BRANCH   8   9
ATOM      9  C   UNL     1      44.704   3.815   9.388  0.00  0.00    +0.000 A 
ATOM     10  C   UNL     1      44.697   2.415   9.492  0.00  0.00    +0.000 A 
ATOM     11  C   UNL     1      45.510   1.637   8.665  0.00  0.00    +0.000 A 
ATOM     12  C   UNL     1      46.320   2.257   7.720  0.00  0.00    +0.000 A 
ATOM     13  C   UNL     1      46.307   3.637   7.569  0.00  0.00    +0.000 A 
ATOM     14  C   UNL     1      45.503   4.417   8.402  0.00  0.00    +0.000 A 
BRANCH  12  15
ATOM     15  O   UNL     1      47.159   1.537   6.923  0.00  0.00    +0.000 OA
ATOM     16  H   UNL     1      46.632   1.101   6.234  0.00  0.00    +0.000 HD
ENDBRANCH  12  15
ENDBRANCH   8   9
ENDBRANCH   5   8
ENDBRANCH   1   2
BRANCH   1  19
ATOM     17  O   UNL     1      48.675   8.010  16.321  0.00  0.00    +0.000 OA
ATOM     18  C   UNL     1      48.635   6.843  15.936  0.00  0.00    +0.000 C 
ATOM     19  N   UNL     1      48.057   6.463  14.755  0.00  0.00    +0.000 N 
ATOM     20  H   UNL     1      48.045   5.494  14.473  0.00  0.00    +0.000 HD
BRANCH  18  21
ATOM     21  C   UNL     1      49.167   5.750  16.747  0.00  0.00    +0.000 A 
ATOM     22  C   UNL     1      48.317   4.848  17.369  0.00  0.00    +0.000 A 
ATOM     23  S   UNL     1      49.149   3.625  18.223  0.00  0.00    +0.000 S 
ATOM     24  C   UNL     1      50.664   4.291  17.819  0.00  0.00    +0.000 A 
ATOM     25  N   UNL     1      51.823   3.713  18.234  0.00  0.00    +0.000 NA
ATOM     26  C   UNL     1      52.890   4.336  17.863  0.00  0.00    +0.000 A 
ATOM     27  N   UNL     1      52.907   5.493  17.125  0.00  0.00    +0.000 N 
ATOM     28  C   UNL     1      51.759   6.120  16.696  0.00  0.00    +0.000 A 
ATOM     29  O   UNL     1      51.825   7.162  16.049  0.00  0.00    +0.000 OA
ATOM     30  C   UNL     1      50.538   5.437  17.056  0.00  0.00    +0.000 A 
ATOM     31  H   UNL     1      53.778   5.937  16.876  0.00  0.00    +0.000 HD
ENDBRANCH  18  21
ENDBRANCH   1  19
TORSDOF 6
ENDMDL
