MODEL 1
REMARK VINA RESULT:    -8.180      0.000      0.000
REMARK INTER + INTRA:         -13.322
REMARK INTER:                 -12.245
REMARK INTRA:                  -1.077
REMARK UNBOUND:                -1.077
REMARK  Name = 
REMARK  10 active torsions:
REMARK  status: ('A' for Active; 'I' for Inactive)
REMARK    1  A    between atoms: C_1  and  C_2
REMARK    2  A    between atoms: C_7  and  C_8
REMARK    3  A    between atoms: N_10  and  C_11
REMARK    4  A    between atoms: C_11  and  C_12
REMARK    5  A    between atoms: C_15  and  C_16
REMARK    6  A    between atoms: C_16  and  N_17
REMARK    7  A    between atoms: N_17  and  CA_18
REMARK    8  A    between atoms: CA_18  and  C_19
REMARK    9  A    between atoms: CA_18  and  C_21
REMARK   10  A    between atoms: C_19  and  O_20
REMARK                            x       y       z     vdW  Elec       q    Type
REMARK                         _______ _______ _______ _____ _____    ______ ____
ROOT
ATOM      1  C   UNL     1      46.518   8.072  12.443  0.00  0.00    +0.000 A 
ATOM      2  C   UNL     1      45.240   8.516  12.072  0.00  0.00    +0.000 A 
ATOM      3  C   UNL     1      44.307   7.635  11.504  0.00  0.00    +0.000 A 
ATOM      4  C   UNL     1      44.638   6.293  11.295  0.00  0.00    +0.000 A 
ATOM      5  C   UNL     1      45.911   5.849  11.700  0.00  0.00    +0.000 A 
ATOM      6  C   UNL     1      46.838   6.724  12.266  0.00  0.00    +0.000 A 
ENDROOT
BRANCH   1   7
ATOM      7  C   UNL     1      47.526   9.010  13.055  0.00  0.00    +0.000 C 
BRANCH   7  10
ATOM      8  C   UNL     1      48.659   8.349  15.124  0.00  0.00    +0.000 C 
ATOM      9  O   UNL     1      49.628   7.944  14.484  0.00  0.00    +0.000 OA
ATOM     10  N   UNL     1      47.570   8.889  14.491  0.00  0.00    +0.000 N 
ATOM     11  H   UNL     1      46.757   9.200  15.017  0.00  0.00    +0.000 HD
BRANCH   8  18
ATOM     12  C   UNL     1      48.764   4.436  20.757  0.00  0.00    +0.000 C 
ATOM     13  C   UNL     1      48.735   5.463  19.664  0.00  0.00    +0.000 A 
ATOM     14  N   UNL     1      48.639   6.723  19.926  0.00  0.00    +0.000 NA
ATOM     15  C   UNL     1      48.621   7.534  18.834  0.00  0.00    +0.000 A 
ATOM     16  S   UNL     1      48.495   9.220  19.013  0.00  0.00    +0.000 S 
ATOM     17  C   UNL     1      48.533   9.453  17.327  0.00  0.00    +0.000 A 
ATOM     18  C   UNL     1      48.636   8.275  16.594  0.00  0.00    +0.000 A 
ATOM     19  C   UNL     1      48.696   7.152  17.505  0.00  0.00    +0.000 A 
ATOM     20  C   UNL     1      48.817   5.728  17.258  0.00  0.00    +0.000 A 
ATOM     21  O   UNL     1      48.917   5.224  16.145  0.00  0.00    +0.000 OA
ATOM     22  N   UNL     1      48.818   4.946  18.389  0.00  0.00    +0.000 N 
ATOM     23  H   UNL     1      48.902   3.952  18.234  0.00  0.00    +0.000 HD
ENDBRANCH   8  18
ENDBRANCH   7  10
ENDBRANCH   1   7
BRANCH   4  24
ATOM     24  C   UNL     1      43.678   5.261  10.748  0.00  0.00    +0.000 C 
BRANCH  24  25
ATOM     25  N   UNL     1      44.021   4.683   9.447  0.00  0.00    +0.000 NA
ATOM     26  H   UNL     1      44.856   5.119   9.065  0.00  0.00    +0.000 HD
BRANCH  25  27
ATOM     27  CA  UNL     1      44.191   3.203   9.509  0.00  0.00    +0.000 C 
BRANCH  27  28
ATOM     28  C   UNL     1      45.328   2.763   8.576  0.00  0.00    +0.000 A 
ATOM     29  C   UNL     1      45.773   1.430   8.487  0.00  0.00    +0.000 A 
ATOM     30  C   UNL     1      46.833   1.069   7.652  0.00  0.00    +0.000 A 
ATOM     31  C   UNL     1      47.471   2.032   6.881  0.00  0.00    +0.000 A 
ATOM     32  C   UNL     1      47.026   3.350   6.919  0.00  0.00    +0.000 A 
ATOM     33  C   UNL     1      45.958   3.710   7.749  0.00  0.00    +0.000 A 
ENDBRANCH  27  28
BRANCH  27  34
ATOM     34  C   UNL     1      44.341   2.659  10.967  0.00  0.00    +0.000 C 
BRANCH  34  35
ATOM     35  O   UNL     1      43.190   1.941  11.416  0.00  0.00    +0.000 OA
ATOM     36  H   UNL     1      43.017   2.206  12.335  0.00  0.00    +0.000 HD
ENDBRANCH  34  35
ENDBRANCH  27  34
ENDBRANCH  25  27
ENDBRANCH  24  25
ENDBRANCH   4  24
TORSDOF 9
ENDMDL
MODEL 2
REMARK VINA RESULT:    -7.975      2.191      2.574
REMARK INTER + INTRA:         -13.015
REMARK INTER:                 -11.631
REMARK INTRA:                  -1.384
REMARK UNBOUND:                -1.077
REMARK  Name = 
REMARK  10 active torsions:
REMARK  status: ('A' for Active; 'I' for Inactive)
REMARK    1  A    between atoms: C_1  and  C_2
REMARK    2  A    between atoms: C_7  and  C_8
REMARK    3  A    between atoms: N_10  and  C_11
REMARK    4  A    between atoms: C_11  and  C_12
REMARK    5  A    between atoms: C_15  and  C_16
REMARK    6  A    between atoms: C_16  and  N_17
REMARK    7  A    between atoms: N_17  and  CA_18
REMARK    8  A    between atoms: CA_18  and  C_19
REMARK    9  A    between atoms: CA_18  and  C_21
REMARK   10  A    between atoms: C_19  and  O_20
REMARK                            x       y       z     vdW  Elec       q    Type
REMARK                         _______ _______ _______ _____ _____    ______ ____
ROOT
ATOM      1  C   UNL     1      47.186   8.118  12.149  0.00  0.00    +0.000 A 
ATOM      2  C   UNL     1      47.333   6.725  12.062  0.00  0.00    +0.000 A 
ATOM      3  C   UNL     1      46.231   5.897  11.797  0.00  0.00    +0.000 A 
ATOM      4  C   UNL     1      44.960   6.450  11.618  0.00  0.00    +0.000 A 
ATOM      5  C   UNL     1      44.827   7.850  11.675  0.00  0.00    +0.000 A 
ATOM      6  C   UNL     1      45.922   8.673  11.936  0.00  0.00    +0.000 A 
ENDROOT
BRANCH   1   7
ATOM      7  C   UNL     1      48.363   9.014  12.430  0.00  0.00    +0.000 C 
BRANCH   7  10
ATOM      8  C   UNL     1      50.191   8.995  14.060  0.00  0.00    +0.000 C 
ATOM      9  O   UNL     1      50.047  10.199  14.263  0.00  0.00    +0.000 OA
ATOM     10  N   UNL     1      49.399   8.328  13.162  0.00  0.00    +0.000 N 
ATOM     11  H   UNL     1      49.535   7.339  12.974  0.00  0.00    +0.000 HD
BRANCH   8  18
ATOM     12  C   UNL     1      51.639   3.950  18.478  0.00  0.00    +0.000 C 
ATOM     13  C   UNL     1      51.541   5.079  17.494  0.00  0.00    +0.000 A 
ATOM     14  N   UNL     1      52.593   5.687  17.059  0.00  0.00    +0.000 NA
ATOM     15  C   UNL     1      52.348   6.691  16.175  0.00  0.00    +0.000 A 
ATOM     16  S   UNL     1      53.630   7.589  15.512  0.00  0.00    +0.000 S 
ATOM     17  C   UNL     1      52.556   8.550  14.604  0.00  0.00    +0.000 A 
ATOM     18  C   UNL     1      51.216   8.221  14.781  0.00  0.00    +0.000 A 
ATOM     19  C   UNL     1      51.115   7.113  15.706  0.00  0.00    +0.000 A 
ATOM     20  C   UNL     1      49.963   6.393  16.212  0.00  0.00    +0.000 A 
ATOM     21  O   UNL     1      48.803   6.623  15.882  0.00  0.00    +0.000 OA
ATOM     22  N   UNL     1      50.255   5.396  17.112  0.00  0.00    +0.000 N 
ATOM     23  H   UNL     1      49.463   4.885  17.472  0.00  0.00    +0.000 HD
ENDBRANCH   8  18
ENDBRANCH   7  10
ENDBRANCH   1   7
BRANCH   4  24
ATOM     24  C   UNL     1      43.730   5.643  11.269  0.00  0.00    +0.000 C 
BRANCH  24  25
ATOM     25  N   UNL     1      43.694   5.068   9.922  0.00  0.00    +0.000 NA
ATOM     26  H   UNL     1      44.403   5.489   9.328  0.00  0.00    +0.000 HD
BRANCH  25  27
ATOM     27  CA  UNL     1      43.841   3.585   9.933  0.00  0.00    +0.000 C 
BRANCH  27  28
ATOM     28  C   UNL     1      44.963   3.158   8.976  0.00  0.00    +0.000 A 
ATOM     29  C   UNL     1      45.385   1.823   8.835  0.00  0.00    +0.000 A 
ATOM     30  C   UNL     1      46.433   1.473   7.980  0.00  0.00    +0.000 A 
ATOM     31  C   UNL     1      47.081   2.453   7.238  0.00  0.00    +0.000 A 
ATOM     32  C   UNL     1      46.659   3.776   7.327  0.00  0.00    +0.000 A 
ATOM     33  C   UNL     1      45.604   4.124   8.178  0.00  0.00    +0.000 A 
ENDBRANCH  27  28
BRANCH  27  34
ATOM     34  C   UNL     1      43.994   2.989  11.370  0.00  0.00    +0.000 C 
BRANCH  34  35
ATOM     35  O   UNL     1      42.954   2.068  11.706  0.00  0.00    +0.000 OA
ATOM     36  H   UNL     1      43.301   1.467  12.387  0.00  0.00    +0.000 HD
ENDBRANCH  34  35
ENDBRANCH  27  34
ENDBRANCH  25  27
ENDBRANCH  24  25
ENDBRANCH   4  24
TORSDOF 9
ENDMDL
MODEL 3
REMARK VINA RESULT:    -7.846      1.867      2.929
REMARK INTER + INTRA:         -12.822
REMARK INTER:                 -12.030
REMARK INTRA:                  -0.793
REMARK UNBOUND:                -1.077
REMARK  Name = 
REMARK  10 active torsions:
REMARK  status: ('A' for Active; 'I' for Inactive)
REMARK    1  A    between atoms: C_1  and  C_2
REMARK    2  A    between atoms: C_7  and  C_8
REMARK    3  A    between atoms: N_10  and  C_11
REMARK    4  A    between atoms: C_11  and  C_12
REMARK    5  A    between atoms: C_15  and  C_16
REMARK    6  A    between atoms: C_16  and  N_17
REMARK    7  A    between atoms: N_17  and  CA_18
REMARK    8  A    between atoms: CA_18  and  C_19
REMARK    9  A    between atoms: CA_18  and  C_21
REMARK   10  A    between atoms: C_19  and  O_20
REMARK                            x       y       z     vdW  Elec       q    Type
REMARK                         _______ _______ _______ _____ _____    ______ ____
ROOT
ATOM      1  C   UNL     1      48.123   6.646  13.487  0.00  0.00    +0.000 A 
ATOM      2  C   UNL     1      47.944   7.315  12.267  0.00  0.00    +0.000 A 
ATOM      3  C   UNL     1      46.923   6.941  11.380  0.00  0.00    +0.000 A 
ATOM      4  C   UNL     1      46.062   5.887  11.699  0.00  0.00    +0.000 A 
ATOM      5  C   UNL     1      46.228   5.242  12.939  0.00  0.00    +0.000 A 
ATOM      6  C   UNL     1      47.241   5.614  13.821  0.00  0.00    +0.000 A 
ENDROOT
BRANCH   1   7
ATOM      7  C   UNL     1      49.215   7.042  14.446  0.00  0.00    +0.000 C 
BRANCH   7  10
ATOM      8  C   UNL     1      49.114   6.441  16.818  0.00  0.00    +0.000 C 
ATOM      9  O   UNL     1      49.911   5.523  16.637  0.00  0.00    +0.000 OA
ATOM     10  N   UNL     1      48.711   7.243  15.782  0.00  0.00    +0.000 N 
ATOM     11  H   UNL     1      48.032   7.985  15.925  0.00  0.00    +0.000 HD
BRANCH   8  18
ATOM     12  C   UNL     1      46.335  10.988  21.139  0.00  0.00    +0.000 C 
ATOM     13  C   UNL     1      46.920   9.848  20.358  0.00  0.00    +0.000 A 
ATOM     14  N   UNL     1      47.084   8.682  20.888  0.00  0.00    +0.000 NA
ATOM     15  C   UNL     1      47.627   7.749  20.060  0.00  0.00    +0.000 A 
ATOM     16  S   UNL     1      47.908   6.166  20.611  0.00  0.00    +0.000 S 
ATOM     17  C   UNL     1      48.547   5.700  19.103  0.00  0.00    +0.000 A 
ATOM     18  C   UNL     1      48.567   6.720  18.157  0.00  0.00    +0.000 A 
ATOM     19  C   UNL     1      48.009   7.921  18.740  0.00  0.00    +0.000 A 
ATOM     20  C   UNL     1      47.795   9.242  18.183  0.00  0.00    +0.000 A 
ATOM     21  O   UNL     1      48.056   9.557  17.026  0.00  0.00    +0.000 OA
ATOM     22  N   UNL     1      47.256  10.156  19.058  0.00  0.00    +0.000 N 
ATOM     23  H   UNL     1      47.100  11.081  18.684  0.00  0.00    +0.000 HD
ENDBRANCH   8  18
ENDBRANCH   7  10
ENDBRANCH   1   7
BRANCH   4  24
ATOM     24  C   UNL     1      44.898   5.456  10.835  0.00  0.00    +0.000 C 
BRANCH  24  25
ATOM     25  N   UNL     1      45.229   5.001   9.483  0.00  0.00    +0.000 NA
ATOM     26  H   UNL     1      46.219   5.131   9.288  0.00  0.00    +0.000 HD
BRANCH  25  27
ATOM     27  CA  UNL     1      44.837   3.582   9.249  0.00  0.00    +0.000 C 
BRANCH  27  28
ATOM     28  C   UNL     1      45.727   2.960   8.163  0.00  0.00    +0.000 A 
ATOM     29  C   UNL     1      46.157   3.669   7.026  0.00  0.00    +0.000 A 
ATOM     30  C   UNL     1      46.939   3.063   6.039  0.00  0.00    +0.000 A 
ATOM     31  C   UNL     1      47.317   1.732   6.171  0.00  0.00    +0.000 A 
ATOM     32  C   UNL     1      46.940   1.019   7.306  0.00  0.00    +0.000 A 
ATOM     33  C   UNL     1      46.163   1.630   8.297  0.00  0.00    +0.000 A 
ENDBRANCH  27  28
BRANCH  27  34
ATOM     34  C   UNL     1      44.776   2.733  10.560  0.00  0.00    +0.000 C 
BRANCH  34  35
ATOM     35  O   UNL     1      43.443   2.379  10.934  0.00  0.00    +0.000 OA
ATOM     36  H   UNL     1      42.975   3.200  11.166  0.00  0.00    +0.000 HD
ENDBRANCH  34  35
ENDBRANCH  27  34
ENDBRANCH  25  27
ENDBRANCH  24  25
ENDBRANCH   4  24
TORSDOF 9
ENDMDL
MODEL 4
REMARK VINA RESULT:    -7.785      1.910      2.295
REMARK INTER + INTRA:         -12.730
REMARK INTER:                 -11.289
REMARK INTRA:                  -1.441
REMARK UNBOUND:                -1.077
REMARK  Name = 
REMARK  10 active torsions:
REMARK  status: ('A' for Active; 'I' for Inactive)
REMARK    1  A    between atoms: C_1  and  C_2
REMARK    2  A    between atoms: C_7  and  C_8
REMARK    3  A    between atoms: N_10  and  C_11
REMARK    4  A    between atoms: C_11  and  C_12
REMARK    5  A    between atoms: C_15  and  C_16
REMARK    6  A    between atoms: C_16  and  N_17
REMARK    7  A    between atoms: N_17  and  CA_18
REMARK    8  A    between atoms: CA_18  and  C_19
REMARK    9  A    between atoms: CA_18  and  C_21
REMARK   10  A    between atoms: C_19  and  O_20
REMARK                            x       y       z     vdW  Elec       q    Type
REMARK                         _______ _______ _______ _____ _____    ______ ____
ROOT
ATOM      1  C   UNL     1      47.860   7.055  12.789  0.00  0.00    +0.000 A 
ATOM      2  C   UNL     1      47.160   7.642  11.724  0.00  0.00    +0.000 A 
ATOM      3  C   UNL     1      45.892   7.172  11.347  0.00  0.00    +0.000 A 
ATOM      4  C   UNL     1      45.303   6.103  12.029  0.00  0.00    +0.000 A 
ATOM      5  C   UNL     1      45.998   5.541  13.116  0.00  0.00    +0.000 A 
ATOM      6  C   UNL     1      47.257   6.009  13.492  0.00  0.00    +0.000 A 
ENDROOT
BRANCH   1   7
ATOM      7  C   UNL     1      49.220   7.554  13.203  0.00  0.00    +0.000 C 
BRANCH   7  10
ATOM      8  C   UNL     1      50.755   7.392  15.104  0.00  0.00    +0.000 C 
ATOM      9  O   UNL     1      51.331   8.418  14.749  0.00  0.00    +0.000 OA
ATOM     10  N   UNL     1      49.698   6.890  14.390  0.00  0.00    +0.000 N 
ATOM     11  H   UNL     1      49.238   6.027  14.667  0.00  0.00    +0.000 HD
BRANCH   8  18
ATOM     12  C   UNL     1      48.991   4.578  21.107  0.00  0.00    +0.000 C 
ATOM     13  C   UNL     1      49.580   5.122  19.838  0.00  0.00    +0.000 A 
ATOM     14  N   UNL     1      50.842   5.024  19.586  0.00  0.00    +0.000 NA
ATOM     15  C   UNL     1      51.232   5.565  18.400  0.00  0.00    +0.000 A 
ATOM     16  S   UNL     1      52.863   5.518  17.925  0.00  0.00    +0.000 S 
ATOM     17  C   UNL     1      52.516   6.337  16.473  0.00  0.00    +0.000 A 
ATOM     18  C   UNL     1      51.174   6.666  16.315  0.00  0.00    +0.000 A 
ATOM     19  C   UNL     1      50.430   6.191  17.462  0.00  0.00    +0.000 A 
ATOM     20  C   UNL     1      49.017   6.267  17.781  0.00  0.00    +0.000 A 
ATOM     21  O   UNL     1      48.168   6.767  17.051  0.00  0.00    +0.000 OA
ATOM     22  N   UNL     1      48.671   5.720  18.994  0.00  0.00    +0.000 N 
ATOM     23  H   UNL     1      47.690   5.764  19.230  0.00  0.00    +0.000 HD
ENDBRANCH   8  18
ENDBRANCH   7  10
ENDBRANCH   1   7
BRANCH   4  24
ATOM     24  C   UNL     1      43.919   5.572  11.733  0.00  0.00    +0.000 C 
BRANCH  24  25
ATOM     25  N   UNL     1      43.665   5.160  10.351  0.00  0.00    +0.000 NA
ATOM     26  H   UNL     1      44.293   5.638   9.709  0.00  0.00    +0.000 HD
BRANCH  25  27
ATOM     27  CA  UNL     1      43.765   3.684  10.170  0.00  0.00    +0.000 C 
BRANCH  27  28
ATOM     28  C   UNL     1      44.876   3.349   9.164  0.00  0.00    +0.000 A 
ATOM     29  C   UNL     1      45.527   4.325   8.388  0.00  0.00    +0.000 A 
ATOM     30  C   UNL     1      46.511   3.982   7.458  0.00  0.00    +0.000 A 
ATOM     31  C   UNL     1      46.872   2.651   7.285  0.00  0.00    +0.000 A 
ATOM     32  C   UNL     1      46.272   1.669   8.068  0.00  0.00    +0.000 A 
ATOM     33  C   UNL     1      45.293   2.015   9.006  0.00  0.00    +0.000 A 
ENDBRANCH  27  28
BRANCH  27  34
ATOM     34  C   UNL     1      43.895   2.904  11.518  0.00  0.00    +0.000 C 
BRANCH  34  35
ATOM     35  O   UNL     1      42.853   1.944  11.710  0.00  0.00    +0.000 OA
ATOM     36  H   UNL     1      42.301   1.946  10.910  0.00  0.00    +0.000 HD
ENDBRANCH  34  35
ENDBRANCH  27  34
ENDBRANCH  25  27
ENDBRANCH  24  25
ENDBRANCH   4  24
TORSDOF 9
ENDMDL
MODEL 5
REMARK VINA RESULT:    -7.463      4.188      5.756
REMARK INTER + INTRA:         -12.248
REMARK INTER:                 -10.930
REMARK INTRA:                  -1.318
REMARK UNBOUND:                -1.077
REMARK  Name = 
REMARK  10 active torsions:
REMARK  status: ('A' for Active; 'I' for Inactive)
REMARK    1  A    between atoms: C_1  and  C_2
REMARK    2  A    between atoms: C_7  and  C_8
REMARK    3  A    between atoms: N_10  and  C_11
REMARK    4  A    between atoms: C_11  and  C_12
REMARK    5  A    between atoms: C_15  and  C_16
REMARK    6  A    between atoms: C_16  and  N_17
REMARK    7  A    between atoms: N_17  and  CA_18
REMARK    8  A    between atoms: CA_18  and  C_19
REMARK    9  A    between atoms: CA_18  and  C_21
REMARK   10  A    between atoms: C_19  and  O_20
REMARK                            x       y       z     vdW  Elec       q    Type
REMARK                         _______ _______ _______ _____ _____    ______ ____
ROOT
ATOM      1  C   UNL     1      48.251   6.991  13.640  0.00  0.00    +0.000 A 
ATOM      2  C   UNL     1      47.860   7.815  12.573  0.00  0.00    +0.000 A 
ATOM      3  C   UNL     1      46.766   7.476  11.762  0.00  0.00    +0.000 A 
ATOM      4  C   UNL     1      46.046   6.302  12.003  0.00  0.00    +0.000 A 
ATOM      5  C   UNL     1      46.425   5.498  13.093  0.00  0.00    +0.000 A 
ATOM      6  C   UNL     1      47.510   5.836  13.901  0.00  0.00    +0.000 A 
ENDROOT
BRANCH   1   7
ATOM      7  C   UNL     1      49.422   7.348  14.517  0.00  0.00    +0.000 C 
BRANCH   7  10
ATOM      8  C   UNL     1      51.263   8.706  13.640  0.00  0.00    +0.000 C 
ATOM      9  O   UNL     1      50.798   9.712  14.174  0.00  0.00    +0.000 OA
ATOM     10  N   UNL     1      50.640   7.491  13.758  0.00  0.00    +0.000 N 
ATOM     11  H   UNL     1      51.009   6.664  13.296  0.00  0.00    +0.000 HD
BRANCH   8  18
ATOM     12  C   UNL     1      54.570   7.214   7.818  0.00  0.00    +0.000 C 
ATOM     13  C   UNL     1      54.034   7.636   9.155  0.00  0.00    +0.000 A 
ATOM     14  N   UNL     1      54.782   8.233  10.022  0.00  0.00    +0.000 NA
ATOM     15  C   UNL     1      54.161   8.551  11.189  0.00  0.00    +0.000 A 
ATOM     16  S   UNL     1      55.012   9.338  12.433  0.00  0.00    +0.000 S 
ATOM     17  C   UNL     1      53.635   9.354  13.434  0.00  0.00    +0.000 A 
ATOM     18  C   UNL     1      52.511   8.767  12.862  0.00  0.00    +0.000 A 
ATOM     19  C   UNL     1      52.841   8.308  11.530  0.00  0.00    +0.000 A 
ATOM     20  C   UNL     1      52.035   7.647  10.521  0.00  0.00    +0.000 A 
ATOM     21  O   UNL     1      50.845   7.379  10.651  0.00  0.00    +0.000 OA
ATOM     22  N   UNL     1      52.707   7.332   9.363  0.00  0.00    +0.000 N 
ATOM     23  H   UNL     1      52.159   6.873   8.651  0.00  0.00    +0.000 HD
ENDBRANCH   8  18
ENDBRANCH   7  10
ENDBRANCH   1   7
BRANCH   4  24
ATOM     24  C   UNL     1      44.819   5.890  11.221  0.00  0.00    +0.000 C 
BRANCH  24  25
ATOM     25  N   UNL     1      45.057   5.349   9.881  0.00  0.00    +0.000 NA
ATOM     26  H   UNL     1      46.049   5.361   9.655  0.00  0.00    +0.000 HD
BRANCH  25  27
ATOM     27  CA  UNL     1      44.505   3.974   9.716  0.00  0.00    +0.000 C 
BRANCH  27  28
ATOM     28  C   UNL     1      45.375   3.169   8.740  0.00  0.00    +0.000 A 
ATOM     29  C   UNL     1      45.537   1.774   8.829  0.00  0.00    +0.000 A 
ATOM     30  C   UNL     1      46.363   1.076   7.945  0.00  0.00    +0.000 A 
ATOM     31  C   UNL     1      47.043   1.758   6.944  0.00  0.00    +0.000 A 
ATOM     32  C   UNL     1      46.870   3.132   6.807  0.00  0.00    +0.000 A 
ATOM     33  C   UNL     1      46.036   3.829   7.688  0.00  0.00    +0.000 A 
ENDBRANCH  27  28
BRANCH  27  34
ATOM     34  C   UNL     1      44.259   3.240  11.074  0.00  0.00    +0.000 C 
BRANCH  34  35
ATOM     35  O   UNL     1      42.890   2.881  11.274  0.00  0.00    +0.000 OA
ATOM     36  H   UNL     1      42.369   3.304  10.570  0.00  0.00    +0.000 HD
ENDBRANCH  34  35
ENDBRANCH  27  34
ENDBRANCH  25  27
ENDBRANCH  24  25
ENDBRANCH   4  24
TORSDOF 9
ENDMDL
MODEL 6
REMARK VINA RESULT:    -7.444      4.798      6.742
REMARK INTER + INTRA:         -12.220
REMARK INTER:                 -10.912
REMARK INTRA:                  -1.308
REMARK UNBOUND:                -1.077
REMARK  Name = 
REMARK  10 active torsions:
REMARK  status: ('A' for Active; 'I' for Inactive)
REMARK    1  A    between atoms: C_1  and  C_2
REMARK    2  A    between atoms: C_7  and  C_8
REMARK    3  A    between atoms: N_10  and  C_11
REMARK    4  A    between atoms: C_11  and  C_12
REMARK    5  A    between atoms: C_15  and  C_16
REMARK    6  A    between atoms: C_16  and  N_17
REMARK    7  A    between atoms: N_17  and  CA_18
REMARK    8  A    between atoms: CA_18  and  C_19
REMARK    9  A    between atoms: CA_18  and  C_21
REMARK   10  A    between atoms: C_19  and  O_20
REMARK                            x       y       z     vdW  Elec       q    Type
REMARK                         _______ _______ _______ _____ _____    ______ ____
ROOT
ATOM      1  C   UNL     1      48.298   6.927  12.695  0.00  0.00    +0.000 A 
ATOM      2  C   UNL     1      47.807   5.726  13.229  0.00  0.00    +0.000 A 
ATOM      3  C   UNL     1      46.483   5.320  12.998  0.00  0.00    +0.000 A 
ATOM      4  C   UNL     1      45.625   6.113  12.230  0.00  0.00    +0.000 A 
ATOM      5  C   UNL     1      46.135   7.300  11.672  0.00  0.00    +0.000 A 
ATOM      6  C   UNL     1      47.450   7.702  11.900  0.00  0.00    +0.000 A 
ENDROOT
BRANCH   1   7
ATOM      7  C   UNL     1      49.717   7.370  12.936  0.00  0.00    +0.000 C 
BRANCH   7  10
ATOM      8  C   UNL     1      51.394   8.722  11.769  0.00  0.00    +0.000 C 
ATOM      9  O   UNL     1      51.822   9.146  12.841  0.00  0.00    +0.000 OA
ATOM     10  N   UNL     1      50.346   7.838  11.726  0.00  0.00    +0.000 N 
ATOM     11  H   UNL     1      49.974   7.507  10.840  0.00  0.00    +0.000 HD
BRANCH   8  18
ATOM     12  C   UNL     1      54.811   6.958   6.088  0.00  0.00    +0.000 C 
ATOM     13  C   UNL     1      54.060   7.547   7.246  0.00  0.00    +0.000 A 
ATOM     14  N   UNL     1      53.795   8.809   7.305  0.00  0.00    +0.000 NA
ATOM     15  C   UNL     1      53.112   9.199   8.416  0.00  0.00    +0.000 A 
ATOM     16  S   UNL     1      52.691  10.830   8.641  0.00  0.00    +0.000 S 
ATOM     17  C   UNL     1      51.941  10.483  10.130  0.00  0.00    +0.000 A 
ATOM     18  C   UNL     1      51.994   9.141  10.492  0.00  0.00    +0.000 A 
ATOM     19  C   UNL     1      52.682   8.397   9.459  0.00  0.00    +0.000 A 
ATOM     20  C   UNL     1      52.990   6.984   9.344  0.00  0.00    +0.000 A 
ATOM     21  O   UNL     1      52.663   6.135  10.166  0.00  0.00    +0.000 OA
ATOM     22  N   UNL     1      53.692   6.638   8.214  0.00  0.00    +0.000 N 
ATOM     23  H   UNL     1      53.913   5.657   8.119  0.00  0.00    +0.000 HD
ENDBRANCH   8  18
ENDBRANCH   7  10
ENDBRANCH   1   7
BRANCH   4  24
ATOM     24  C   UNL     1      44.207   5.725  11.879  0.00  0.00    +0.000 C 
BRANCH  24  25
ATOM     25  N   UNL     1      43.958   5.378  10.479  0.00  0.00    +0.000 NA
ATOM     26  H   UNL     1      44.693   5.743   9.878  0.00  0.00    +0.000 HD
BRANCH  25  27
ATOM     27  CA  UNL     1      43.805   3.909  10.275  0.00  0.00    +0.000 C 
BRANCH  27  28
ATOM     28  C   UNL     1      44.834   3.407   9.252  0.00  0.00    +0.000 A 
ATOM     29  C   UNL     1      45.103   2.042   9.043  0.00  0.00    +0.000 A 
ATOM     30  C   UNL     1      46.070   1.620   8.127  0.00  0.00    +0.000 A 
ATOM     31  C   UNL     1      46.788   2.555   7.393  0.00  0.00    +0.000 A 
ATOM     32  C   UNL     1      46.514   3.911   7.549  0.00  0.00    +0.000 A 
ATOM     33  C   UNL     1      45.539   4.332   8.461  0.00  0.00    +0.000 A 
ENDBRANCH  27  28
BRANCH  27  34
ATOM     34  C   UNL     1      43.814   3.096  11.611  0.00  0.00    +0.000 C 
BRANCH  34  35
ATOM     35  O   UNL     1      42.895   2.002  11.604  0.00  0.00    +0.000 OA
ATOM     36  H   UNL     1      42.421   2.022  10.755  0.00  0.00    +0.000 HD
ENDBRANCH  34  35
ENDBRANCH  27  34
ENDBRANCH  25  27
ENDBRANCH  24  25
ENDBRANCH   4  24
TORSDOF 9
ENDMDL
MODEL 7
REMARK VINA RESULT:    -7.430      4.256      5.448
REMARK INTER + INTRA:         -12.199
REMARK INTER:                 -11.248
REMARK INTRA:                  -0.951
REMARK UNBOUND:                -1.077
REMARK  Name = 
REMARK  10 active torsions:
REMARK  status: ('A' for Active; 'I' for Inactive)
REMARK    1  A    between atoms: C_1  and  C_2
REMARK    2  A    between atoms: C_7  and  C_8
REMARK    3  A    between atoms: N_10  and  C_11
REMARK    4  A    between atoms: C_11  and  C_12
REMARK    5  A    between atoms: C_15  and  C_16
REMARK    6  A    between atoms: C_16  and  N_17
REMARK    7  A    between atoms: N_17  and  CA_18
REMARK    8  A    between atoms: CA_18  and  C_19
REMARK    9  A    between atoms: CA_18  and  C_21
REMARK   10  A    between atoms: C_19  and  O_20
REMARK                            x       y       z     vdW  Elec       q    Type
REMARK                         _______ _______ _______ _____ _____    ______ ____
ROOT
ATOM      1  C   UNL     1      48.361   5.205  16.432  0.00  0.00    +0.000 A 
ATOM      2  C   UNL     1      47.442   4.242  15.990  0.00  0.00    +0.000 A 
ATOM      3  C   UNL     1      46.797   4.375  14.750  0.00  0.00    +0.000 A 
ATOM      4  C   UNL     1      47.058   5.479  13.933  0.00  0.00    +0.000 A 
ATOM      5  C   UNL     1      48.004   6.424  14.370  0.00  0.00    +0.000 A 
ATOM      6  C   UNL     1      48.648   6.291  15.600  0.00  0.00    +0.000 A 
ENDROOT
BRANCH   1   7
ATOM      7  C   UNL     1      49.061   5.069  17.759  0.00  0.00    +0.000 C 
BRANCH   7  10
ATOM      8  C   UNL     1      51.215   4.372  18.694  0.00  0.00    +0.000 C 
ATOM      9  O   UNL     1      50.878   4.764  19.809  0.00  0.00    +0.000 OA
ATOM     10  N   UNL     1      50.374   4.490  17.618  0.00  0.00    +0.000 N 
ATOM     11  H   UNL     1      50.662   4.190  16.691  0.00  0.00    +0.000 HD
BRANCH   8  18
ATOM     12  C   UNL     1      54.807  -1.100  16.640  0.00  0.00    +0.000 C 
ATOM     13  C   UNL     1      54.217   0.193  17.123  0.00  0.00    +0.000 A 
ATOM     14  N   UNL     1      54.964   1.164  17.529  0.00  0.00    +0.000 NA
ATOM     15  C   UNL     1      54.289   2.272  17.939  0.00  0.00    +0.000 A 
ATOM     16  S   UNL     1      55.131   3.635  18.505  0.00  0.00    +0.000 S 
ATOM     17  C   UNL     1      53.678   4.477  18.791  0.00  0.00    +0.000 A 
ATOM     18  C   UNL     1      52.533   3.754  18.473  0.00  0.00    +0.000 A 
ATOM     19  C   UNL     1      52.917   2.456  17.961  0.00  0.00    +0.000 A 
ATOM     20  C   UNL     1      52.118   1.344  17.485  0.00  0.00    +0.000 A 
ATOM     21  O   UNL     1      50.893   1.350  17.416  0.00  0.00    +0.000 OA
ATOM     22  N   UNL     1      52.840   0.242  17.092  0.00  0.00    +0.000 N 
ATOM     23  H   UNL     1      52.298  -0.541  16.757  0.00  0.00    +0.000 HD
ENDBRANCH   8  18
ENDBRANCH   7  10
ENDBRANCH   1   7
BRANCH   4  24
ATOM     24  C   UNL     1      46.457   5.673  12.559  0.00  0.00    +0.000 C 
BRANCH  24  25
ATOM     25  N   UNL     1      45.306   4.828  12.231  0.00  0.00    +0.000 NA
ATOM     26  H   UNL     1      44.615   4.850  12.978  0.00  0.00    +0.000 HD
BRANCH  25  27
ATOM     27  CA  UNL     1      44.677   5.203  10.933  0.00  0.00    +0.000 C 
BRANCH  27  28
ATOM     28  C   UNL     1      45.093   4.209   9.839  0.00  0.00    +0.000 A 
ATOM     29  C   UNL     1      44.852   2.826   9.927  0.00  0.00    +0.000 A 
ATOM     30  C   UNL     1      45.274   1.945   8.929  0.00  0.00    +0.000 A 
ATOM     31  C   UNL     1      45.944   2.429   7.812  0.00  0.00    +0.000 A 
ATOM     32  C   UNL     1      46.160   3.797   7.678  0.00  0.00    +0.000 A 
ATOM     33  C   UNL     1      45.730   4.680   8.676  0.00  0.00    +0.000 A 
ENDBRANCH  27  28
BRANCH  27  34
ATOM     34  C   UNL     1      43.129   5.402  11.031  0.00  0.00    +0.000 C 
BRANCH  34  35
ATOM     35  O   UNL     1      42.743   6.778  11.021  0.00  0.00    +0.000 OA
ATOM     36  H   UNL     1      42.007   6.872  10.391  0.00  0.00    +0.000 HD
ENDBRANCH  34  35
ENDBRANCH  27  34
ENDBRANCH  25  27
ENDBRANCH  24  25
ENDBRANCH   4  24
TORSDOF 9
ENDMDL
MODEL 8
REMARK VINA RESULT:    -7.377      3.312      4.186
REMARK INTER + INTRA:         -12.120
REMARK INTER:                 -11.763
REMARK INTRA:                  -0.357
REMARK UNBOUND:                -1.077
REMARK  Name = 
REMARK  10 active torsions:
REMARK  status: ('A' for Active; 'I' for Inactive)
REMARK    1  A    between atoms: C_1  and  C_2
REMARK    2  A    between atoms: C_7  and  C_8
REMARK    3  A    between atoms: N_10  and  C_11
REMARK    4  A    between atoms: C_11  and  C_12
REMARK    5  A    between atoms: C_15  and  C_16
REMARK    6  A    between atoms: C_16  and  N_17
REMARK    7  A    between atoms: N_17  and  CA_18
REMARK    8  A    between atoms: CA_18  and  C_19
REMARK    9  A    between atoms: CA_18  and  C_21
REMARK   10  A    between atoms: C_19  and  O_20
REMARK                            x       y       z     vdW  Elec       q    Type
REMARK                         _______ _______ _______ _____ _____    ______ ____
ROOT
ATOM      1  C   UNL     1      46.776   4.794  14.765  0.00  0.00    +0.000 A 
ATOM      2  C   UNL     1      47.613   5.749  14.167  0.00  0.00    +0.000 A 
ATOM      3  C   UNL     1      47.351   6.231  12.875  0.00  0.00    +0.000 A 
ATOM      4  C   UNL     1      46.247   5.762  12.157  0.00  0.00    +0.000 A 
ATOM      5  C   UNL     1      45.396   4.828  12.776  0.00  0.00    +0.000 A 
ATOM      6  C   UNL     1      45.654   4.351  14.060  0.00  0.00    +0.000 A 
ENDROOT
BRANCH   1   7
ATOM      7  C   UNL     1      47.048   4.273  16.152  0.00  0.00    +0.000 C 
BRANCH   7  10
ATOM      8  C   UNL     1      49.083   4.599  17.476  0.00  0.00    +0.000 C 
ATOM      9  O   UNL     1      48.464   5.281  18.290  0.00  0.00    +0.000 OA
ATOM     10  N   UNL     1      48.456   4.062  16.381  0.00  0.00    +0.000 N 
ATOM     11  H   UNL     1      48.971   3.520  15.693  0.00  0.00    +0.000 HD
BRANCH   8  18
ATOM     12  C   UNL     1      54.170  -0.004  17.491  0.00  0.00    +0.000 C 
ATOM     13  C   UNL     1      53.214   1.152  17.530  0.00  0.00    +0.000 A 
ATOM     14  N   UNL     1      53.613   2.347  17.812  0.00  0.00    +0.000 NA
ATOM     15  C   UNL     1      52.633   3.291  17.813  0.00  0.00    +0.000 A 
ATOM     16  S   UNL     1      52.998   4.913  18.168  0.00  0.00    +0.000 S 
ATOM     17  C   UNL     1      51.370   5.374  17.978  0.00  0.00    +0.000 A 
ATOM     18  C   UNL     1      50.519   4.325  17.649  0.00  0.00    +0.000 A 
ATOM     19  C   UNL     1      51.287   3.103  17.547  0.00  0.00    +0.000 A 
ATOM     20  C   UNL     1      50.887   1.747  17.223  0.00  0.00    +0.000 A 
ATOM     21  O   UNL     1      49.741   1.412  16.939  0.00  0.00    +0.000 OA
ATOM     22  N   UNL     1      51.906   0.824  17.246  0.00  0.00    +0.000 N 
ATOM     23  H   UNL     1      51.643  -0.124  17.021  0.00  0.00    +0.000 HD
ENDBRANCH   8  18
ENDBRANCH   7  10
ENDBRANCH   1   7
BRANCH   4  24
ATOM     24  C   UNL     1      45.854   6.269  10.787  0.00  0.00    +0.000 C 
BRANCH  24  25
ATOM     25  N   UNL     1      46.355   5.501   9.645  0.00  0.00    +0.000 NA
ATOM     26  H   UNL     1      47.136   4.910   9.919  0.00  0.00    +0.000 HD
BRANCH  25  27
ATOM     27  CA  UNL     1      45.290   4.685   8.996  0.00  0.00    +0.000 C 
BRANCH  27  28
ATOM     28  C   UNL     1      45.912   3.480   8.277  0.00  0.00    +0.000 A 
ATOM     29  C   UNL     1      45.664   2.148   8.659  0.00  0.00    +0.000 A 
ATOM     30  C   UNL     1      46.273   1.075   8.004  0.00  0.00    +0.000 A 
ATOM     31  C   UNL     1      47.141   1.308   6.945  0.00  0.00    +0.000 A 
ATOM     32  C   UNL     1      47.373   2.613   6.520  0.00  0.00    +0.000 A 
ATOM     33  C   UNL     1      46.756   3.687   7.171  0.00  0.00    +0.000 A 
ENDBRANCH  27  28
BRANCH  27  34
ATOM     34  C   UNL     1      44.132   4.294   9.972  0.00  0.00    +0.000 C 
BRANCH  34  35
ATOM     35  O   UNL     1      43.100   5.280  10.036  0.00  0.00    +0.000 OA
ATOM     36  H   UNL     1      42.255   4.834   9.855  0.00  0.00    +0.000 HD
ENDBRANCH  34  35
ENDBRANCH  27  34
ENDBRANCH  25  27
ENDBRANCH  24  25
ENDBRANCH   4  24
TORSDOF 9
ENDMDL
MODEL 9
REMARK VINA RESULT:    -7.132      4.815      9.815
REMARK INTER + INTRA:         -11.753
REMARK INTER:                 -10.121
REMARK INTRA:                  -1.633
REMARK UNBOUND:                -1.077
REMARK  Name = 
REMARK  10 active torsions:
REMARK  status: ('A' for Active; 'I' for Inactive)
REMARK    1  A    between atoms: C_1  and  C_2
REMARK    2  A    between atoms: C_7  and  C_8
REMARK    3  A    between atoms: N_10  and  C_11
REMARK    4  A    between atoms: C_11  and  C_12
REMARK    5  A    between atoms: C_15  and  C_16
REMARK    6  A    between atoms: C_16  and  N_17
REMARK    7  A    between atoms: N_17  and  CA_18
REMARK    8  A    between atoms: CA_18  and  C_19
REMARK    9  A    between atoms: CA_18  and  C_21
REMARK   10  A    between atoms: C_19  and  O_20
REMARK                            x       y       z     vdW  Elec       q    Type
REMARK                         _______ _______ _______ _____ _____    ______ ____
ROOT
ATOM      1  C   UNL     1      49.578   4.545  17.420  0.00  0.00    +0.000 A 
ATOM      2  C   UNL     1      50.949   4.624  17.708  0.00  0.00    +0.000 A 
ATOM      3  C   UNL     1      51.751   3.472  17.732  0.00  0.00    +0.000 A 
ATOM      4  C   UNL     1      51.192   2.218  17.472  0.00  0.00    +0.000 A 
ATOM      5  C   UNL     1      49.823   2.150  17.153  0.00  0.00    +0.000 A 
ATOM      6  C   UNL     1      49.027   3.295  17.127  0.00  0.00    +0.000 A 
ENDROOT
BRANCH   1   7
ATOM      7  C   UNL     1      48.711   5.776  17.390  0.00  0.00    +0.000 C 
BRANCH   7  10
ATOM      8  C   UNL     1      48.341   6.257  15.017  0.00  0.00    +0.000 C 
ATOM      9  O   UNL     1      49.501   6.650  14.898  0.00  0.00    +0.000 OA
ATOM     10  N   UNL     1      47.866   5.810  16.222  0.00  0.00    +0.000 N 
ATOM     11  H   UNL     1      46.901   5.510  16.328  0.00  0.00    +0.000 HD
BRANCH   8  18
ATOM     12  C   UNL     1      44.323   2.617  10.814  0.00  0.00    +0.000 C 
ATOM     13  C   UNL     1      45.135   3.589  11.619  0.00  0.00    +0.000 A 
ATOM     14  N   UNL     1      45.163   4.847  11.328  0.00  0.00    +0.000 NA
ATOM     15  C   UNL     1      45.945   5.605  12.143  0.00  0.00    +0.000 A 
ATOM     16  S   UNL     1      46.088   7.279  11.888  0.00  0.00    +0.000 S 
ATOM     17  C   UNL     1      47.150   7.441  13.210  0.00  0.00    +0.000 A 
ATOM     18  C   UNL     1      47.422   6.246  13.867  0.00  0.00    +0.000 A 
ATOM     19  C   UNL     1      46.692   5.173  13.226  0.00  0.00    +0.000 A 
ATOM     20  C   UNL     1      46.620   3.756  13.524  0.00  0.00    +0.000 A 
ATOM     21  O   UNL     1      47.200   3.214  14.460  0.00  0.00    +0.000 OA
ATOM     22  N   UNL     1      45.829   3.026  12.668  0.00  0.00    +0.000 N 
ATOM     23  H   UNL     1      45.768   2.038  12.863  0.00  0.00    +0.000 HD
ENDBRANCH   8  18
ENDBRANCH   7  10
ENDBRANCH   1   7
BRANCH   4  24
ATOM     24  C   UNL     1      51.988   0.934  17.415  0.00  0.00    +0.000 C 
BRANCH  24  25
ATOM     25  N   UNL     1      52.900   0.688  18.535  0.00  0.00    +0.000 NA
ATOM     26  H   UNL     1      52.680  -0.191  18.996  0.00  0.00    +0.000 HD
BRANCH  25  27
ATOM     27  CA  UNL     1      54.331   0.711  18.120  0.00  0.00    +0.000 C 
BRANCH  27  28
ATOM     28  C   UNL     1      54.857   2.154  18.117  0.00  0.00    +0.000 A 
ATOM     29  C   UNL     1      55.032   2.908  19.292  0.00  0.00    +0.000 A 
ATOM     30  C   UNL     1      55.480   4.230  19.252  0.00  0.00    +0.000 A 
ATOM     31  C   UNL     1      55.772   4.829  18.032  0.00  0.00    +0.000 A 
ATOM     32  C   UNL     1      55.648   4.094  16.857  0.00  0.00    +0.000 A 
ATOM     33  C   UNL     1      55.206   2.767  16.900  0.00  0.00    +0.000 A 
ENDBRANCH  27  28
BRANCH  27  34
ATOM     34  C   UNL     1      55.228  -0.272  18.940  0.00  0.00    +0.000 C 
BRANCH  34  35
ATOM     35  O   UNL     1      54.674  -0.601  20.215  0.00  0.00    +0.000 OA
ATOM     36  H   UNL     1      53.744  -0.850  20.077  0.00  0.00    +0.000 HD
ENDBRANCH  34  35
ENDBRANCH  27  34
ENDBRANCH  25  27
ENDBRANCH  24  25
ENDBRANCH   4  24
TORSDOF 9
ENDMDL
