MODEL 1
REMARK VINA RESULT:    -8.106      0.000      0.000
REMARK INTER + INTRA:         -13.022
REMARK INTER:                 -11.896
REMARK INTRA:                  -1.126
REMARK UNBOUND:                -1.126
REMARK  Name = 
REMARK  10 active torsions:
REMARK  status: ('A' for Active; 'I' for Inactive)
REMARK    1  A    between atoms: C_1  and  O_2
REMARK    2  A    between atoms: O_2  and  C_3
REMARK    3  A    between atoms: C_10  and  C_11
REMARK    4  A    between atoms: N_13  and  C_14
REMARK    5  A    between atoms: C_14  and  C_15
REMARK    6  A    between atoms: C_18  and  C_19
REMARK    7  A    between atoms: C_19  and  N_20
REMARK    8  A    between atoms: N_20  and  C_21
REMARK    9  A    between atoms: C_21  and  C_22
REMARK   10  A    between atoms: C_21  and  C_23
REMARK                            x       y       z     vdW  Elec       q    Type
REMARK                         _______ _______ _______ _____ _____    ______ ____
ROOT
ATOM      1  C   UNL     1      46.440   7.565  12.633  0.00  0.00    +0.000 A 
ATOM      2  C   UNL     1      45.092   7.918  12.489  0.00  0.00    +0.000 A 
ATOM      3  C   UNL     1      44.240   7.171  11.666  0.00  0.00    +0.000 A 
ATOM      4  C   UNL     1      44.716   6.053  10.963  0.00  0.00    +0.000 A 
ATOM      5  C   UNL     1      46.070   5.716  11.089  0.00  0.00    +0.000 A 
ATOM      6  C   UNL     1      46.921   6.459  11.918  0.00  0.00    +0.000 A 
ENDROOT
BRANCH   1   7
ATOM      7  C   UNL     1      47.342   8.323  13.576  0.00  0.00    +0.000 C 
BRANCH   7  10
ATOM      8  C   UNL     1      48.892   6.936  14.883  0.00  0.00    +0.000 C 
ATOM      9  O   UNL     1      49.747   7.036  14.004  0.00  0.00    +0.000 OA
ATOM     10  N   UNL     1      47.668   7.536  14.744  0.00  0.00    +0.000 N 
ATOM     11  H   UNL     1      46.958   7.425  15.456  0.00  0.00    +0.000 HD
BRANCH   8  19
ATOM     12  C   UNL     1      47.365   4.222  16.384  0.00  0.00    +0.000 A 
ATOM     13  N   UNL     1      46.963   3.220  17.195  0.00  0.00    +0.000 NA
ATOM     14  C   UNL     1      47.651   2.999  18.317  0.00  0.00    +0.000 A 
ATOM     15  N   UNL     1      48.716   3.668  18.745  0.00  0.00    +0.000 NA
ATOM     16  C   UNL     1      49.080   4.662  17.916  0.00  0.00    +0.000 A 
ATOM     17  S   UNL     1      50.423   5.619  18.312  0.00  0.00    +0.000 S 
ATOM     18  C   UNL     1      50.230   6.554  16.908  0.00  0.00    +0.000 A 
ATOM     19  C   UNL     1      49.153   6.170  16.114  0.00  0.00    +0.000 A 
ATOM     20  C   UNL     1      48.471   5.025  16.718  0.00  0.00    +0.000 A 
BRANCH  12  22
ATOM     21  C   UNL     1      47.076   3.553  14.156  0.00  0.00    +0.000 C 
ATOM     22  O   UNL     1      46.670   4.428  15.208  0.00  0.00    +0.000 OA
ENDBRANCH  12  22
ENDBRANCH   8  19
ENDBRANCH   7  10
ENDBRANCH   1   7
BRANCH   4  23
ATOM     23  C   UNL     1      43.773   5.182  10.153  0.00  0.00    +0.000 C 
BRANCH  23  24
ATOM     24  N   UNL     1      44.447   4.531   9.030  0.00  0.00    +0.000 NA
ATOM     25  H   UNL     1      45.183   5.162   8.703  0.00  0.00    +0.000 HD
BRANCH  24  26
ATOM     26  C   UNL     1      45.107   3.256   9.398  0.00  0.00    +0.000 C 
ATOM     27  C   UNL     1      44.131   2.175   9.882  0.00  0.00    +0.000 C 
BRANCH  26  28
ATOM     28  C   UNL     1      45.912   2.700   8.218  0.00  0.00    +0.000 A 
ATOM     29  C   UNL     1      46.147   3.482   7.084  0.00  0.00    +0.000 A 
ATOM     30  C   UNL     1      46.856   2.939   6.017  0.00  0.00    +0.000 A 
ATOM     31  C   UNL     1      47.315   1.632   6.103  0.00  0.00    +0.000 A 
ATOM     32  C   UNL     1      47.045   0.921   7.263  0.00  0.00    +0.000 A 
ATOM     33  N   UNL     1      46.359   1.421   8.314  0.00  0.00    +0.000 NA
ENDBRANCH  26  28
ENDBRANCH  24  26
ENDBRANCH  23  24
ENDBRANCH   4  23
TORSDOF 8
ENDMDL
MODEL 2
REMARK VINA RESULT:    -8.041      2.155      2.632
REMARK INTER + INTRA:         -12.927
REMARK INTER:                 -11.766
REMARK INTRA:                  -1.161
REMARK UNBOUND:                -1.126
REMARK  Name = 
REMARK  10 active torsions:
REMARK  status: ('A' for Active; 'I' for Inactive)
REMARK    1  A    between atoms: C_1  and  O_2
REMARK    2  A    between atoms: O_2  and  C_3
REMARK    3  A    between atoms: C_10  and  C_11
REMARK    4  A    between atoms: N_13  and  C_14
REMARK    5  A    between atoms: C_14  and  C_15
REMARK    6  A    between atoms: C_18  and  C_19
REMARK    7  A    between atoms: C_19  and  N_20
REMARK    8  A    between atoms: N_20  and  C_21
REMARK    9  A    between atoms: C_21  and  C_22
REMARK   10  A    between atoms: C_21  and  C_23
REMARK                            x       y       z     vdW  Elec       q    Type
REMARK                         _______ _______ _______ _____ _____    ______ ____
ROOT
ATOM      1  C   UNL     1      47.449   6.039  14.089  0.00  0.00    +0.000 A 
ATOM      2  C   UNL     1      46.885   6.561  12.917  0.00  0.00    +0.000 A 
ATOM      3  C   UNL     1      45.996   5.797  12.150  0.00  0.00    +0.000 A 
ATOM      4  C   UNL     1      45.651   4.492  12.534  0.00  0.00    +0.000 A 
ATOM      5  C   UNL     1      46.236   3.964  13.692  0.00  0.00    +0.000 A 
ATOM      6  C   UNL     1      47.120   4.730  14.464  0.00  0.00    +0.000 A 
ENDROOT
BRANCH   1   7
ATOM      7  C   UNL     1      48.348   6.885  14.957  0.00  0.00    +0.000 C 
BRANCH   7  10
ATOM      8  C   UNL     1      49.654   6.034  16.855  0.00  0.00    +0.000 C 
ATOM      9  O   UNL     1      48.934   6.643  17.644  0.00  0.00    +0.000 OA
ATOM     10  N   UNL     1      49.439   6.109  15.505  0.00  0.00    +0.000 N 
ATOM     11  H   UNL     1      50.053   5.630  14.859  0.00  0.00    +0.000 HD
BRANCH   8  19
ATOM     12  C   UNL     1      50.215   2.626  17.007  0.00  0.00    +0.000 A 
ATOM     13  N   UNL     1      50.682   1.377  17.218  0.00  0.00    +0.000 NA
ATOM     14  C   UNL     1      51.884   1.238  17.783  0.00  0.00    +0.000 A 
ATOM     15  N   UNL     1      52.699   2.210  18.175  0.00  0.00    +0.000 NA
ATOM     16  C   UNL     1      52.196   3.438  17.956  0.00  0.00    +0.000 A 
ATOM     17  S   UNL     1      53.108   4.797  18.398  0.00  0.00    +0.000 S 
ATOM     18  C   UNL     1      51.892   5.849  17.856  0.00  0.00    +0.000 A 
ATOM     19  C   UNL     1      50.774   5.203  17.333  0.00  0.00    +0.000 A 
ATOM     20  C   UNL     1      50.966   3.754  17.385  0.00  0.00    +0.000 A 
BRANCH  12  22
ATOM     21  C   UNL     1      47.898   2.810  17.317  0.00  0.00    +0.000 C 
ATOM     22  O   UNL     1      48.985   2.767  16.393  0.00  0.00    +0.000 OA
ENDBRANCH  12  22
ENDBRANCH   8  19
ENDBRANCH   7  10
ENDBRANCH   1   7
BRANCH   4  23
ATOM     23  C   UNL     1      44.611   3.701  11.761  0.00  0.00    +0.000 C 
BRANCH  23  24
ATOM     24  N   UNL     1      45.215   2.814  10.768  0.00  0.00    +0.000 NA
ATOM     25  H   UNL     1      45.040   1.851  11.064  0.00  0.00    +0.000 HD
BRANCH  24  26
ATOM     26  C   UNL     1      44.628   2.959   9.414  0.00  0.00    +0.000 C 
ATOM     27  C   UNL     1      44.133   4.379   9.106  0.00  0.00    +0.000 C 
BRANCH  26  28
ATOM     28  C   UNL     1      45.637   2.545   8.337  0.00  0.00    +0.000 A 
ATOM     29  C   UNL     1      45.991   3.429   7.316  0.00  0.00    +0.000 A 
ATOM     30  C   UNL     1      46.887   3.013   6.335  0.00  0.00    +0.000 A 
ATOM     31  C   UNL     1      47.410   1.729   6.395  0.00  0.00    +0.000 A 
ATOM     32  C   UNL     1      47.012   0.912   7.442  0.00  0.00    +0.000 A 
ATOM     33  N   UNL     1      46.144   1.286   8.406  0.00  0.00    +0.000 NA
ENDBRANCH  26  28
ENDBRANCH  24  26
ENDBRANCH  23  24
ENDBRANCH   4  23
TORSDOF 8
ENDMDL
MODEL 3
REMARK VINA RESULT:    -7.964      1.682      2.129
REMARK INTER + INTRA:         -12.814
REMARK INTER:                 -11.746
REMARK INTRA:                  -1.068
REMARK UNBOUND:                -1.126
REMARK  Name = 
REMARK  10 active torsions:
REMARK  status: ('A' for Active; 'I' for Inactive)
REMARK    1  A    between atoms: C_1  and  O_2
REMARK    2  A    between atoms: O_2  and  C_3
REMARK    3  A    between atoms: C_10  and  C_11
REMARK    4  A    between atoms: N_13  and  C_14
REMARK    5  A    between atoms: C_14  and  C_15
REMARK    6  A    between atoms: C_18  and  C_19
REMARK    7  A    between atoms: C_19  and  N_20
REMARK    8  A    between atoms: N_20  and  C_21
REMARK    9  A    between atoms: C_21  and  C_22
REMARK   10  A    between atoms: C_21  and  C_23
REMARK                            x       y       z     vdW  Elec       q    Type
REMARK                         _______ _______ _______ _____ _____    ______ ____
ROOT
ATOM      1  C   UNL     1      46.816   6.545  13.266  0.00  0.00    +0.000 A 
ATOM      2  C   UNL     1      47.044   5.188  13.535  0.00  0.00    +0.000 A 
ATOM      3  C   UNL     1      46.177   4.206  13.038  0.00  0.00    +0.000 A 
ATOM      4  C   UNL     1      45.061   4.555  12.263  0.00  0.00    +0.000 A 
ATOM      5  C   UNL     1      44.823   5.914  12.017  0.00  0.00    +0.000 A 
ATOM      6  C   UNL     1      45.693   6.897  12.507  0.00  0.00    +0.000 A 
ENDROOT
BRANCH   1   7
ATOM      7  C   UNL     1      47.788   7.600  13.737  0.00  0.00    +0.000 C 
BRANCH   7  10
ATOM      8  C   UNL     1      49.006   7.117  15.814  0.00  0.00    +0.000 C 
ATOM      9  O   UNL     1      49.936   6.629  15.174  0.00  0.00    +0.000 OA
ATOM     10  N   UNL     1      47.899   7.611  15.179  0.00  0.00    +0.000 N 
ATOM     11  H   UNL     1      47.123   7.983  15.713  0.00  0.00    +0.000 HD
BRANCH   8  19
ATOM     12  C   UNL     1      48.776   4.759  18.331  0.00  0.00    +0.000 A 
ATOM     13  N   UNL     1      48.685   4.080  19.496  0.00  0.00    +0.000 NA
ATOM     14  C   UNL     1      48.771   4.767  20.637  0.00  0.00    +0.000 A 
ATOM     15  N   UNL     1      48.938   6.078  20.769  0.00  0.00    +0.000 NA
ATOM     16  C   UNL     1      49.015   6.719  19.590  0.00  0.00    +0.000 A 
ATOM     17  S   UNL     1      49.229   8.401  19.575  0.00  0.00    +0.000 S 
ATOM     18  C   UNL     1      49.218   8.436  17.878  0.00  0.00    +0.000 A 
ATOM     19  C   UNL     1      49.051   7.186  17.286  0.00  0.00    +0.000 A 
ATOM     20  C   UNL     1      48.941   6.156  18.318  0.00  0.00    +0.000 A 
BRANCH  12  22
ATOM     21  C   UNL     1      47.464   3.390  16.951  0.00  0.00    +0.000 C 
ATOM     22  O   UNL     1      48.719   4.041  17.153  0.00  0.00    +0.000 OA
ENDBRANCH  12  22
ENDBRANCH   8  19
ENDBRANCH   7  10
ENDBRANCH   1   7
BRANCH   4  23
ATOM     23  C   UNL     1      44.181   3.488  11.638  0.00  0.00    +0.000 C 
BRANCH  23  24
ATOM     24  N   UNL     1      44.922   2.634  10.710  0.00  0.00    +0.000 NA
ATOM     25  H   UNL     1      44.705   1.662  10.942  0.00  0.00    +0.000 HD
BRANCH  24  26
ATOM     26  C   UNL     1      44.536   2.831   9.292  0.00  0.00    +0.000 C 
ATOM     27  C   UNL     1      44.154   4.279   8.954  0.00  0.00    +0.000 C 
BRANCH  26  28
ATOM     28  C   UNL     1      45.665   2.389   8.355  0.00  0.00    +0.000 A 
ATOM     29  C   UNL     1      46.274   3.303   7.492  0.00  0.00    +0.000 A 
ATOM     30  C   UNL     1      47.276   2.864   6.631  0.00  0.00    +0.000 A 
ATOM     31  C   UNL     1      47.650   1.527   6.651  0.00  0.00    +0.000 A 
ATOM     32  C   UNL     1      47.000   0.683   7.539  0.00  0.00    +0.000 A 
ATOM     33  N   UNL     1      46.024   1.079   8.384  0.00  0.00    +0.000 NA
ENDBRANCH  26  28
ENDBRANCH  24  26
ENDBRANCH  23  24
ENDBRANCH   4  23
TORSDOF 8
ENDMDL
MODEL 4
REMARK VINA RESULT:    -7.756      2.026      2.667
REMARK INTER + INTRA:         -12.509
REMARK INTER:                 -11.344
REMARK INTRA:                  -1.166
REMARK UNBOUND:                -1.126
REMARK  Name = 
REMARK  10 active torsions:
REMARK  status: ('A' for Active; 'I' for Inactive)
REMARK    1  A    between atoms: C_1  and  O_2
REMARK    2  A    between atoms: O_2  and  C_3
REMARK    3  A    between atoms: C_10  and  C_11
REMARK    4  A    between atoms: N_13  and  C_14
REMARK    5  A    between atoms: C_14  and  C_15
REMARK    6  A    between atoms: C_18  and  C_19
REMARK    7  A    between atoms: C_19  and  N_20
REMARK    8  A    between atoms: N_20  and  C_21
REMARK    9  A    between atoms: C_21  and  C_22
REMARK   10  A    between atoms: C_21  and  C_23
REMARK                            x       y       z     vdW  Elec       q    Type
REMARK                         _______ _______ _______ _____ _____    ______ ____
ROOT
ATOM      1  C   UNL     1      46.942   6.288  12.814  0.00  0.00    +0.000 A 
ATOM      2  C   UNL     1      46.874   6.639  11.459  0.00  0.00    +0.000 A 
ATOM      3  C   UNL     1      45.841   6.152  10.646  0.00  0.00    +0.000 A 
ATOM      4  C   UNL     1      44.854   5.302  11.167  0.00  0.00    +0.000 A 
ATOM      5  C   UNL     1      44.939   4.934  12.516  0.00  0.00    +0.000 A 
ATOM      6  C   UNL     1      45.968   5.425  13.332  0.00  0.00    +0.000 A 
ENDROOT
BRANCH   1   7
ATOM      7  C   UNL     1      48.010   6.869  13.709  0.00  0.00    +0.000 C 
BRANCH   7  10
ATOM      8  C   UNL     1      48.975   6.289  15.892  0.00  0.00    +0.000 C 
ATOM      9  O   UNL     1      50.097   6.605  15.497  0.00  0.00    +0.000 OA
ATOM     10  N   UNL     1      47.888   6.379  15.065  0.00  0.00    +0.000 N 
ATOM     11  H   UNL     1      46.973   6.089  15.385  0.00  0.00    +0.000 HD
BRANCH   8  19
ATOM     12  C   UNL     1      47.915   7.778  18.825  0.00  0.00    +0.000 A 
ATOM     13  N   UNL     1      47.572   8.092  20.093  0.00  0.00    +0.000 NA
ATOM     14  C   UNL     1      47.610   7.129  21.017  0.00  0.00    +0.000 A 
ATOM     15  N   UNL     1      47.956   5.860  20.832  0.00  0.00    +0.000 NA
ATOM     16  C   UNL     1      48.298   5.588  19.561  0.00  0.00    +0.000 A 
ATOM     17  S   UNL     1      48.768   4.012  19.149  0.00  0.00    +0.000 S 
ATOM     18  C   UNL     1      49.022   4.458  17.532  0.00  0.00    +0.000 A 
ATOM     19  C   UNL     1      48.763   5.801  17.266  0.00  0.00    +0.000 A 
ATOM     20  C   UNL     1      48.317   6.473  18.486  0.00  0.00    +0.000 A 
BRANCH  12  22
ATOM     21  C   UNL     1      48.991   9.618  17.850  0.00  0.00    +0.000 C 
ATOM     22  O   UNL     1      47.844   8.770  17.866  0.00  0.00    +0.000 OA
ENDBRANCH  12  22
ENDBRANCH   8  19
ENDBRANCH   7  10
ENDBRANCH   1   7
BRANCH   4  23
ATOM     23  C   UNL     1      43.679   4.858  10.315  0.00  0.00    +0.000 C 
BRANCH  23  24
ATOM     24  N   UNL     1      44.107   4.169   9.098  0.00  0.00    +0.000 NA
ATOM     25  H   UNL     1      44.679   4.820   8.557  0.00  0.00    +0.000 HD
BRANCH  24  26
ATOM     26  C   UNL     1      44.947   2.977   9.361  0.00  0.00    +0.000 C 
ATOM     27  C   UNL     1      44.139   1.714   9.693  0.00  0.00    +0.000 C 
BRANCH  26  28
ATOM     28  C   UNL     1      45.858   2.678   8.165  0.00  0.00    +0.000 A 
ATOM     29  C   UNL     1      46.049   3.630   7.160  0.00  0.00    +0.000 A 
ATOM     30  C   UNL     1      46.858   3.317   6.071  0.00  0.00    +0.000 A 
ATOM     31  C   UNL     1      47.460   2.069   6.010  0.00  0.00    +0.000 A 
ATOM     32  C   UNL     1      47.225   1.180   7.049  0.00  0.00    +0.000 A 
ATOM     33  N   UNL     1      46.444   1.454   8.116  0.00  0.00    +0.000 NA
ENDBRANCH  26  28
ENDBRANCH  24  26
ENDBRANCH  23  24
ENDBRANCH   4  23
TORSDOF 8
ENDMDL
MODEL 5
REMARK VINA RESULT:    -7.501      2.191      2.853
REMARK INTER + INTRA:         -12.135
REMARK INTER:                 -10.835
REMARK INTRA:                  -1.299
REMARK UNBOUND:                -1.126
REMARK  Name = 
REMARK  10 active torsions:
REMARK  status: ('A' for Active; 'I' for Inactive)
REMARK    1  A    between atoms: C_1  and  O_2
REMARK    2  A    between atoms: O_2  and  C_3
REMARK    3  A    between atoms: C_10  and  C_11
REMARK    4  A    between atoms: N_13  and  C_14
REMARK    5  A    between atoms: C_14  and  C_15
REMARK    6  A    between atoms: C_18  and  C_19
REMARK    7  A    between atoms: C_19  and  N_20
REMARK    8  A    between atoms: N_20  and  C_21
REMARK    9  A    between atoms: C_21  and  C_22
REMARK   10  A    between atoms: C_21  and  C_23
REMARK                            x       y       z     vdW  Elec       q    Type
REMARK                         _______ _______ _______ _____ _____    ______ ____
ROOT
ATOM      1  C   UNL     1      47.813   6.823  12.914  0.00  0.00    +0.000 A 
ATOM      2  C   UNL     1      47.548   5.795  13.829  0.00  0.00    +0.000 A 
ATOM      3  C   UNL     1      46.546   4.850  13.572  0.00  0.00    +0.000 A 
ATOM      4  C   UNL     1      45.784   4.910  12.396  0.00  0.00    +0.000 A 
ATOM      5  C   UNL     1      46.034   5.954  11.495  0.00  0.00    +0.000 A 
ATOM      6  C   UNL     1      47.041   6.895  11.748  0.00  0.00    +0.000 A 
ENDROOT
BRANCH   1   7
ATOM      7  C   UNL     1      48.940   7.798  13.153  0.00  0.00    +0.000 C 
BRANCH   7  10
ATOM      8  C   UNL     1      50.750   7.958  14.806  0.00  0.00    +0.000 C 
ATOM      9  O   UNL     1      50.566   9.169  14.913  0.00  0.00    +0.000 OA
ATOM     10  N   UNL     1      49.993   7.206  13.947  0.00  0.00    +0.000 N 
ATOM     11  H   UNL     1      50.169   6.215  13.841  0.00  0.00    +0.000 HD
BRANCH   8  19
ATOM     12  C   UNL     1      50.708   5.338  17.062  0.00  0.00    +0.000 A 
ATOM     13  N   UNL     1      50.983   4.388  17.981  0.00  0.00    +0.000 NA
ATOM     14  C   UNL     1      52.247   4.244  18.384  0.00  0.00    +0.000 A 
ATOM     15  N   UNL     1      53.299   4.945  17.977  0.00  0.00    +0.000 NA
ATOM     16  C   UNL     1      52.985   5.885  17.069  0.00  0.00    +0.000 A 
ATOM     17  S   UNL     1      54.212   6.873  16.442  0.00  0.00    +0.000 S 
ATOM     18  C   UNL     1      53.104   7.714  15.469  0.00  0.00    +0.000 A 
ATOM     19  C   UNL     1      51.789   7.273  15.596  0.00  0.00    +0.000 A 
ATOM     20  C   UNL     1      51.724   6.167  16.550  0.00  0.00    +0.000 A 
BRANCH  12  22
ATOM     21  C   UNL     1      48.614   6.319  17.449  0.00  0.00    +0.000 C 
ATOM     22  O   UNL     1      49.404   5.464  16.624  0.00  0.00    +0.000 OA
ENDBRANCH  12  22
ENDBRANCH   8  19
ENDBRANCH   7  10
ENDBRANCH   1   7
BRANCH   4  23
ATOM     23  C   UNL     1      44.770   3.829  12.068  0.00  0.00    +0.000 C 
BRANCH  23  24
ATOM     24  N   UNL     1      45.295   2.849  11.117  0.00  0.00    +0.000 NA
ATOM     25  H   UNL     1      45.179   1.922  11.532  0.00  0.00    +0.000 HD
BRANCH  24  26
ATOM     26  C   UNL     1      44.569   2.835   9.825  0.00  0.00    +0.000 C 
ATOM     27  C   UNL     1      43.823   4.143   9.523  0.00  0.00    +0.000 C 
BRANCH  26  28
ATOM     28  C   UNL     1      45.526   2.534   8.666  0.00  0.00    +0.000 A 
ATOM     29  C   UNL     1      45.883   3.536   7.760  0.00  0.00    +0.000 A 
ATOM     30  C   UNL     1      46.731   3.224   6.700  0.00  0.00    +0.000 A 
ATOM     31  C   UNL     1      47.204   1.926   6.569  0.00  0.00    +0.000 A 
ATOM     32  C   UNL     1      46.806   0.990   7.512  0.00  0.00    +0.000 A 
ATOM     33  N   UNL     1      45.984   1.261   8.548  0.00  0.00    +0.000 NA
ENDBRANCH  26  28
ENDBRANCH  24  26
ENDBRANCH  23  24
ENDBRANCH   4  23
TORSDOF 8
ENDMDL
MODEL 6
REMARK VINA RESULT:    -7.183      2.347      2.830
REMARK INTER + INTRA:         -11.667
REMARK INTER:                 -10.650
REMARK INTRA:                  -1.018
REMARK UNBOUND:                -1.126
REMARK  Name = 
REMARK  10 active torsions:
REMARK  status: ('A' for Active; 'I' for Inactive)
REMARK    1  A    between atoms: C_1  and  O_2
REMARK    2  A    between atoms: O_2  and  C_3
REMARK    3  A    between atoms: C_10  and  C_11
REMARK    4  A    between atoms: N_13  and  C_14
REMARK    5  A    between atoms: C_14  and  C_15
REMARK    6  A    between atoms: C_18  and  C_19
REMARK    7  A    between atoms: C_19  and  N_20
REMARK    8  A    between atoms: N_20  and  C_21
REMARK    9  A    between atoms: C_21  and  C_22
REMARK   10  A    between atoms: C_21  and  C_23
REMARK                            x       y       z     vdW  Elec       q    Type
REMARK                         _______ _______ _______ _____ _____    ______ ____
ROOT
ATOM      1  C   UNL     1      46.686   7.871  12.866  0.00  0.00    +0.000 A 
ATOM      2  C   UNL     1      46.929   6.491  12.856  0.00  0.00    +0.000 A 
ATOM      3  C   UNL     1      46.064   5.618  12.184  0.00  0.00    +0.000 A 
ATOM      4  C   UNL     1      44.933   6.102  11.508  0.00  0.00    +0.000 A 
ATOM      5  C   UNL     1      44.680   7.480  11.541  0.00  0.00    +0.000 A 
ATOM      6  C   UNL     1      45.549   8.355  12.206  0.00  0.00    +0.000 A 
ENDROOT
BRANCH   1   7
ATOM      7  C   UNL     1      47.656   8.821  13.525  0.00  0.00    +0.000 C 
BRANCH   7  10
ATOM      8  C   UNL     1      48.456   8.811  15.848  0.00  0.00    +0.000 C 
ATOM      9  O   UNL     1      49.610   8.627  15.465  0.00  0.00    +0.000 OA
ATOM     10  N   UNL     1      47.426   8.908  14.950  0.00  0.00    +0.000 N 
ATOM     11  H   UNL     1      46.474   9.029  15.272  0.00  0.00    +0.000 HD
BRANCH   8  19
ATOM     12  C   UNL     1      48.133   6.536  18.430  0.00  0.00    +0.000 A 
ATOM     13  N   UNL     1      47.914   5.889  19.595  0.00  0.00    +0.000 NA
ATOM     14  C   UNL     1      47.587   6.611  20.669  0.00  0.00    +0.000 A 
ATOM     15  N   UNL     1      47.446   7.931  20.730  0.00  0.00    +0.000 NA
ATOM     16  C   UNL     1      47.663   8.538  19.550  0.00  0.00    +0.000 A 
ATOM     17  S   UNL     1      47.525  10.225  19.450  0.00  0.00    +0.000 S 
ATOM     18  C   UNL     1      47.904  10.205  17.795  0.00  0.00    +0.000 A 
ATOM     19  C   UNL     1      48.140   8.932  17.282  0.00  0.00    +0.000 A 
ATOM     20  C   UNL     1      48.005   7.934  18.343  0.00  0.00    +0.000 A 
BRANCH  12  22
ATOM     21  C   UNL     1      49.908   5.553  17.254  0.00  0.00    +0.000 C 
ATOM     22  O   UNL     1      48.501   5.788  17.329  0.00  0.00    +0.000 OA
ENDBRANCH  12  22
ENDBRANCH   8  19
ENDBRANCH   7  10
ENDBRANCH   1   7
BRANCH   4  23
ATOM     23  C   UNL     1      44.053   5.171  10.695  0.00  0.00    +0.000 C 
BRANCH  23  24
ATOM     24  N   UNL     1      44.708   4.724   9.465  0.00  0.00    +0.000 NA
ATOM     25  H   UNL     1      45.502   5.344   9.294  0.00  0.00    +0.000 HD
BRANCH  24  26
ATOM     26  C   UNL     1      45.249   3.347   9.553  0.00  0.00    +0.000 C 
ATOM     27  C   UNL     1      44.186   2.287   9.877  0.00  0.00    +0.000 C 
BRANCH  26  28
ATOM     28  C   UNL     1      45.954   2.955   8.250  0.00  0.00    +0.000 A 
ATOM     29  C   UNL     1      46.426   1.654   8.058  0.00  0.00    +0.000 A 
ATOM     30  C   UNL     1      47.089   1.338   6.876  0.00  0.00    +0.000 A 
ATOM     31  C   UNL     1      47.263   2.321   5.912  0.00  0.00    +0.000 A 
ATOM     32  C   UNL     1      46.763   3.587   6.175  0.00  0.00    +0.000 A 
ATOM     33  N   UNL     1      46.118   3.925   7.312  0.00  0.00    +0.000 NA
ENDBRANCH  26  28
ENDBRANCH  24  26
ENDBRANCH  23  24
ENDBRANCH   4  23
TORSDOF 8
ENDMDL
MODEL 7
REMARK VINA RESULT:    -7.132      2.499      3.632
REMARK INTER + INTRA:         -11.594
REMARK INTER:                 -10.546
REMARK INTRA:                  -1.048
REMARK UNBOUND:                -1.126
REMARK  Name = 
REMARK  10 active torsions:
REMARK  status: ('A' for Active; 'I' for Inactive)
REMARK    1  A    between atoms: C_1  and  O_2
REMARK    2  A    between atoms: O_2  and  C_3
REMARK    3  A    between atoms: C_10  and  C_11
REMARK    4  A    between atoms: N_13  and  C_14
REMARK    5  A    between atoms: C_14  and  C_15
REMARK    6  A    between atoms: C_18  and  C_19
REMARK    7  A    between atoms: C_19  and  N_20
REMARK    8  A    between atoms: N_20  and  C_21
REMARK    9  A    between atoms: C_21  and  C_22
REMARK   10  A    between atoms: C_21  and  C_23
REMARK                            x       y       z     vdW  Elec       q    Type
REMARK                         _______ _______ _______ _____ _____    ______ ____
ROOT
ATOM      1  C   UNL     1      47.554   6.702  12.950  0.00  0.00    +0.000 A 
ATOM      2  C   UNL     1      47.259   5.582  13.740  0.00  0.00    +0.000 A 
ATOM      3  C   UNL     1      46.260   4.678  13.354  0.00  0.00    +0.000 A 
ATOM      4  C   UNL     1      45.531   4.872  12.171  0.00  0.00    +0.000 A 
ATOM      5  C   UNL     1      45.811   6.005  11.397  0.00  0.00    +0.000 A 
ATOM      6  C   UNL     1      46.815   6.906  11.778  0.00  0.00    +0.000 A 
ENDROOT
BRANCH   1   7
ATOM      7  C   UNL     1      48.679   7.636  13.324  0.00  0.00    +0.000 C 
BRANCH   7  10
ATOM      8  C   UNL     1      49.576   7.230  15.574  0.00  0.00    +0.000 C 
ATOM      9  O   UNL     1      48.748   7.998  16.060  0.00  0.00    +0.000 OA
ATOM     10  N   UNL     1      49.616   7.003  14.224  0.00  0.00    +0.000 N 
ATOM     11  H   UNL     1      50.319   6.393  13.826  0.00  0.00    +0.000 HD
BRANCH   8  19
ATOM     12  C   UNL     1      53.026   7.020  15.587  0.00  0.00    +0.000 A 
ATOM     13  N   UNL     1      54.327   6.732  15.810  0.00  0.00    +0.000 NA
ATOM     14  C   UNL     1      54.631   5.914  16.820  0.00  0.00    +0.000 A 
ATOM     15  N   UNL     1      53.781   5.331  17.657  0.00  0.00    +0.000 NA
ATOM     16  C   UNL     1      52.497   5.634  17.399  0.00  0.00    +0.000 A 
ATOM     17  S   UNL     1      51.279   4.973  18.375  0.00  0.00    +0.000 S 
ATOM     18  C   UNL     1      50.069   5.755  17.478  0.00  0.00    +0.000 A 
ATOM     19  C   UNL     1      50.553   6.527  16.425  0.00  0.00    +0.000 A 
ATOM     20  C   UNL     1      52.014   6.461  16.388  0.00  0.00    +0.000 A 
BRANCH  12  22
ATOM     21  C   UNL     1      53.816   8.134  13.681  0.00  0.00    +0.000 C 
ATOM     22  O   UNL     1      52.718   7.891  14.561  0.00  0.00    +0.000 OA
ENDBRANCH  12  22
ENDBRANCH   8  19
ENDBRANCH   7  10
ENDBRANCH   1   7
BRANCH   4  23
ATOM     23  C   UNL     1      44.522   3.841  11.700  0.00  0.00    +0.000 C 
BRANCH  23  24
ATOM     24  N   UNL     1      45.128   2.829  10.835  0.00  0.00    +0.000 NA
ATOM     25  H   UNL     1      44.911   1.912  11.232  0.00  0.00    +0.000 HD
BRANCH  24  26
ATOM     26  C   UNL     1      44.591   2.836   9.454  0.00  0.00    +0.000 C 
ATOM     27  C   UNL     1      44.043   4.201   9.013  0.00  0.00    +0.000 C 
BRANCH  26  28
ATOM     28  C   UNL     1      45.661   2.389   8.452  0.00  0.00    +0.000 A 
ATOM     29  C   UNL     1      46.241   3.306   7.572  0.00  0.00    +0.000 A 
ATOM     30  C   UNL     1      47.189   2.863   6.653  0.00  0.00    +0.000 A 
ATOM     31  C   UNL     1      47.538   1.520   6.634  0.00  0.00    +0.000 A 
ATOM     32  C   UNL     1      46.921   0.673   7.542  0.00  0.00    +0.000 A 
ATOM     33  N   UNL     1      45.998   1.072   8.443  0.00  0.00    +0.000 NA
ENDBRANCH  26  28
ENDBRANCH  24  26
ENDBRANCH  23  24
ENDBRANCH   4  23
TORSDOF 8
ENDMDL
MODEL 8
REMARK VINA RESULT:    -6.879      4.860      9.826
REMARK INTER + INTRA:         -11.222
REMARK INTER:                 -10.264
REMARK INTRA:                  -0.958
REMARK UNBOUND:                -1.126
REMARK  Name = 
REMARK  10 active torsions:
REMARK  status: ('A' for Active; 'I' for Inactive)
REMARK    1  A    between atoms: C_1  and  O_2
REMARK    2  A    between atoms: O_2  and  C_3
REMARK    3  A    between atoms: C_10  and  C_11
REMARK    4  A    between atoms: N_13  and  C_14
REMARK    5  A    between atoms: C_14  and  C_15
REMARK    6  A    between atoms: C_18  and  C_19
REMARK    7  A    between atoms: C_19  and  N_20
REMARK    8  A    between atoms: N_20  and  C_21
REMARK    9  A    between atoms: C_21  and  C_22
REMARK   10  A    between atoms: C_21  and  C_23
REMARK                            x       y       z     vdW  Elec       q    Type
REMARK                         _______ _______ _______ _____ _____    ______ ____
ROOT
ATOM      1  C   UNL     1      48.727   3.270  17.332  0.00  0.00    +0.000 A 
ATOM      2  C   UNL     1      49.457   4.285  17.965  0.00  0.00    +0.000 A 
ATOM      3  C   UNL     1      50.834   4.147  18.180  0.00  0.00    +0.000 A 
ATOM      4  C   UNL     1      51.515   2.991  17.769  0.00  0.00    +0.000 A 
ATOM      5  C   UNL     1      50.778   1.967  17.159  0.00  0.00    +0.000 A 
ATOM      6  C   UNL     1      49.402   2.107  16.937  0.00  0.00    +0.000 A 
ENDROOT
BRANCH   1   7
ATOM      7  C   UNL     1      47.258   3.446  17.033  0.00  0.00    +0.000 C 
BRANCH   7  10
ATOM      8  C   UNL     1      47.042   4.271  14.730  0.00  0.00    +0.000 C 
ATOM      9  O   UNL     1      47.257   3.143  14.289  0.00  0.00    +0.000 OA
ATOM     10  N   UNL     1      47.036   4.509  16.078  0.00  0.00    +0.000 N 
ATOM     11  H   UNL     1      46.889   5.445  16.434  0.00  0.00    +0.000 HD
BRANCH   8  19
ATOM     12  C   UNL     1      44.370   5.190  12.739  0.00  0.00    +0.000 A 
ATOM     13  N   UNL     1      43.515   5.765  11.866  0.00  0.00    +0.000 NA
ATOM     14  C   UNL     1      43.895   6.890  11.255  0.00  0.00    +0.000 A 
ATOM     15  N   UNL     1      45.048   7.530  11.408  0.00  0.00    +0.000 NA
ATOM     16  C   UNL     1      45.875   6.924  12.278  0.00  0.00    +0.000 A 
ATOM     17  S   UNL     1      47.393   7.610  12.592  0.00  0.00    +0.000 S 
ATOM     18  C   UNL     1      47.785   6.364  13.676  0.00  0.00    +0.000 A 
ATOM     19  C   UNL     1      46.786   5.406  13.824  0.00  0.00    +0.000 A 
ATOM     20  C   UNL     1      45.635   5.752  12.991  0.00  0.00    +0.000 A 
BRANCH  12  22
ATOM     21  C   UNL     1      43.659   2.969  12.505  0.00  0.00    +0.000 C 
ATOM     22  O   UNL     1      43.961   4.044  13.393  0.00  0.00    +0.000 OA
ENDBRANCH  12  22
ENDBRANCH   8  19
ENDBRANCH   7  10
ENDBRANCH   1   7
BRANCH   4  23
ATOM     23  C   UNL     1      53.023   2.884  17.908  0.00  0.00    +0.000 C 
BRANCH  23  24
ATOM     24  N   UNL     1      53.428   1.681  18.635  0.00  0.00    +0.000 NA
ATOM     25  H   UNL     1      52.587   1.267  19.043  0.00  0.00    +0.000 HD
BRANCH  24  26
ATOM     26  C   UNL     1      54.038   0.645  17.767  0.00  0.00    +0.000 C 
ATOM     27  C   UNL     1      55.184   1.172  16.892  0.00  0.00    +0.000 C 
BRANCH  26  28
ATOM     28  C   UNL     1      54.556  -0.529  18.604  0.00  0.00    +0.000 A 
ATOM     29  C   UNL     1      54.624  -1.815  18.062  0.00  0.00    +0.000 A 
ATOM     30  C   UNL     1      55.071  -2.867  18.857  0.00  0.00    +0.000 A 
ATOM     31  C   UNL     1      55.443  -2.614  20.170  0.00  0.00    +0.000 A 
ATOM     32  C   UNL     1      55.352  -1.310  20.633  0.00  0.00    +0.000 A 
ATOM     33  N   UNL     1      54.920  -0.270  19.887  0.00  0.00    +0.000 NA
ENDBRANCH  26  28
ENDBRANCH  24  26
ENDBRANCH  23  24
ENDBRANCH   4  23
TORSDOF 8
ENDMDL
MODEL 9
REMARK VINA RESULT:    -6.794      3.247      7.857
REMARK INTER + INTRA:         -11.097
REMARK INTER:                  -9.266
REMARK INTRA:                  -1.831
REMARK UNBOUND:                -1.126
REMARK  Name = 
REMARK  10 active torsions:
REMARK  status: ('A' for Active; 'I' for Inactive)
REMARK    1  A    between atoms: C_1  and  O_2
REMARK    2  A    between atoms: O_2  and  C_3
REMARK    3  A    between atoms: C_10  and  C_11
REMARK    4  A    between atoms: N_13  and  C_14
REMARK    5  A    between atoms: C_14  and  C_15
REMARK    6  A    between atoms: C_18  and  C_19
REMARK    7  A    between atoms: C_19  and  N_20
REMARK    8  A    between atoms: N_20  and  C_21
REMARK    9  A    between atoms: C_21  and  C_22
REMARK   10  A    between atoms: C_21  and  C_23
REMARK                            x       y       z     vdW  Elec       q    Type
REMARK                         _______ _______ _______ _____ _____    ______ ____
ROOT
ATOM      1  C   UNL     1      48.520   8.003  13.288  0.00  0.00    +0.000 A 
ATOM      2  C   UNL     1      49.280   7.004  13.912  0.00  0.00    +0.000 A 
ATOM      3  C   UNL     1      49.372   6.944  15.309  0.00  0.00    +0.000 A 
ATOM      4  C   UNL     1      48.709   7.880  16.116  0.00  0.00    +0.000 A 
ATOM      5  C   UNL     1      47.970   8.892  15.489  0.00  0.00    +0.000 A 
ATOM      6  C   UNL     1      47.871   8.949  14.092  0.00  0.00    +0.000 A 
ENDROOT
BRANCH   1   7
ATOM      7  C   UNL     1      48.358   8.027  11.788  0.00  0.00    +0.000 C 
BRANCH   7  10
ATOM      8  C   UNL     1      46.254   6.903  11.204  0.00  0.00    +0.000 C 
ATOM      9  O   UNL     1      45.613   7.905  11.521  0.00  0.00    +0.000 OA
ATOM     10  N   UNL     1      47.618   6.877  11.317  0.00  0.00    +0.000 N 
ATOM     11  H   UNL     1      48.137   6.040  11.084  0.00  0.00    +0.000 HD
BRANCH   8  19
ATOM     12  C   UNL     1      44.470   4.346  12.698  0.00  0.00    +0.000 A 
ATOM     13  N   UNL     1      43.777   3.228  13.003  0.00  0.00    +0.000 NA
ATOM     14  C   UNL     1      43.434   2.405  12.010  0.00  0.00    +0.000 A 
ATOM     15  N   UNL     1      43.701   2.558  10.717  0.00  0.00    +0.000 NA
ATOM     16  C   UNL     1      44.398   3.678  10.454  0.00  0.00    +0.000 A 
ATOM     17  S   UNL     1      44.825   4.029   8.852  0.00  0.00    +0.000 S 
ATOM     18  C   UNL     1      45.614   5.456   9.324  0.00  0.00    +0.000 A 
ATOM     19  C   UNL     1      45.576   5.698  10.695  0.00  0.00    +0.000 A 
ATOM     20  C   UNL     1      44.835   4.632  11.369  0.00  0.00    +0.000 A 
BRANCH  12  22
ATOM     21  C   UNL     1      46.126   5.032  14.209  0.00  0.00    +0.000 C 
ATOM     22  O   UNL     1      44.795   5.212  13.724  0.00  0.00    +0.000 OA
ENDBRANCH  12  22
ENDBRANCH   8  19
ENDBRANCH   7  10
ENDBRANCH   1   7
BRANCH   4  23
ATOM     23  C   UNL     1      48.723   7.755  17.629  0.00  0.00    +0.000 C 
BRANCH  23  24
ATOM     24  N   UNL     1      49.801   6.887  18.102  0.00  0.00    +0.000 NA
ATOM     25  H   UNL     1      50.410   7.448  18.702  0.00  0.00    +0.000 HD
BRANCH  24  26
ATOM     26  C   UNL     1      49.324   5.748  18.921  0.00  0.00    +0.000 C 
ATOM     27  C   UNL     1      47.958   5.992  19.580  0.00  0.00    +0.000 C 
BRANCH  26  28
ATOM     28  C   UNL     1      49.243   4.469  18.081  0.00  0.00    +0.000 A 
ATOM     29  C   UNL     1      48.072   4.141  17.394  0.00  0.00    +0.000 A 
ATOM     30  C   UNL     1      48.020   2.957  16.663  0.00  0.00    +0.000 A 
ATOM     31  C   UNL     1      49.134   2.130  16.632  0.00  0.00    +0.000 A 
ATOM     32  C   UNL     1      50.260   2.527  17.337  0.00  0.00    +0.000 A 
ATOM     33  N   UNL     1      50.340   3.668  18.055  0.00  0.00    +0.000 NA
ENDBRANCH  26  28
ENDBRANCH  24  26
ENDBRANCH  23  24
ENDBRANCH   4  23
TORSDOF 8
ENDMDL
