MODEL 1
REMARK VINA RESULT:    -7.721      0.000      0.000
REMARK INTER + INTRA:         -10.558
REMARK INTER:                 -10.204
REMARK INTRA:                  -0.354
REMARK UNBOUND:                -0.354
REMARK  Name = 
REMARK  6 active torsions:
REMARK  status: ('A' for Active; 'I' for Inactive)
REMARK    1  A    between atoms: C_2  and  C_3
REMARK    2  A    between atoms: C_6  and  O_7
REMARK    3  A    between atoms: O_7  and  C_8
REMARK    4  A    between atoms: C_8  and  C_9
REMARK    5  A    between atoms: C_13  and  C_14
REMARK    6  A    between atoms: C_14  and  N_15
REMARK                            x       y       z     vdW  Elec       q    Type
REMARK                         _______ _______ _______ _____ _____    ______ ____
ROOT
ATOM      1  C   UNL     1      43.583   4.802  10.634  0.00  0.00    +0.000 C 
ENDROOT
BRANCH   1   2
ATOM      2  C   UNL     1      44.829   5.209  11.369  0.00  0.00    +0.000 A 
ATOM      3  C   UNL     1      45.625   6.256  10.889  0.00  0.00    +0.000 A 
ATOM      4  C   UNL     1      46.759   6.656  11.592  0.00  0.00    +0.000 A 
ATOM      5  C   UNL     1      47.094   6.026  12.791  0.00  0.00    +0.000 A 
ATOM      6  C   UNL     1      46.300   4.990  13.301  0.00  0.00    +0.000 A 
ATOM      7  C   UNL     1      45.179   4.576  12.567  0.00  0.00    +0.000 A 
BRANCH   6   8
ATOM      8  C   UNL     1      46.633   4.315  14.606  0.00  0.00    +0.000 C 
BRANCH   8   9
ATOM      9  N   UNL     1      47.496   3.155  14.407  0.00  0.00    +0.000 NA
ATOM     10  H   UNL     1      48.440   3.394  14.706  0.00  0.00    +0.000 HD
ATOM     11  H   UNL     1      47.549   2.943  13.414  0.00  0.00    +0.000 HD
ENDBRANCH   8   9
ENDBRANCH   6   8
ENDBRANCH   1   2
BRANCH   1  12
ATOM     12  O   UNL     1      43.636   3.413  10.286  0.00  0.00    +0.000 OA
BRANCH  12  16
ATOM     13  C   UNL     1      46.501   2.414   7.425  0.00  0.00    +0.000 A 
ATOM     14  C   UNL     1      46.029   1.465   8.341  0.00  0.00    +0.000 A 
ATOM     15  C   UNL     1      45.045   1.818   9.271  0.00  0.00    +0.000 A 
ATOM     16  C   UNL     1      44.542   3.121   9.298  0.00  0.00    +0.000 A 
ATOM     17  C   UNL     1      44.986   4.050   8.353  0.00  0.00    +0.000 A 
ATOM     18  C   UNL     1      45.973   3.705   7.434  0.00  0.00    +0.000 A 
BRANCH  13  20
ATOM     19  N   UNL     1      48.361   1.807   5.724  0.00  0.00    +0.000 NA
ATOM     20  C   UNL     1      47.518   2.078   6.479  0.00  0.00    +0.000 C 
ENDBRANCH  13  20
ENDBRANCH  12  16
ENDBRANCH   1  12
TORSDOF 6
ENDMDL
MODEL 2
REMARK VINA RESULT:    -7.541      1.191      1.871
REMARK INTER + INTRA:         -10.319
REMARK INTER:                  -9.688
REMARK INTRA:                  -0.631
REMARK UNBOUND:                -0.354
REMARK  Name = 
REMARK  6 active torsions:
REMARK  status: ('A' for Active; 'I' for Inactive)
REMARK    1  A    between atoms: C_2  and  C_3
REMARK    2  A    between atoms: C_6  and  O_7
REMARK    3  A    between atoms: O_7  and  C_8
REMARK    4  A    between atoms: C_8  and  C_9
REMARK    5  A    between atoms: C_13  and  C_14
REMARK    6  A    between atoms: C_14  and  N_15
REMARK                            x       y       z     vdW  Elec       q    Type
REMARK                         _______ _______ _______ _____ _____    ______ ____
ROOT
ATOM      1  C   UNL     1      43.842   5.166  10.774  0.00  0.00    +0.000 C 
ENDROOT
BRANCH   1   2
ATOM      2  C   UNL     1      44.960   5.276  11.772  0.00  0.00    +0.000 A 
ATOM      3  C   UNL     1      44.979   4.458  12.909  0.00  0.00    +0.000 A 
ATOM      4  C   UNL     1      46.034   4.536  13.813  0.00  0.00    +0.000 A 
ATOM      5  C   UNL     1      47.092   5.417  13.578  0.00  0.00    +0.000 A 
ATOM      6  C   UNL     1      47.104   6.229  12.436  0.00  0.00    +0.000 A 
ATOM      7  C   UNL     1      46.019   6.164  11.550  0.00  0.00    +0.000 A 
BRANCH   6   8
ATOM      8  C   UNL     1      48.248   7.168  12.153  0.00  0.00    +0.000 C 
BRANCH   8   9
ATOM      9  N   UNL     1      49.487   6.709  12.775  0.00  0.00    +0.000 NA
ATOM     10  H   UNL     1      49.564   5.702  12.647  0.00  0.00    +0.000 HD
ATOM     11  H   UNL     1      49.440   6.874  13.777  0.00  0.00    +0.000 HD
ENDBRANCH   8   9
ENDBRANCH   6   8
ENDBRANCH   1   2
BRANCH   1  12
ATOM     12  O   UNL     1      43.671   3.805  10.360  0.00  0.00    +0.000 OA
BRANCH  12  16
ATOM     13  C   UNL     1      46.479   2.442   7.594  0.00  0.00    +0.000 A 
ATOM     14  C   UNL     1      45.856   1.563   8.490  0.00  0.00    +0.000 A 
ATOM     15  C   UNL     1      44.895   2.041   9.387  0.00  0.00    +0.000 A 
ATOM     16  C   UNL     1      44.565   3.398   9.402  0.00  0.00    +0.000 A 
ATOM     17  C   UNL     1      45.157   4.261   8.477  0.00  0.00    +0.000 A 
ATOM     18  C   UNL     1      46.122   3.791   7.590  0.00  0.00    +0.000 A 
BRANCH  13  20
ATOM     19  N   UNL     1      48.274   1.599   5.925  0.00  0.00    +0.000 NA
ATOM     20  C   UNL     1      47.476   1.977   6.683  0.00  0.00    +0.000 C 
ENDBRANCH  13  20
ENDBRANCH  12  16
ENDBRANCH   1  12
TORSDOF 6
ENDMDL
MODEL 3
REMARK VINA RESULT:    -7.189      1.159      6.311
REMARK INTER + INTRA:          -9.854
REMARK INTER:                  -9.340
REMARK INTRA:                  -0.514
REMARK UNBOUND:                -0.354
REMARK  Name = 
REMARK  6 active torsions:
REMARK  status: ('A' for Active; 'I' for Inactive)
REMARK    1  A    between atoms: C_2  and  C_3
REMARK    2  A    between atoms: C_6  and  O_7
REMARK    3  A    between atoms: O_7  and  C_8
REMARK    4  A    between atoms: C_8  and  C_9
REMARK    5  A    between atoms: C_13  and  C_14
REMARK    6  A    between atoms: C_14  and  N_15
REMARK                            x       y       z     vdW  Elec       q    Type
REMARK                         _______ _______ _______ _____ _____    ______ ____
ROOT
ATOM      1  C   UNL     1      44.322   4.388   9.108  0.00  0.00    +0.000 C 
ENDROOT
BRANCH   1   2
ATOM      2  C   UNL     1      45.154   3.304   8.482  0.00  0.00    +0.000 A 
ATOM      3  C   UNL     1      45.162   2.014   9.025  0.00  0.00    +0.000 A 
ATOM      4  C   UNL     1      45.904   1.002   8.423  0.00  0.00    +0.000 A 
ATOM      5  C   UNL     1      46.628   1.266   7.259  0.00  0.00    +0.000 A 
ATOM      6  C   UNL     1      46.617   2.546   6.686  0.00  0.00    +0.000 A 
ATOM      7  C   UNL     1      45.892   3.564   7.322  0.00  0.00    +0.000 A 
BRANCH   6   8
ATOM      8  C   UNL     1      47.373   2.843   5.417  0.00  0.00    +0.000 C 
BRANCH   8   9
ATOM      9  N   UNL     1      48.512   1.945   5.245  0.00  0.00    +0.000 NA
ATOM     10  H   UNL     1      48.297   1.055   5.690  0.00  0.00    +0.000 HD
ATOM     11  H   UNL     1      49.317   2.329   5.734  0.00  0.00    +0.000 HD
ENDBRANCH   8   9
ENDBRANCH   6   8
ENDBRANCH   1   2
BRANCH   1  12
ATOM     12  O   UNL     1      44.022   4.067  10.472  0.00  0.00    +0.000 OA
BRANCH  12  16
ATOM     13  C   UNL     1      46.910   5.623  13.046  0.00  0.00    +0.000 A 
ATOM     14  C   UNL     1      46.493   6.331  11.912  0.00  0.00    +0.000 A 
ATOM     15  C   UNL     1      45.500   5.800  11.081  0.00  0.00    +0.000 A 
ATOM     16  C   UNL     1      44.934   4.557  11.372  0.00  0.00    +0.000 A 
ATOM     17  C   UNL     1      45.323   3.877  12.529  0.00  0.00    +0.000 A 
ATOM     18  C   UNL     1      46.320   4.397  13.352  0.00  0.00    +0.000 A 
BRANCH  13  20
ATOM     19  N   UNL     1      48.773   6.577  14.576  0.00  0.00    +0.000 NA
ATOM     20  C   UNL     1      47.935   6.140  13.897  0.00  0.00    +0.000 C 
ENDBRANCH  13  20
ENDBRANCH  12  16
ENDBRANCH   1  12
TORSDOF 6
ENDMDL
MODEL 4
REMARK VINA RESULT:    -5.978      2.771      3.402
REMARK INTER + INTRA:          -8.254
REMARK INTER:                  -7.855
REMARK INTRA:                  -0.399
REMARK UNBOUND:                -0.354
REMARK  Name = 
REMARK  6 active torsions:
REMARK  status: ('A' for Active; 'I' for Inactive)
REMARK    1  A    between atoms: C_2  and  C_3
REMARK    2  A    between atoms: C_6  and  O_7
REMARK    3  A    between atoms: O_7  and  C_8
REMARK    4  A    between atoms: C_8  and  C_9
REMARK    5  A    between atoms: C_13  and  C_14
REMARK    6  A    between atoms: C_14  and  N_15
REMARK                            x       y       z     vdW  Elec       q    Type
REMARK                         _______ _______ _______ _____ _____    ______ ____
ROOT
ATOM      1  C   UNL     1      44.635   5.452  11.047  0.00  0.00    +0.000 C 
ENDROOT
BRANCH   1   2
ATOM      2  C   UNL     1      45.252   6.641  11.729  0.00  0.00    +0.000 A 
ATOM      3  C   UNL     1      46.350   6.478  12.583  0.00  0.00    +0.000 A 
ATOM      4  C   UNL     1      46.942   7.584  13.185  0.00  0.00    +0.000 A 
ATOM      5  C   UNL     1      46.456   8.866  12.921  0.00  0.00    +0.000 A 
ATOM      6  C   UNL     1      45.372   9.054  12.053  0.00  0.00    +0.000 A 
ATOM      7  C   UNL     1      44.764   7.928  11.479  0.00  0.00    +0.000 A 
BRANCH   6   8
ATOM      8  C   UNL     1      44.850  10.431  11.737  0.00  0.00    +0.000 C 
BRANCH   8   9
ATOM      9  N   UNL     1      43.456  10.586  12.146  0.00  0.00    +0.000 NA
ATOM     10  H   UNL     1      42.983  11.186  11.473  0.00  0.00    +0.000 HD
ATOM     11  H   UNL     1      43.421  11.066  13.041  0.00  0.00    +0.000 HD
ENDBRANCH   8   9
ENDBRANCH   6   8
ENDBRANCH   1   2
BRANCH   1  12
ATOM     12  O   UNL     1      44.887   5.496   9.637  0.00  0.00    +0.000 OA
BRANCH  12  16
ATOM     13  C   UNL     1      46.069   1.760   8.211  0.00  0.00    +0.000 A 
ATOM     14  C   UNL     1      45.135   1.878   9.247  0.00  0.00    +0.000 A 
ATOM     15  C   UNL     1      44.732   3.144   9.686  0.00  0.00    +0.000 A 
ATOM     16  C   UNL     1      45.272   4.293   9.103  0.00  0.00    +0.000 A 
ATOM     17  C   UNL     1      46.170   4.168   8.040  0.00  0.00    +0.000 A 
ATOM     18  C   UNL     1      46.582   2.909   7.608  0.00  0.00    +0.000 A 
BRANCH  13  20
ATOM     19  N   UNL     1      46.845  -0.576   7.399  0.00  0.00    +0.000 NA
ATOM     20  C   UNL     1      46.507   0.477   7.760  0.00  0.00    +0.000 C 
ENDBRANCH  13  20
ENDBRANCH  12  16
ENDBRANCH   1  12
TORSDOF 6
ENDMDL
MODEL 5
REMARK VINA RESULT:    -5.963      1.922      2.323
REMARK INTER + INTRA:          -8.234
REMARK INTER:                  -7.782
REMARK INTRA:                  -0.452
REMARK UNBOUND:                -0.354
REMARK  Name = 
REMARK  6 active torsions:
REMARK  status: ('A' for Active; 'I' for Inactive)
REMARK    1  A    between atoms: C_2  and  C_3
REMARK    2  A    between atoms: C_6  and  O_7
REMARK    3  A    between atoms: O_7  and  C_8
REMARK    4  A    between atoms: C_8  and  C_9
REMARK    5  A    between atoms: C_13  and  C_14
REMARK    6  A    between atoms: C_14  and  N_15
REMARK                            x       y       z     vdW  Elec       q    Type
REMARK                         _______ _______ _______ _____ _____    ______ ____
ROOT
ATOM      1  C   UNL     1      44.720   5.457  11.109  0.00  0.00    +0.000 C 
ENDROOT
BRANCH   1   2
ATOM      2  C   UNL     1      45.437   6.572  11.817  0.00  0.00    +0.000 A 
ATOM      3  C   UNL     1      44.846   7.836  11.930  0.00  0.00    +0.000 A 
ATOM      4  C   UNL     1      45.496   8.856  12.619  0.00  0.00    +0.000 A 
ATOM      5  C   UNL     1      46.733   8.615  13.220  0.00  0.00    +0.000 A 
ATOM      6  C   UNL     1      47.332   7.351  13.138  0.00  0.00    +0.000 A 
ATOM      7  C   UNL     1      46.682   6.342  12.413  0.00  0.00    +0.000 A 
BRANCH   6   8
ATOM      8  C   UNL     1      48.654   7.066  13.801  0.00  0.00    +0.000 C 
BRANCH   8   9
ATOM      9  N   UNL     1      49.701   6.794  12.820  0.00  0.00    +0.000 NA
ATOM     10  H   UNL     1      50.331   6.090  13.200  0.00  0.00    +0.000 HD
ATOM     11  H   UNL     1      50.255   7.635  12.679  0.00  0.00    +0.000 HD
ENDBRANCH   8   9
ENDBRANCH   6   8
ENDBRANCH   1   2
BRANCH   1  12
ATOM     12  O   UNL     1      44.921   5.551   9.693  0.00  0.00    +0.000 OA
BRANCH  12  16
ATOM     13  C   UNL     1      46.123   1.887   8.105  0.00  0.00    +0.000 A 
ATOM     14  C   UNL     1      45.236   1.952   9.187  0.00  0.00    +0.000 A 
ATOM     15  C   UNL     1      44.825   3.195   9.682  0.00  0.00    +0.000 A 
ATOM     16  C   UNL     1      45.309   4.373   9.107  0.00  0.00    +0.000 A 
ATOM     17  C   UNL     1      46.158   4.300   8.000  0.00  0.00    +0.000 A 
ATOM     18  C   UNL     1      46.579   3.065   7.513  0.00  0.00    +0.000 A 
BRANCH  13  20
ATOM     19  N   UNL     1      46.914  -0.406   7.191  0.00  0.00    +0.000 NA
ATOM     20  C   UNL     1      46.569   0.628   7.598  0.00  0.00    +0.000 C 
ENDBRANCH  13  20
ENDBRANCH  12  16
ENDBRANCH   1  12
TORSDOF 6
ENDMDL
MODEL 6
REMARK VINA RESULT:    -5.756      1.953      6.529
REMARK INTER + INTRA:          -7.961
REMARK INTER:                  -7.448
REMARK INTRA:                  -0.513
REMARK UNBOUND:                -0.354
REMARK  Name = 
REMARK  6 active torsions:
REMARK  status: ('A' for Active; 'I' for Inactive)
REMARK    1  A    between atoms: C_2  and  C_3
REMARK    2  A    between atoms: C_6  and  O_7
REMARK    3  A    between atoms: O_7  and  C_8
REMARK    4  A    between atoms: C_8  and  C_9
REMARK    5  A    between atoms: C_13  and  C_14
REMARK    6  A    between atoms: C_14  and  N_15
REMARK                            x       y       z     vdW  Elec       q    Type
REMARK                         _______ _______ _______ _____ _____    ______ ____
ROOT
ATOM      1  C   UNL     1      44.729   5.675  10.787  0.00  0.00    +0.000 C 
ENDROOT
BRANCH   1   2
ATOM      2  C   UNL     1      44.956   4.452   9.944  0.00  0.00    +0.000 A 
ATOM      3  C   UNL     1      44.398   3.222  10.314  0.00  0.00    +0.000 A 
ATOM      4  C   UNL     1      44.579   2.099   9.513  0.00  0.00    +0.000 A 
ATOM      5  C   UNL     1      45.301   2.200   8.322  0.00  0.00    +0.000 A 
ATOM      6  C   UNL     1      45.850   3.426   7.921  0.00  0.00    +0.000 A 
ATOM      7  C   UNL     1      45.687   4.542   8.755  0.00  0.00    +0.000 A 
BRANCH   6   8
ATOM      8  C   UNL     1      46.611   3.560   6.628  0.00  0.00    +0.000 C 
BRANCH   8   9
ATOM      9  N   UNL     1      47.959   3.010   6.738  0.00  0.00    +0.000 NA
ATOM     10  H   UNL     1      48.004   2.144   6.205  0.00  0.00    +0.000 HD
ATOM     11  H   UNL     1      48.144   2.767   7.708  0.00  0.00    +0.000 HD
ENDBRANCH   8   9
ENDBRANCH   6   8
ENDBRANCH   1   2
BRANCH   1  12
ATOM     12  O   UNL     1      45.848   6.565  10.693  0.00  0.00    +0.000 OA
BRANCH  12  16
ATOM     13  C   UNL     1      48.427   6.632  13.968  0.00  0.00    +0.000 A 
ATOM     14  C   UNL     1      48.635   7.468  12.864  0.00  0.00    +0.000 A 
ATOM     15  C   UNL     1      47.737   7.448  11.791  0.00  0.00    +0.000 A 
ATOM     16  C   UNL     1      46.640   6.584  11.812  0.00  0.00    +0.000 A 
ATOM     17  C   UNL     1      46.415   5.784  12.935  0.00  0.00    +0.000 A 
ATOM     18  C   UNL     1      47.313   5.793  14.000  0.00  0.00    +0.000 A 
BRANCH  13  20
ATOM     19  N   UNL     1      50.090   6.597  15.957  0.00  0.00    +0.000 NA
ATOM     20  C   UNL     1      49.343   6.624  15.065  0.00  0.00    +0.000 C 
ENDBRANCH  13  20
ENDBRANCH  12  16
ENDBRANCH   1  12
TORSDOF 6
ENDMDL
MODEL 7
REMARK VINA RESULT:    -5.578      3.600      7.975
REMARK INTER + INTRA:          -7.725
REMARK INTER:                  -7.349
REMARK INTRA:                  -0.376
REMARK UNBOUND:                -0.354
REMARK  Name = 
REMARK  6 active torsions:
REMARK  status: ('A' for Active; 'I' for Inactive)
REMARK    1  A    between atoms: C_2  and  C_3
REMARK    2  A    between atoms: C_6  and  O_7
REMARK    3  A    between atoms: O_7  and  C_8
REMARK    4  A    between atoms: C_8  and  C_9
REMARK    5  A    between atoms: C_13  and  C_14
REMARK    6  A    between atoms: C_14  and  N_15
REMARK                            x       y       z     vdW  Elec       q    Type
REMARK                         _______ _______ _______ _____ _____    ______ ____
ROOT
ATOM      1  C   UNL     1      47.101   4.966  14.010  0.00  0.00    +0.000 C 
ENDROOT
BRANCH   1   2
ATOM      2  C   UNL     1      45.972   5.144  13.035  0.00  0.00    +0.000 A 
ATOM      3  C   UNL     1      45.521   6.426  12.698  0.00  0.00    +0.000 A 
ATOM      4  C   UNL     1      44.499   6.589  11.767  0.00  0.00    +0.000 A 
ATOM      5  C   UNL     1      43.934   5.473  11.147  0.00  0.00    +0.000 A 
ATOM      6  C   UNL     1      44.385   4.181  11.454  0.00  0.00    +0.000 A 
ATOM      7  C   UNL     1      45.392   4.030  12.418  0.00  0.00    +0.000 A 
BRANCH   6   8
ATOM      8  C   UNL     1      43.804   2.967  10.778  0.00  0.00    +0.000 C 
BRANCH   8   9
ATOM      9  N   UNL     1      43.027   2.153  11.709  0.00  0.00    +0.000 NA
ATOM     10  H   UNL     1      42.433   2.766  12.263  0.00  0.00    +0.000 HD
ATOM     11  H   UNL     1      43.660   1.693  12.360  0.00  0.00    +0.000 HD
ENDBRANCH   8   9
ENDBRANCH   6   8
ENDBRANCH   1   2
BRANCH   1  12
ATOM     12  O   UNL     1      46.751   4.006  15.014  0.00  0.00    +0.000 OA
BRANCH  12  16
ATOM     13  C   UNL     1      48.982   4.563  18.494  0.00  0.00    +0.000 A 
ATOM     14  C   UNL     1      48.942   5.542  17.493  0.00  0.00    +0.000 A 
ATOM     15  C   UNL     1      48.161   5.343  16.349  0.00  0.00    +0.000 A 
ATOM     16  C   UNL     1      47.432   4.162  16.195  0.00  0.00    +0.000 A 
ATOM     17  C   UNL     1      47.441   3.209  17.217  0.00  0.00    +0.000 A 
ATOM     18  C   UNL     1      48.226   3.398  18.351  0.00  0.00    +0.000 A 
BRANCH  13  20
ATOM     19  N   UNL     1      50.458   4.890  20.599  0.00  0.00    +0.000 NA
ATOM     20  C   UNL     1      49.787   4.738  19.660  0.00  0.00    +0.000 C 
ENDBRANCH  13  20
ENDBRANCH  12  16
ENDBRANCH   1  12
TORSDOF 6
ENDMDL
MODEL 8
REMARK VINA RESULT:    -5.518      4.123      8.122
REMARK INTER + INTRA:          -7.646
REMARK INTER:                  -7.296
REMARK INTRA:                  -0.350
REMARK UNBOUND:                -0.354
REMARK  Name = 
REMARK  6 active torsions:
REMARK  status: ('A' for Active; 'I' for Inactive)
REMARK    1  A    between atoms: C_2  and  C_3
REMARK    2  A    between atoms: C_6  and  O_7
REMARK    3  A    between atoms: O_7  and  C_8
REMARK    4  A    between atoms: C_8  and  C_9
REMARK    5  A    between atoms: C_13  and  C_14
REMARK    6  A    between atoms: C_14  and  N_15
REMARK                            x       y       z     vdW  Elec       q    Type
REMARK                         _______ _______ _______ _____ _____    ______ ____
ROOT
ATOM      1  C   UNL     1      46.635   4.824  14.105  0.00  0.00    +0.000 C 
ENDROOT
BRANCH   1   2
ATOM      2  C   UNL     1      45.573   4.477  13.101  0.00  0.00    +0.000 A 
ATOM      3  C   UNL     1      45.617   3.258  12.414  0.00  0.00    +0.000 A 
ATOM      4  C   UNL     1      44.612   2.923  11.511  0.00  0.00    +0.000 A 
ATOM      5  C   UNL     1      43.541   3.794  11.304  0.00  0.00    +0.000 A 
ATOM      6  C   UNL     1      43.465   5.010  11.997  0.00  0.00    +0.000 A 
ATOM      7  C   UNL     1      44.501   5.350  12.879  0.00  0.00    +0.000 A 
BRANCH   6   8
ATOM      8  C   UNL     1      42.305   5.951  11.804  0.00  0.00    +0.000 C 
BRANCH   8   9
ATOM      9  N   UNL     1      42.715   7.179  11.127  0.00  0.00    +0.000 NA
ATOM     10  H   UNL     1      42.450   7.115  10.146  0.00  0.00    +0.000 HD
ATOM     11  H   UNL     1      43.729   7.253  11.152  0.00  0.00    +0.000 HD
ENDBRANCH   8   9
ENDBRANCH   6   8
ENDBRANCH   1   2
BRANCH   1  12
ATOM     12  O   UNL     1      47.017   3.664  14.854  0.00  0.00    +0.000 OA
BRANCH  12  16
ATOM     13  C   UNL     1      48.608   4.412  18.636  0.00  0.00    +0.000 A 
ATOM     14  C   UNL     1      48.156   3.135  18.278  0.00  0.00    +0.000 A 
ATOM     15  C   UNL     1      47.655   2.904  16.993  0.00  0.00    +0.000 A 
ATOM     16  C   UNL     1      47.590   3.948  16.068  0.00  0.00    +0.000 A 
ATOM     17  C   UNL     1      48.083   5.208  16.417  0.00  0.00    +0.000 A 
ATOM     18  C   UNL     1      48.571   5.445  17.699  0.00  0.00    +0.000 A 
BRANCH  13  20
ATOM     19  N   UNL     1      49.528   4.874  21.014  0.00  0.00    +0.000 NA
ATOM     20  C   UNL     1      49.105   4.672  19.949  0.00  0.00    +0.000 C 
ENDBRANCH  13  20
ENDBRANCH  12  16
ENDBRANCH   1  12
TORSDOF 6
ENDMDL
MODEL 9
REMARK VINA RESULT:    -5.277      2.580      7.127
REMARK INTER + INTRA:          -7.328
REMARK INTER:                  -6.883
REMARK INTRA:                  -0.445
REMARK UNBOUND:                -0.354
REMARK  Name = 
REMARK  6 active torsions:
REMARK  status: ('A' for Active; 'I' for Inactive)
REMARK    1  A    between atoms: C_2  and  C_3
REMARK    2  A    between atoms: C_6  and  O_7
REMARK    3  A    between atoms: O_7  and  C_8
REMARK    4  A    between atoms: C_8  and  C_9
REMARK    5  A    between atoms: C_13  and  C_14
REMARK    6  A    between atoms: C_14  and  N_15
REMARK                            x       y       z     vdW  Elec       q    Type
REMARK                         _______ _______ _______ _____ _____    ______ ____
ROOT
ATOM      1  C   UNL     1      46.017   6.813  12.461  0.00  0.00    +0.000 C 
ENDROOT
BRANCH   1   2
ATOM      2  C   UNL     1      45.125   5.773  11.844  0.00  0.00    +0.000 A 
ATOM      3  C   UNL     1      44.047   5.245  12.564  0.00  0.00    +0.000 A 
ATOM      4  C   UNL     1      43.201   4.308  11.977  0.00  0.00    +0.000 A 
ATOM      5  C   UNL     1      43.412   3.907  10.657  0.00  0.00    +0.000 A 
ATOM      6  C   UNL     1      44.473   4.439   9.910  0.00  0.00    +0.000 A 
ATOM      7  C   UNL     1      45.337   5.357  10.524  0.00  0.00    +0.000 A 
BRANCH   6   8
ATOM      8  C   UNL     1      44.702   4.036   8.477  0.00  0.00    +0.000 C 
BRANCH   8   9
ATOM      9  N   UNL     1      46.019   4.455   8.003  0.00  0.00    +0.000 NA
ATOM     10  H   UNL     1      46.418   5.104   8.679  0.00  0.00    +0.000 HD
ATOM     11  H   UNL     1      45.913   4.968   7.131  0.00  0.00    +0.000 HD
ENDBRANCH   8   9
ENDBRANCH   6   8
ENDBRANCH   1   2
BRANCH   1  12
ATOM     12  O   UNL     1      47.330   6.283  12.680  0.00  0.00    +0.000 OA
BRANCH  12  16
ATOM     13  C   UNL     1      48.206   5.054  16.568  0.00  0.00    +0.000 A 
ATOM     14  C   UNL     1      48.696   6.265  16.062  0.00  0.00    +0.000 A 
ATOM     15  C   UNL     1      48.362   6.668  14.764  0.00  0.00    +0.000 A 
ATOM     16  C   UNL     1      47.552   5.858  13.965  0.00  0.00    +0.000 A 
ATOM     17  C   UNL     1      47.030   4.673  14.492  0.00  0.00    +0.000 A 
ATOM     18  C   UNL     1      47.370   4.263  15.778  0.00  0.00    +0.000 A 
BRANCH  13  20
ATOM     19  N   UNL     1      48.846   4.272  18.955  0.00  0.00    +0.000 NA
ATOM     20  C   UNL     1      48.550   4.615  17.883  0.00  0.00    +0.000 C 
ENDBRANCH  13  20
ENDBRANCH  12  16
ENDBRANCH   1  12
TORSDOF 6
ENDMDL
