MODEL 1
REMARK VINA RESULT:    -6.852      0.000      0.000
REMARK INTER + INTRA:         -10.995
REMARK INTER:                  -9.656
REMARK INTRA:                  -1.339
REMARK UNBOUND:                -1.339
REMARK  Name = 
REMARK  11 active torsions:
REMARK  status: ('A' for Active; 'I' for Inactive)
REMARK    1  A    between atoms: C_1  and  C_2
REMARK    2  A    between atoms: C_2  and  N_3
REMARK    3  A    between atoms: N_3  and  C_4
REMARK    4  A    between atoms: C_5  and  C_7
REMARK    5  A    between atoms: C_10  and  N_11
REMARK    6  A    between atoms: N_11  and  C_12
REMARK    7  A    between atoms: C_12  and  C_13
REMARK    8  A    between atoms: C_13  and  C_14
REMARK    9  A    between atoms: C_13  and  C_15
REMARK   10  A    between atoms: C_13  and  C_16
REMARK   11  A    between atoms: C_20  and  C_21
REMARK                            x       y       z     vdW  Elec       q    Type
REMARK                         _______ _______ _______ _____ _____    ______ ____
ROOT
ATOM      1  C   UNL     1      45.003   3.595  12.517  0.00  0.00    +0.000 C 
ENDROOT
BRANCH   1   2
ATOM      2  C   UNL     1      44.079   3.454  11.277  0.00  0.00    +0.000 C 
ATOM      3  C   UNL     1      43.406   2.060  11.329  0.00  0.00    +0.000 C 
ATOM      4  C   UNL     1      43.007   4.562  11.318  0.00  0.00    +0.000 C 
BRANCH   2   5
ATOM      5  C   UNL     1      44.875   3.559   9.950  0.00  0.00    +0.000 A 
ATOM      6  C   UNL     1      45.207   4.783   9.337  0.00  0.00    +0.000 A 
ATOM      7  C   UNL     1      46.007   4.832   8.190  0.00  0.00    +0.000 A 
ATOM      8  C   UNL     1      46.509   3.658   7.636  0.00  0.00    +0.000 A 
ATOM      9  C   UNL     1      46.193   2.430   8.218  0.00  0.00    +0.000 A 
ATOM     10  C   UNL     1      45.351   2.384   9.336  0.00  0.00    +0.000 A 
BRANCH   9  11
ATOM     11  C   UNL     1      46.795   1.196   7.652  0.00  0.00    +0.000 C 
ATOM     12  N   UNL     1      47.751   1.358   6.686  0.00  0.00    +0.000 N 
ATOM     13  O   UNL     1      46.420   0.081   7.988  0.00  0.00    +0.000 OA
ATOM     14  H   UNL     1      47.897   2.236   6.210  0.00  0.00    +0.000 HD
ATOM     15  H   UNL     1      48.048   0.516   6.207  0.00  0.00    +0.000 HD
ENDBRANCH   9  11
ENDBRANCH   2   5
ENDBRANCH   1   2
BRANCH   1  16
ATOM     16  N   UNL     1      44.895   4.878  13.220  0.00  0.00    +0.000 N 
ATOM     17  H   UNL     1      43.970   5.301  13.219  0.00  0.00    +0.000 HD
BRANCH  16  21
ATOM     18  C   UNL     1      47.978   7.689  12.512  0.00  0.00    +0.000 A 
ATOM     19  C   UNL     1      46.669   7.966  12.125  0.00  0.00    +0.000 A 
ATOM     20  C   UNL     1      45.645   7.067  12.399  0.00  0.00    +0.000 A 
ATOM     21  C   UNL     1      45.897   5.830  12.997  0.00  0.00    +0.000 A 
ATOM     22  C   UNL     1      47.235   5.492  13.247  0.00  0.00    +0.000 A 
ATOM     23  C   UNL     1      48.267   6.416  13.021  0.00  0.00    +0.000 A 
BRANCH  18  26
ATOM     24  N   UNL     1      49.321   9.652  13.311  0.00  0.00    +0.000 N 
ATOM     25  C   UNL     1      48.751   9.668  14.656  0.00  0.00    +0.000 C 
ATOM     26  C   UNL     1      49.073   8.682  12.326  0.00  0.00    +0.000 C 
ATOM     27  O   UNL     1      49.737   8.606  11.297  0.00  0.00    +0.000 OA
BRANCH  24  29
ATOM     28  C   UNL     1      51.648  10.335  13.781  0.00  0.00    +0.000 C 
ATOM     29  C   UNL     1      50.358  10.650  13.042  0.00  0.00    +0.000 C 
ENDBRANCH  24  29
ENDBRANCH  18  26
ENDBRANCH  16  21
ENDBRANCH   1  16
TORSDOF 7
ENDMDL
MODEL 2
REMARK VINA RESULT:    -6.299      4.033      7.854
REMARK INTER + INTRA:         -10.216
REMARK INTER:                  -8.789
REMARK INTRA:                  -1.427
REMARK UNBOUND:                -1.339
REMARK  Name = 
REMARK  11 active torsions:
REMARK  status: ('A' for Active; 'I' for Inactive)
REMARK    1  A    between atoms: C_1  and  C_2
REMARK    2  A    between atoms: C_2  and  N_3
REMARK    3  A    between atoms: N_3  and  C_4
REMARK    4  A    between atoms: C_5  and  C_7
REMARK    5  A    between atoms: C_10  and  N_11
REMARK    6  A    between atoms: N_11  and  C_12
REMARK    7  A    between atoms: C_12  and  C_13
REMARK    8  A    between atoms: C_13  and  C_14
REMARK    9  A    between atoms: C_13  and  C_15
REMARK   10  A    between atoms: C_13  and  C_16
REMARK   11  A    between atoms: C_20  and  C_21
REMARK                            x       y       z     vdW  Elec       q    Type
REMARK                         _______ _______ _______ _____ _____    ______ ____
ROOT
ATOM      1  C   UNL     1      49.808   7.559  15.915  0.00  0.00    +0.000 C 
ENDROOT
BRANCH   1   2
ATOM      2  C   UNL     1      49.485   7.172  17.384  0.00  0.00    +0.000 C 
ATOM      3  C   UNL     1      50.791   7.271  18.210  0.00  0.00    +0.000 C 
ATOM      4  C   UNL     1      48.429   8.149  17.942  0.00  0.00    +0.000 C 
BRANCH   2   5
ATOM      5  C   UNL     1      48.951   5.720  17.493  0.00  0.00    +0.000 A 
ATOM      6  C   UNL     1      47.588   5.403  17.652  0.00  0.00    +0.000 A 
ATOM      7  C   UNL     1      47.142   4.077  17.651  0.00  0.00    +0.000 A 
ATOM      8  C   UNL     1      48.047   3.034  17.476  0.00  0.00    +0.000 A 
ATOM      9  C   UNL     1      49.404   3.317  17.322  0.00  0.00    +0.000 A 
ATOM     10  C   UNL     1      49.851   4.644  17.373  0.00  0.00    +0.000 A 
BRANCH   9  11
ATOM     11  C   UNL     1      50.343   2.195  17.067  0.00  0.00    +0.000 C 
ATOM     12  N   UNL     1      51.356   2.015  17.971  0.00  0.00    +0.000 N 
ATOM     13  O   UNL     1      50.256   1.493  16.069  0.00  0.00    +0.000 OA
ATOM     14  H   UNL     1      51.605   2.718  18.650  0.00  0.00    +0.000 HD
ATOM     15  H   UNL     1      52.069   1.344  17.713  0.00  0.00    +0.000 HD
ENDBRANCH   9  11
ENDBRANCH   2   5
ENDBRANCH   1   2
BRANCH   1  16
ATOM     16  N   UNL     1      48.788   8.386  15.261  0.00  0.00    +0.000 N 
ATOM     17  H   UNL     1      48.228   8.964  15.882  0.00  0.00    +0.000 HD
BRANCH  16  21
ATOM     18  C   UNL     1      46.402   6.512  12.311  0.00  0.00    +0.000 A 
ATOM     19  C   UNL     1      46.242   7.867  12.590  0.00  0.00    +0.000 A 
ATOM     20  C   UNL     1      47.057   8.498  13.523  0.00  0.00    +0.000 A 
ATOM     21  C   UNL     1      48.005   7.789  14.266  0.00  0.00    +0.000 A 
ATOM     22  C   UNL     1      48.057   6.399  14.090  0.00  0.00    +0.000 A 
ATOM     23  C   UNL     1      47.275   5.765  13.113  0.00  0.00    +0.000 A 
BRANCH  18  26
ATOM     24  N   UNL     1      44.400   5.206  11.547  0.00  0.00    +0.000 N 
ATOM     25  C   UNL     1      43.673   5.320  12.809  0.00  0.00    +0.000 C 
ATOM     26  C   UNL     1      45.615   5.839  11.240  0.00  0.00    +0.000 C 
ATOM     27  O   UNL     1      46.068   5.874  10.099  0.00  0.00    +0.000 OA
BRANCH  24  29
ATOM     28  C   UNL     1      44.045   3.014  10.465  0.00  0.00    +0.000 C 
ATOM     29  C   UNL     1      43.707   4.495  10.471  0.00  0.00    +0.000 C 
ENDBRANCH  24  29
ENDBRANCH  18  26
ENDBRANCH  16  21
ENDBRANCH   1  16
TORSDOF 7
ENDMDL
MODEL 3
REMARK VINA RESULT:    -6.051      3.393      7.940
REMARK INTER + INTRA:          -9.866
REMARK INTER:                  -8.748
REMARK INTRA:                  -1.118
REMARK UNBOUND:                -1.339
REMARK  Name = 
REMARK  11 active torsions:
REMARK  status: ('A' for Active; 'I' for Inactive)
REMARK    1  A    between atoms: C_1  and  C_2
REMARK    2  A    between atoms: C_2  and  N_3
REMARK    3  A    between atoms: N_3  and  C_4
REMARK    4  A    between atoms: C_5  and  C_7
REMARK    5  A    between atoms: C_10  and  N_11
REMARK    6  A    between atoms: N_11  and  C_12
REMARK    7  A    between atoms: C_12  and  C_13
REMARK    8  A    between atoms: C_13  and  C_14
REMARK    9  A    between atoms: C_13  and  C_15
REMARK   10  A    between atoms: C_13  and  C_16
REMARK   11  A    between atoms: C_20  and  C_21
REMARK                            x       y       z     vdW  Elec       q    Type
REMARK                         _______ _______ _______ _____ _____    ______ ____
ROOT
ATOM      1  C   UNL     1      49.027   8.552  15.174  0.00  0.00    +0.000 C 
ENDROOT
BRANCH   1   2
ATOM      2  C   UNL     1      49.194   8.366  16.706  0.00  0.00    +0.000 C 
ATOM      3  C   UNL     1      50.424   9.187  17.165  0.00  0.00    +0.000 C 
ATOM      4  C   UNL     1      47.923   8.874  17.418  0.00  0.00    +0.000 C 
BRANCH   2   5
ATOM      5  C   UNL     1      49.435   6.881  17.084  0.00  0.00    +0.000 A 
ATOM      6  C   UNL     1      50.443   6.457  17.970  0.00  0.00    +0.000 A 
ATOM      7  C   UNL     1      50.563   5.117  18.354  0.00  0.00    +0.000 A 
ATOM      8  C   UNL     1      49.666   4.168  17.872  0.00  0.00    +0.000 A 
ATOM      9  C   UNL     1      48.659   4.557  16.988  0.00  0.00    +0.000 A 
ATOM     10  C   UNL     1      48.574   5.891  16.569  0.00  0.00    +0.000 A 
BRANCH   9  11
ATOM     11  C   UNL     1      47.671   3.543  16.541  0.00  0.00    +0.000 C 
ATOM     12  N   UNL     1      46.923   2.932  17.512  0.00  0.00    +0.000 N 
ATOM     13  O   UNL     1      47.562   3.220  15.365  0.00  0.00    +0.000 OA
ATOM     14  H   UNL     1      47.162   2.985  18.490  0.00  0.00    +0.000 HD
ATOM     15  H   UNL     1      46.361   2.145  17.212  0.00  0.00    +0.000 HD
ENDBRANCH   9  11
ENDBRANCH   2   5
ENDBRANCH   1   2
BRANCH   1  16
ATOM     16  N   UNL     1      47.658   8.853  14.739  0.00  0.00    +0.000 N 
ATOM     17  H   UNL     1      46.994   9.044  15.484  0.00  0.00    +0.000 HD
BRANCH  16  21
ATOM     18  C   UNL     1      45.976   6.329  11.788  0.00  0.00    +0.000 A 
ATOM     19  C   UNL     1      45.351   7.525  12.131  0.00  0.00    +0.000 A 
ATOM     20  C   UNL     1      45.926   8.381  13.065  0.00  0.00    +0.000 A 
ATOM     21  C   UNL     1      47.099   8.042  13.744  0.00  0.00    +0.000 A 
ATOM     22  C   UNL     1      47.641   6.771  13.506  0.00  0.00    +0.000 A 
ATOM     23  C   UNL     1      47.096   5.926  12.527  0.00  0.00    +0.000 A 
BRANCH  18  26
ATOM     24  N   UNL     1      44.478   4.469  11.018  0.00  0.00    +0.000 N 
ATOM     25  C   UNL     1      43.751   4.349  12.279  0.00  0.00    +0.000 C 
ATOM     26  C   UNL     1      45.436   5.449  10.713  0.00  0.00    +0.000 C 
ATOM     27  O   UNL     1      45.856   5.626   9.573  0.00  0.00    +0.000 OA
BRANCH  24  29
ATOM     28  C   UNL     1      44.999   2.422   9.737  0.00  0.00    +0.000 C 
ATOM     29  C   UNL     1      44.039   3.582   9.938  0.00  0.00    +0.000 C 
ENDBRANCH  24  29
ENDBRANCH  18  26
ENDBRANCH  16  21
ENDBRANCH   1  16
TORSDOF 7
ENDMDL
MODEL 4
REMARK VINA RESULT:    -5.840      3.732      4.527
REMARK INTER + INTRA:          -9.568
REMARK INTER:                  -8.727
REMARK INTRA:                  -0.841
REMARK UNBOUND:                -1.339
REMARK  Name = 
REMARK  11 active torsions:
REMARK  status: ('A' for Active; 'I' for Inactive)
REMARK    1  A    between atoms: C_1  and  C_2
REMARK    2  A    between atoms: C_2  and  N_3
REMARK    3  A    between atoms: N_3  and  C_4
REMARK    4  A    between atoms: C_5  and  C_7
REMARK    5  A    between atoms: C_10  and  N_11
REMARK    6  A    between atoms: N_11  and  C_12
REMARK    7  A    between atoms: C_12  and  C_13
REMARK    8  A    between atoms: C_13  and  C_14
REMARK    9  A    between atoms: C_13  and  C_15
REMARK   10  A    between atoms: C_13  and  C_16
REMARK   11  A    between atoms: C_20  and  C_21
REMARK                            x       y       z     vdW  Elec       q    Type
REMARK                         _______ _______ _______ _____ _____    ______ ____
ROOT
ATOM      1  C   UNL     1      44.878   5.394  13.105  0.00  0.00    +0.000 C 
ENDROOT
BRANCH   1   2
ATOM      2  C   UNL     1      44.185   5.546  11.724  0.00  0.00    +0.000 C 
ATOM      3  C   UNL     1      42.657   5.633  11.954  0.00  0.00    +0.000 C 
ATOM      4  C   UNL     1      44.693   6.834  11.044  0.00  0.00    +0.000 C 
BRANCH   2   5
ATOM      5  C   UNL     1      44.468   4.332  10.800  0.00  0.00    +0.000 A 
ATOM      6  C   UNL     1      43.877   3.066  10.976  0.00  0.00    +0.000 A 
ATOM      7  C   UNL     1      44.089   2.027  10.064  0.00  0.00    +0.000 A 
ATOM      8  C   UNL     1      44.887   2.234   8.941  0.00  0.00    +0.000 A 
ATOM      9  C   UNL     1      45.490   3.476   8.742  0.00  0.00    +0.000 A 
ATOM     10  C   UNL     1      45.314   4.497   9.686  0.00  0.00    +0.000 A 
BRANCH   9  11
ATOM     11  C   UNL     1      46.279   3.696   7.505  0.00  0.00    +0.000 C 
ATOM     12  N   UNL     1      46.385   2.641   6.639  0.00  0.00    +0.000 N 
ATOM     13  O   UNL     1      46.860   4.751   7.286  0.00  0.00    +0.000 OA
ATOM     14  H   UNL     1      46.142   1.698   6.904  0.00  0.00    +0.000 HD
ATOM     15  H   UNL     1      47.040   2.755   5.875  0.00  0.00    +0.000 HD
ENDBRANCH   9  11
ENDBRANCH   2   5
ENDBRANCH   1   2
BRANCH   1  16
ATOM     16  N   UNL     1      46.339   5.270  13.048  0.00  0.00    +0.000 N 
ATOM     17  H   UNL     1      46.696   4.603  12.369  0.00  0.00    +0.000 HD
BRANCH  16  21
ATOM     18  C   UNL     1      48.463   4.949  16.694  0.00  0.00    +0.000 A 
ATOM     19  C   UNL     1      48.655   6.049  15.861  0.00  0.00    +0.000 A 
ATOM     20  C   UNL     1      47.924   6.182  14.686  0.00  0.00    +0.000 A 
ATOM     21  C   UNL     1      47.034   5.192  14.261  0.00  0.00    +0.000 A 
ATOM     22  C   UNL     1      46.957   4.020  15.025  0.00  0.00    +0.000 A 
ATOM     23  C   UNL     1      47.652   3.901  16.238  0.00  0.00    +0.000 A 
BRANCH  18  26
ATOM     24  N   UNL     1      48.588   5.415  19.156  0.00  0.00    +0.000 N 
ATOM     25  C   UNL     1      47.232   5.948  19.263  0.00  0.00    +0.000 C 
ATOM     26  C   UNL     1      49.155   4.837  18.009  0.00  0.00    +0.000 C 
ATOM     27  O   UNL     1      50.216   4.221  18.039  0.00  0.00    +0.000 OA
BRANCH  24  29
ATOM     28  C   UNL     1      50.339   6.485  20.531  0.00  0.00    +0.000 C 
ATOM     29  C   UNL     1      49.348   5.341  20.406  0.00  0.00    +0.000 C 
ENDBRANCH  24  29
ENDBRANCH  18  26
ENDBRANCH  16  21
ENDBRANCH   1  16
TORSDOF 7
ENDMDL
MODEL 5
REMARK VINA RESULT:    -5.792      2.112      2.468
REMARK INTER + INTRA:          -9.501
REMARK INTER:                  -8.628
REMARK INTRA:                  -0.873
REMARK UNBOUND:                -1.339
REMARK  Name = 
REMARK  11 active torsions:
REMARK  status: ('A' for Active; 'I' for Inactive)
REMARK    1  A    between atoms: C_1  and  C_2
REMARK    2  A    between atoms: C_2  and  N_3
REMARK    3  A    between atoms: N_3  and  C_4
REMARK    4  A    between atoms: C_5  and  C_7
REMARK    5  A    between atoms: C_10  and  N_11
REMARK    6  A    between atoms: N_11  and  C_12
REMARK    7  A    between atoms: C_12  and  C_13
REMARK    8  A    between atoms: C_13  and  C_14
REMARK    9  A    between atoms: C_13  and  C_15
REMARK   10  A    between atoms: C_13  and  C_16
REMARK   11  A    between atoms: C_20  and  C_21
REMARK                            x       y       z     vdW  Elec       q    Type
REMARK                         _______ _______ _______ _____ _____    ______ ____
ROOT
ATOM      1  C   UNL     1      44.526   4.747  13.014  0.00  0.00    +0.000 C 
ENDROOT
BRANCH   1   2
ATOM      2  C   UNL     1      43.759   4.144  11.806  0.00  0.00    +0.000 C 
ATOM      3  C   UNL     1      43.438   2.663  12.123  0.00  0.00    +0.000 C 
ATOM      4  C   UNL     1      42.452   4.936  11.592  0.00  0.00    +0.000 C 
BRANCH   2   5
ATOM      5  C   UNL     1      44.605   4.190  10.506  0.00  0.00    +0.000 A 
ATOM      6  C   UNL     1      45.167   5.370   9.985  0.00  0.00    +0.000 A 
ATOM      7  C   UNL     1      46.001   5.349   8.862  0.00  0.00    +0.000 A 
ATOM      8  C   UNL     1      46.307   4.141   8.240  0.00  0.00    +0.000 A 
ATOM      9  C   UNL     1      45.761   2.955   8.731  0.00  0.00    +0.000 A 
ATOM     10  C   UNL     1      44.887   2.989   9.825  0.00  0.00    +0.000 A 
BRANCH   9  11
ATOM     11  C   UNL     1      46.154   1.672   8.096  0.00  0.00    +0.000 C 
ATOM     12  N   UNL     1      46.987   1.744   7.012  0.00  0.00    +0.000 N 
ATOM     13  O   UNL     1      45.714   0.597   8.482  0.00  0.00    +0.000 OA
ATOM     14  H   UNL     1      47.158   2.607   6.518  0.00  0.00    +0.000 HD
ATOM     15  H   UNL     1      47.131   0.881   6.502  0.00  0.00    +0.000 HD
ENDBRANCH   9  11
ENDBRANCH   2   5
ENDBRANCH   1   2
BRANCH   1  16
ATOM     16  N   UNL     1      45.805   4.095  13.316  0.00  0.00    +0.000 N 
ATOM     17  H   UNL     1      45.740   3.137  13.652  0.00  0.00    +0.000 HD
BRANCH  16  21
ATOM     18  C   UNL     1      48.720   6.236  15.513  0.00  0.00    +0.000 A 
ATOM     19  C   UNL     1      48.482   6.540  14.175  0.00  0.00    +0.000 A 
ATOM     20  C   UNL     1      47.492   5.872  13.463  0.00  0.00    +0.000 A 
ATOM     21  C   UNL     1      46.757   4.829  14.033  0.00  0.00    +0.000 A 
ATOM     22  C   UNL     1      47.104   4.427  15.330  0.00  0.00    +0.000 A 
ATOM     23  C   UNL     1      48.065   5.130  16.072  0.00  0.00    +0.000 A 
BRANCH  18  26
ATOM     24  N   UNL     1      49.457   8.360  16.627  0.00  0.00    +0.000 N 
ATOM     25  C   UNL     1      48.197   9.069  16.415  0.00  0.00    +0.000 C 
ATOM     26  C   UNL     1      49.699   7.010  16.326  0.00  0.00    +0.000 C 
ATOM     27  O   UNL     1      50.702   6.419  16.717  0.00  0.00    +0.000 OA
BRANCH  24  29
ATOM     28  C   UNL     1      51.404   9.867  16.431  0.00  0.00    +0.000 C 
ATOM     29  C   UNL     1      50.489   9.093  17.364  0.00  0.00    +0.000 C 
ENDBRANCH  24  29
ENDBRANCH  18  26
ENDBRANCH  16  21
ENDBRANCH   1  16
TORSDOF 7
ENDMDL
MODEL 6
REMARK VINA RESULT:    -5.770      3.728      8.200
REMARK INTER + INTRA:          -9.470
REMARK INTER:                  -8.152
REMARK INTRA:                  -1.318
REMARK UNBOUND:                -1.339
REMARK  Name = 
REMARK  11 active torsions:
REMARK  status: ('A' for Active; 'I' for Inactive)
REMARK    1  A    between atoms: C_1  and  C_2
REMARK    2  A    between atoms: C_2  and  N_3
REMARK    3  A    between atoms: N_3  and  C_4
REMARK    4  A    between atoms: C_5  and  C_7
REMARK    5  A    between atoms: C_10  and  N_11
REMARK    6  A    between atoms: N_11  and  C_12
REMARK    7  A    between atoms: C_12  and  C_13
REMARK    8  A    between atoms: C_13  and  C_14
REMARK    9  A    between atoms: C_13  and  C_15
REMARK   10  A    between atoms: C_13  and  C_16
REMARK   11  A    between atoms: C_20  and  C_21
REMARK                            x       y       z     vdW  Elec       q    Type
REMARK                         _______ _______ _______ _____ _____    ______ ____
ROOT
ATOM      1  C   UNL     1      49.896   7.966  15.392  0.00  0.00    +0.000 C 
ENDROOT
BRANCH   1   2
ATOM      2  C   UNL     1      50.137   7.981  16.926  0.00  0.00    +0.000 C 
ATOM      3  C   UNL     1      51.547   7.405  17.202  0.00  0.00    +0.000 C 
ATOM      4  C   UNL     1      50.049   9.434  17.437  0.00  0.00    +0.000 C 
BRANCH   2   5
ATOM      5  C   UNL     1      49.100   7.108  17.681  0.00  0.00    +0.000 A 
ATOM      6  C   UNL     1      48.261   7.602  18.698  0.00  0.00    +0.000 A 
ATOM      7  C   UNL     1      47.276   6.802  19.286  0.00  0.00    +0.000 A 
ATOM      8  C   UNL     1      47.095   5.488  18.860  0.00  0.00    +0.000 A 
ATOM      9  C   UNL     1      47.915   4.969  17.858  0.00  0.00    +0.000 A 
ATOM     10  C   UNL     1      48.932   5.760  17.308  0.00  0.00    +0.000 A 
BRANCH   9  11
ATOM     11  C   UNL     1      47.661   3.589  17.371  0.00  0.00    +0.000 C 
ATOM     12  N   UNL     1      48.755   2.828  17.061  0.00  0.00    +0.000 N 
ATOM     13  O   UNL     1      46.527   3.163  17.198  0.00  0.00    +0.000 OA
ATOM     14  H   UNL     1      49.676   3.226  16.947  0.00  0.00    +0.000 HD
ATOM     15  H   UNL     1      48.569   1.948  16.596  0.00  0.00    +0.000 HD
ENDBRANCH   9  11
ENDBRANCH   2   5
ENDBRANCH   1   2
BRANCH   1  16
ATOM     16  N   UNL     1      48.651   8.611  14.961  0.00  0.00    +0.000 N 
ATOM     17  H   UNL     1      48.090   9.020  15.704  0.00  0.00    +0.000 HD
BRANCH  16  21
ATOM     18  C   UNL     1      46.240   6.502  12.196  0.00  0.00    +0.000 A 
ATOM     19  C   UNL     1      45.997   7.848  12.459  0.00  0.00    +0.000 A 
ATOM     20  C   UNL     1      46.817   8.558  13.330  0.00  0.00    +0.000 A 
ATOM     21  C   UNL     1      47.857   7.936  14.026  0.00  0.00    +0.000 A 
ATOM     22  C   UNL     1      48.001   6.550  13.873  0.00  0.00    +0.000 A 
ATOM     23  C   UNL     1      47.212   5.839  12.957  0.00  0.00    +0.000 A 
BRANCH  18  26
ATOM     24  N   UNL     1      44.270   5.079  11.570  0.00  0.00    +0.000 N 
ATOM     25  C   UNL     1      43.588   5.218  12.854  0.00  0.00    +0.000 C 
ATOM     26  C   UNL     1      45.443   5.750  11.187  0.00  0.00    +0.000 C 
ATOM     27  O   UNL     1      45.850   5.754  10.028  0.00  0.00    +0.000 OA
BRANCH  24  29
ATOM     28  C   UNL     1      44.014   2.841  10.557  0.00  0.00    +0.000 C 
ATOM     29  C   UNL     1      43.568   4.293  10.552  0.00  0.00    +0.000 C 
ENDBRANCH  24  29
ENDBRANCH  18  26
ENDBRANCH  16  21
ENDBRANCH   1  16
TORSDOF 7
ENDMDL
MODEL 7
REMARK VINA RESULT:    -5.767      1.826      2.601
REMARK INTER + INTRA:          -9.466
REMARK INTER:                  -8.366
REMARK INTRA:                  -1.100
REMARK UNBOUND:                -1.339
REMARK  Name = 
REMARK  11 active torsions:
REMARK  status: ('A' for Active; 'I' for Inactive)
REMARK    1  A    between atoms: C_1  and  C_2
REMARK    2  A    between atoms: C_2  and  N_3
REMARK    3  A    between atoms: N_3  and  C_4
REMARK    4  A    between atoms: C_5  and  C_7
REMARK    5  A    between atoms: C_10  and  N_11
REMARK    6  A    between atoms: N_11  and  C_12
REMARK    7  A    between atoms: C_12  and  C_13
REMARK    8  A    between atoms: C_13  and  C_14
REMARK    9  A    between atoms: C_13  and  C_15
REMARK   10  A    between atoms: C_13  and  C_16
REMARK   11  A    between atoms: C_20  and  C_21
REMARK                            x       y       z     vdW  Elec       q    Type
REMARK                         _______ _______ _______ _____ _____    ______ ____
ROOT
ATOM      1  C   UNL     1      44.720   6.736  11.201  0.00  0.00    +0.000 C 
ENDROOT
BRANCH   1   2
ATOM      2  C   UNL     1      44.072   5.408  11.677  0.00  0.00    +0.000 C 
ATOM      3  C   UNL     1      44.618   5.080  13.089  0.00  0.00    +0.000 C 
ATOM      4  C   UNL     1      42.540   5.583  11.729  0.00  0.00    +0.000 C 
BRANCH   2   5
ATOM      5  C   UNL     1      44.422   4.226  10.736  0.00  0.00    +0.000 A 
ATOM      6  C   UNL     1      43.878   2.934  10.873  0.00  0.00    +0.000 A 
ATOM      7  C   UNL     1      44.150   1.924   9.944  0.00  0.00    +0.000 A 
ATOM      8  C   UNL     1      44.962   2.185   8.844  0.00  0.00    +0.000 A 
ATOM      9  C   UNL     1      45.520   3.454   8.684  0.00  0.00    +0.000 A 
ATOM     10  C   UNL     1      45.284   4.447   9.643  0.00  0.00    +0.000 A 
BRANCH   9  11
ATOM     11  C   UNL     1      46.326   3.731   7.468  0.00  0.00    +0.000 C 
ATOM     12  N   UNL     1      46.376   2.746   6.518  0.00  0.00    +0.000 N 
ATOM     13  O   UNL     1      46.965   4.766   7.337  0.00  0.00    +0.000 OA
ATOM     14  H   UNL     1      46.079   1.800   6.704  0.00  0.00    +0.000 HD
ATOM     15  H   UNL     1      47.039   2.886   5.766  0.00  0.00    +0.000 HD
ENDBRANCH   9  11
ENDBRANCH   2   5
ENDBRANCH   1   2
BRANCH   1  16
ATOM     16  N   UNL     1      45.259   7.576  12.276  0.00  0.00    +0.000 N 
ATOM     17  H   UNL     1      44.662   8.344  12.574  0.00  0.00    +0.000 HD
BRANCH  16  21
ATOM     18  C   UNL     1      49.317   8.724  11.920  0.00  0.00    +0.000 A 
ATOM     19  C   UNL     1      48.344   9.665  12.250  0.00  0.00    +0.000 A 
ATOM     20  C   UNL     1      47.017   9.283  12.416  0.00  0.00    +0.000 A 
ATOM     21  C   UNL     1      46.599   7.970  12.185  0.00  0.00    +0.000 A 
ATOM     22  C   UNL     1      47.553   7.061  11.707  0.00  0.00    +0.000 A 
ATOM     23  C   UNL     1      48.903   7.427  11.588  0.00  0.00    +0.000 A 
BRANCH  18  26
ATOM     24  N   UNL     1      51.569   9.014  12.987  0.00  0.00    +0.000 N 
ATOM     25  C   UNL     1      51.201   8.383  14.253  0.00  0.00    +0.000 C 
ATOM     26  C   UNL     1      50.759   9.089  11.842  0.00  0.00    +0.000 C 
ATOM     27  O   UNL     1      51.196   9.441  10.751  0.00  0.00    +0.000 OA
BRANCH  24  29
ATOM     28  C   UNL     1      53.934   8.302  13.040  0.00  0.00    +0.000 C 
ATOM     29  C   UNL     1      52.960   9.456  12.872  0.00  0.00    +0.000 C 
ENDBRANCH  24  29
ENDBRANCH  18  26
ENDBRANCH  16  21
ENDBRANCH   1  16
TORSDOF 7
ENDMDL
MODEL 8
REMARK VINA RESULT:    -5.651      2.042      2.822
REMARK INTER + INTRA:          -9.302
REMARK INTER:                  -8.222
REMARK INTRA:                  -1.080
REMARK UNBOUND:                -1.339
REMARK  Name = 
REMARK  11 active torsions:
REMARK  status: ('A' for Active; 'I' for Inactive)
REMARK    1  A    between atoms: C_1  and  C_2
REMARK    2  A    between atoms: C_2  and  N_3
REMARK    3  A    between atoms: N_3  and  C_4
REMARK    4  A    between atoms: C_5  and  C_7
REMARK    5  A    between atoms: C_10  and  N_11
REMARK    6  A    between atoms: N_11  and  C_12
REMARK    7  A    between atoms: C_12  and  C_13
REMARK    8  A    between atoms: C_13  and  C_14
REMARK    9  A    between atoms: C_13  and  C_15
REMARK   10  A    between atoms: C_13  and  C_16
REMARK   11  A    between atoms: C_20  and  C_21
REMARK                            x       y       z     vdW  Elec       q    Type
REMARK                         _______ _______ _______ _____ _____    ______ ____
ROOT
ATOM      1  C   UNL     1      45.425   5.604  12.996  0.00  0.00    +0.000 C 
ENDROOT
BRANCH   1   2
ATOM      2  C   UNL     1      44.184   5.375  12.091  0.00  0.00    +0.000 C 
ATOM      3  C   UNL     1      42.993   4.970  12.994  0.00  0.00    +0.000 C 
ATOM      4  C   UNL     1      43.859   6.683  11.340  0.00  0.00    +0.000 C 
BRANCH   2   5
ATOM      5  C   UNL     1      44.421   4.238  11.063  0.00  0.00    +0.000 A 
ATOM      6  C   UNL     1      43.812   2.972  11.149  0.00  0.00    +0.000 A 
ATOM      7  C   UNL     1      43.982   2.010  10.147  0.00  0.00    +0.000 A 
ATOM      8  C   UNL     1      44.755   2.297   9.025  0.00  0.00    +0.000 A 
ATOM      9  C   UNL     1      45.375   3.541   8.914  0.00  0.00    +0.000 A 
ATOM     10  C   UNL     1      45.241   4.482   9.943  0.00  0.00    +0.000 A 
BRANCH   9  11
ATOM     11  C   UNL     1      46.137   3.852   7.678  0.00  0.00    +0.000 C 
ATOM     12  N   UNL     1      46.036   2.959   6.645  0.00  0.00    +0.000 N 
ATOM     13  O   UNL     1      46.868   4.829   7.597  0.00  0.00    +0.000 OA
ATOM     14  H   UNL     1      45.657   2.032   6.767  0.00  0.00    +0.000 HD
ATOM     15  H   UNL     1      46.668   3.104   5.868  0.00  0.00    +0.000 HD
ENDBRANCH   9  11
ENDBRANCH   2   5
ENDBRANCH   1   2
BRANCH   1  16
ATOM     16  N   UNL     1      45.696   7.008  13.322  0.00  0.00    +0.000 N 
ATOM     17  H   UNL     1      44.935   7.656  13.134  0.00  0.00    +0.000 HD
BRANCH  16  21
ATOM     18  C   UNL     1      49.465   8.602  12.245  0.00  0.00    +0.000 A 
ATOM     19  C   UNL     1      48.864   7.623  11.459  0.00  0.00    +0.000 A 
ATOM     20  C   UNL     1      47.604   7.131  11.782  0.00  0.00    +0.000 A 
ATOM     21  C   UNL     1      46.933   7.540  12.937  0.00  0.00    +0.000 A 
ATOM     22  C   UNL     1      47.606   8.412  13.803  0.00  0.00    +0.000 A 
ATOM     23  C   UNL     1      48.855   8.952  13.457  0.00  0.00    +0.000 A 
BRANCH  18  26
ATOM     24  N   UNL     1      50.790  10.336  11.006  0.00  0.00    +0.000 N 
ATOM     25  C   UNL     1      49.632  11.133  10.608  0.00  0.00    +0.000 C 
ATOM     26  C   UNL     1      50.764   9.221  11.860  0.00  0.00    +0.000 C 
ATOM     27  O   UNL     1      51.787   8.724  12.323  0.00  0.00    +0.000 OA
BRANCH  24  29
ATOM     28  C   UNL     1      52.252  10.870   9.089  0.00  0.00    +0.000 C 
ATOM     29  C   UNL     1      52.097  10.857  10.600  0.00  0.00    +0.000 C 
ENDBRANCH  24  29
ENDBRANCH  18  26
ENDBRANCH  16  21
ENDBRANCH   1  16
TORSDOF 7
ENDMDL
MODEL 9
REMARK VINA RESULT:    -5.282      4.851      8.730
REMARK INTER + INTRA:          -8.781
REMARK INTER:                  -8.088
REMARK INTRA:                  -0.694
REMARK UNBOUND:                -1.339
REMARK  Name = 
REMARK  11 active torsions:
REMARK  status: ('A' for Active; 'I' for Inactive)
REMARK    1  A    between atoms: C_1  and  C_2
REMARK    2  A    between atoms: C_2  and  N_3
REMARK    3  A    between atoms: N_3  and  C_4
REMARK    4  A    between atoms: C_5  and  C_7
REMARK    5  A    between atoms: C_10  and  N_11
REMARK    6  A    between atoms: N_11  and  C_12
REMARK    7  A    between atoms: C_12  and  C_13
REMARK    8  A    between atoms: C_13  and  C_14
REMARK    9  A    between atoms: C_13  and  C_15
REMARK   10  A    between atoms: C_13  and  C_16
REMARK   11  A    between atoms: C_20  and  C_21
REMARK                            x       y       z     vdW  Elec       q    Type
REMARK                         _______ _______ _______ _____ _____    ______ ____
ROOT
ATOM      1  C   UNL     1      47.410   4.506  16.264  0.00  0.00    +0.000 C 
ENDROOT
BRANCH   1   2
ATOM      2  C   UNL     1      48.493   4.897  17.306  0.00  0.00    +0.000 C 
ATOM      3  C   UNL     1      49.178   6.201  16.829  0.00  0.00    +0.000 C 
ATOM      4  C   UNL     1      47.817   5.124  18.675  0.00  0.00    +0.000 C 
BRANCH   2   5
ATOM      5  C   UNL     1      49.581   3.801  17.447  0.00  0.00    +0.000 A 
ATOM      6  C   UNL     1      49.444   2.499  16.929  0.00  0.00    +0.000 A 
ATOM      7  C   UNL     1      50.490   1.572  16.998  0.00  0.00    +0.000 A 
ATOM      8  C   UNL     1      51.706   1.930  17.573  0.00  0.00    +0.000 A 
ATOM      9  C   UNL     1      51.869   3.211  18.100  0.00  0.00    +0.000 A 
ATOM     10  C   UNL     1      50.802   4.119  18.072  0.00  0.00    +0.000 A 
BRANCH   9  11
ATOM     11  C   UNL     1      53.196   3.595  18.646  0.00  0.00    +0.000 C 
ATOM     12  N   UNL     1      53.275   3.802  19.997  0.00  0.00    +0.000 N 
ATOM     13  O   UNL     1      54.166   3.774  17.922  0.00  0.00    +0.000 OA
ATOM     14  H   UNL     1      52.456   3.913  20.576  0.00  0.00    +0.000 HD
ATOM     15  H   UNL     1      54.142   4.201  20.336  0.00  0.00    +0.000 HD
ENDBRANCH   9  11
ENDBRANCH   2   5
ENDBRANCH   1   2
BRANCH   1  16
ATOM     16  N   UNL     1      47.201   5.492  15.198  0.00  0.00    +0.000 N 
ATOM     17  H   UNL     1      46.839   6.393  15.499  0.00  0.00    +0.000 HD
BRANCH  16  21
ATOM     18  C   UNL     1      45.306   4.098  11.680  0.00  0.00    +0.000 A 
ATOM     19  C   UNL     1      45.114   5.408  12.112  0.00  0.00    +0.000 A 
ATOM     20  C   UNL     1      45.773   5.885  13.240  0.00  0.00    +0.000 A 
ATOM     21  C   UNL     1      46.583   5.055  14.019  0.00  0.00    +0.000 A 
ATOM     22  C   UNL     1      46.653   3.700  13.667  0.00  0.00    +0.000 A 
ATOM     23  C   UNL     1      46.033   3.225  12.500  0.00  0.00    +0.000 A 
BRANCH  18  26
ATOM     24  N   UNL     1      45.057   4.166   9.184  0.00  0.00    +0.000 N 
ATOM     25  C   UNL     1      46.172   5.084   8.962  0.00  0.00    +0.000 C 
ATOM     26  C   UNL     1      44.696   3.597  10.416  0.00  0.00    +0.000 C 
ATOM     27  O   UNL     1      43.888   2.677  10.504  0.00  0.00    +0.000 OA
BRANCH  24  29
ATOM     28  C   UNL     1      45.338   3.053   6.997  0.00  0.00    +0.000 C 
ATOM     29  C   UNL     1      44.371   3.688   7.982  0.00  0.00    +0.000 C 
ENDBRANCH  24  29
ENDBRANCH  18  26
ENDBRANCH  16  21
ENDBRANCH   1  16
TORSDOF 7
ENDMDL
