MODEL 1
REMARK VINA RESULT:    -8.527      0.000      0.000
REMARK INTER + INTRA:         -13.385
REMARK INTER:                 -12.515
REMARK INTRA:                  -0.870
REMARK UNBOUND:                -0.870
REMARK  Name = 
REMARK  11 active torsions:
REMARK  status: ('A' for Active; 'I' for Inactive)
REMARK    1  A    between atoms: C_1  and  C_2
REMARK    2  A    between atoms: C_4  and  C_5
REMARK    3  A    between atoms: C_5  and  O_6
REMARK    4  A    between atoms: O_6  and  C_7
REMARK    5  A    between atoms: C_12  and  C_13
REMARK    6  A    between atoms: C_13  and  C_14
REMARK    7  A    between atoms: C_13  and  C_15
REMARK    8  A    between atoms: C_13  and  C_16
REMARK    9  A    between atoms: C_16  and  N_17
REMARK   10  A    between atoms: N_17  and  C_18
REMARK   11  A    between atoms: C_21  and  C_22
REMARK                            x       y       z     vdW  Elec       q    Type
REMARK                         _______ _______ _______ _____ _____    ______ ____
ROOT
ATOM      1  C   UNL     1      43.891   4.856  12.229  0.00  0.00    +0.000 C 
ATOM      2  C   UNL     1      43.690   3.411  12.756  0.00  0.00    +0.000 C 
ATOM      3  C   UNL     1      42.675   5.729  12.607  0.00  0.00    +0.000 C 
ENDROOT
BRANCH   1   9
ATOM      4  C   UNL     1      47.168   5.075  14.273  0.00  0.00    +0.000 A 
ATOM      5  C   UNL     1      47.708   6.289  13.887  0.00  0.00    +0.000 A 
ATOM      6  C   UNL     1      46.992   7.111  13.023  0.00  0.00    +0.000 A 
ATOM      7  C   UNL     1      45.756   6.701  12.491  0.00  0.00    +0.000 A 
ATOM      8 CL   UNL     1      44.987   7.874  11.477  0.00  0.00    +0.000 Cl
ATOM      9  C   UNL     1      45.208   5.437  12.808  0.00  0.00    +0.000 A 
ATOM     10  C   UNL     1      45.940   4.672  13.740  0.00  0.00    +0.000 A 
BRANCH   4  11
ATOM     11  O   UNL     1      47.899   4.346  15.171  0.00  0.00    +0.000 OA
BRANCH  11  12
ATOM     12  C   UNL     1      47.210   3.968  16.365  0.00  0.00    +0.000 C 
BRANCH  12  16
ATOM     13  C   UNL     1      50.443   2.048  17.114  0.00  0.00    +0.000 C 
ATOM     14  C   UNL     1      49.486   3.170  17.319  0.00  0.00    +0.000 C 
ATOM     15  C   UNL     1      48.518   3.169  18.477  0.00  0.00    +0.000 C 
ATOM     16  C   UNL     1      48.015   2.937  17.076  0.00  0.00    +0.000 C 
ENDBRANCH  12  16
ENDBRANCH  11  12
ENDBRANCH   4  11
ENDBRANCH   1   9
BRANCH   1  17
ATOM     17  C   UNL     1      43.850   4.686  10.661  0.00  0.00    +0.000 C 
BRANCH  17  18
ATOM     18  N   UNL     1      43.842   3.295  10.164  0.00  0.00    +0.000 N 
ATOM     19  H   UNL     1      42.918   2.908   9.988  0.00  0.00    +0.000 HD
BRANCH  18  20
ATOM     20  C   UNL     1      44.762   3.025   9.131  0.00  0.00    +0.000 A 
ATOM     21  C   UNL     1      45.364   1.768   9.016  0.00  0.00    +0.000 A 
ATOM     22  C   UNL     1      46.300   1.523   8.005  0.00  0.00    +0.000 A 
ATOM     23  C   UNL     1      46.625   2.562   7.141  0.00  0.00    +0.000 A 
ATOM     24  N   UNL     1      46.091   3.808   7.228  0.00  0.00    +0.000 NA
ATOM     25  C   UNL     1      45.198   4.004   8.225  0.00  0.00    +0.000 A 
BRANCH  23  26
ATOM     26  C   UNL     1      47.622   2.363   6.041  0.00  0.00    +0.000 C 
ATOM     27  N   UNL     1      47.532   3.264   5.011  0.00  0.00    +0.000 N 
ATOM     28  O   UNL     1      48.459   1.469   6.054  0.00  0.00    +0.000 OA
ATOM     29  H   UNL     1      46.842   4.006   5.066  0.00  0.00    +0.000 HD
ATOM     30  H   UNL     1      48.187   3.227   4.245  0.00  0.00    +0.000 HD
ENDBRANCH  23  26
ENDBRANCH  18  20
ENDBRANCH  17  18
ENDBRANCH   1  17
TORSDOF 8
ENDMDL
MODEL 2
REMARK VINA RESULT:    -7.593      3.376      8.427
REMARK INTER + INTRA:         -12.015
REMARK INTER:                 -11.113
REMARK INTRA:                  -0.901
REMARK UNBOUND:                -0.870
REMARK  Name = 
REMARK  11 active torsions:
REMARK  status: ('A' for Active; 'I' for Inactive)
REMARK    1  A    between atoms: C_1  and  C_2
REMARK    2  A    between atoms: C_4  and  C_5
REMARK    3  A    between atoms: C_5  and  O_6
REMARK    4  A    between atoms: O_6  and  C_7
REMARK    5  A    between atoms: C_12  and  C_13
REMARK    6  A    between atoms: C_13  and  C_14
REMARK    7  A    between atoms: C_13  and  C_15
REMARK    8  A    between atoms: C_13  and  C_16
REMARK    9  A    between atoms: C_16  and  N_17
REMARK   10  A    between atoms: N_17  and  C_18
REMARK   11  A    between atoms: C_21  and  C_22
REMARK                            x       y       z     vdW  Elec       q    Type
REMARK                         _______ _______ _______ _____ _____    ______ ____
ROOT
ATOM      1  C   UNL     1      45.605   6.151  11.793  0.00  0.00    +0.000 C 
ATOM      2  C   UNL     1      46.947   6.682  11.221  0.00  0.00    +0.000 C 
ATOM      3  C   UNL     1      44.567   7.293  11.846  0.00  0.00    +0.000 C 
ENDROOT
BRANCH   1   9
ATOM      4  C   UNL     1      45.078   3.904   8.689  0.00  0.00    +0.000 A 
ATOM      5  C   UNL     1      44.372   2.823   9.190  0.00  0.00    +0.000 A 
ATOM      6  C   UNL     1      43.972   2.827  10.522  0.00  0.00    +0.000 A 
ATOM      7  C   UNL     1      44.324   3.884  11.381  0.00  0.00    +0.000 A 
ATOM      8 CL   UNL     1      43.696   3.743  12.986  0.00  0.00    +0.000 Cl
ATOM      9  C   UNL     1      45.104   4.970  10.921  0.00  0.00    +0.000 A 
ATOM     10  C   UNL     1      45.426   4.950   9.548  0.00  0.00    +0.000 A 
BRANCH   4  11
ATOM     11  O   UNL     1      45.386   3.860   7.356  0.00  0.00    +0.000 OA
BRANCH  11  12
ATOM     12  C   UNL     1      46.771   4.008   7.037  0.00  0.00    +0.000 C 
BRANCH  12  16
ATOM     13  C   UNL     1      46.817   0.208   7.539  0.00  0.00    +0.000 C 
ATOM     14  C   UNL     1      46.801   1.437   6.699  0.00  0.00    +0.000 C 
ATOM     15  C   UNL     1      48.064   1.963   6.061  0.00  0.00    +0.000 C 
ATOM     16  C   UNL     1      47.448   2.695   7.224  0.00  0.00    +0.000 C 
ENDBRANCH  12  16
ENDBRANCH  11  12
ENDBRANCH   4  11
ENDBRANCH   1   9
BRANCH   1  17
ATOM     17  C   UNL     1      45.957   5.795  13.289  0.00  0.00    +0.000 C 
BRANCH  17  18
ATOM     18  N   UNL     1      47.279   6.252  13.766  0.00  0.00    +0.000 N 
ATOM     19  H   UNL     1      47.417   7.259  13.747  0.00  0.00    +0.000 HD
BRANCH  18  20
ATOM     20  C   UNL     1      47.721   5.653  14.963  0.00  0.00    +0.000 A 
ATOM     21  C   UNL     1      47.228   4.409  15.368  0.00  0.00    +0.000 A 
ATOM     22  C   UNL     1      47.652   3.841  16.576  0.00  0.00    +0.000 A 
ATOM     23  C   UNL     1      48.552   4.553  17.360  0.00  0.00    +0.000 A 
ATOM     24  N   UNL     1      49.038   5.777  17.026  0.00  0.00    +0.000 NA
ATOM     25  C   UNL     1      48.595   6.293  15.855  0.00  0.00    +0.000 A 
BRANCH  23  26
ATOM     26  C   UNL     1      49.041   3.999  18.663  0.00  0.00    +0.000 C 
ATOM     27  N   UNL     1      48.221   3.059  19.232  0.00  0.00    +0.000 N 
ATOM     28  O   UNL     1      50.090   4.352  19.185  0.00  0.00    +0.000 OA
ATOM     29  H   UNL     1      47.378   2.778  18.741  0.00  0.00    +0.000 HD
ATOM     30  H   UNL     1      48.488   2.606  20.093  0.00  0.00    +0.000 HD
ENDBRANCH  23  26
ENDBRANCH  18  20
ENDBRANCH  17  18
ENDBRANCH   1  17
TORSDOF 8
ENDMDL
MODEL 3
REMARK VINA RESULT:    -7.290      2.760      3.653
REMARK INTER + INTRA:         -11.569
REMARK INTER:                 -10.623
REMARK INTRA:                  -0.946
REMARK UNBOUND:                -0.870
REMARK  Name = 
REMARK  11 active torsions:
REMARK  status: ('A' for Active; 'I' for Inactive)
REMARK    1  A    between atoms: C_1  and  C_2
REMARK    2  A    between atoms: C_4  and  C_5
REMARK    3  A    between atoms: C_5  and  O_6
REMARK    4  A    between atoms: O_6  and  C_7
REMARK    5  A    between atoms: C_12  and  C_13
REMARK    6  A    between atoms: C_13  and  C_14
REMARK    7  A    between atoms: C_13  and  C_15
REMARK    8  A    between atoms: C_13  and  C_16
REMARK    9  A    between atoms: C_16  and  N_17
REMARK   10  A    between atoms: N_17  and  C_18
REMARK   11  A    between atoms: C_21  and  C_22
REMARK                            x       y       z     vdW  Elec       q    Type
REMARK                         _______ _______ _______ _____ _____    ______ ____
ROOT
ATOM      1  C   UNL     1      44.349   5.569  12.141  0.00  0.00    +0.000 C 
ATOM      2  C   UNL     1      45.352   4.436  12.482  0.00  0.00    +0.000 C 
ATOM      3  C   UNL     1      43.111   5.472  13.059  0.00  0.00    +0.000 C 
ENDROOT
BRANCH   1   9
ATOM      4  C   UNL     1      47.004   8.194  13.152  0.00  0.00    +0.000 A 
ATOM      5  C   UNL     1      46.552   9.357  12.554  0.00  0.00    +0.000 A 
ATOM      6  C   UNL     1      45.335   9.350  11.880  0.00  0.00    +0.000 A 
ATOM      7  C   UNL     1      44.587   8.165  11.748  0.00  0.00    +0.000 A 
ATOM      8 CL   UNL     1      43.078   8.358  10.924  0.00  0.00    +0.000 Cl
ATOM      9  C   UNL     1      45.054   6.943  12.284  0.00  0.00    +0.000 A 
ATOM     10  C   UNL     1      46.258   7.020  13.015  0.00  0.00    +0.000 A 
BRANCH   4  11
ATOM     11  O   UNL     1      48.178   8.289  13.849  0.00  0.00    +0.000 OA
BRANCH  11  12
ATOM     12  C   UNL     1      49.154   7.287  13.555  0.00  0.00    +0.000 C 
BRANCH  12  16
ATOM     13  C   UNL     1      51.562   7.864  10.629  0.00  0.00    +0.000 C 
ATOM     14  C   UNL     1      50.319   8.140  11.401  0.00  0.00    +0.000 C 
ATOM     15  C   UNL     1      50.224   9.327  12.329  0.00  0.00    +0.000 C 
ATOM     16  C   UNL     1      50.321   7.935  12.896  0.00  0.00    +0.000 C 
ENDBRANCH  12  16
ENDBRANCH  11  12
ENDBRANCH   4  11
ENDBRANCH   1   9
BRANCH   1  17
ATOM     17  C   UNL     1      43.857   5.202  10.687  0.00  0.00    +0.000 C 
BRANCH  17  18
ATOM     18  N   UNL     1      43.837   3.761  10.359  0.00  0.00    +0.000 N 
ATOM     19  H   UNL     1      42.909   3.359  10.254  0.00  0.00    +0.000 HD
BRANCH  18  20
ATOM     20  C   UNL     1      44.731   3.368   9.344  0.00  0.00    +0.000 A 
ATOM     21  C   UNL     1      45.160   2.040   9.239  0.00  0.00    +0.000 A 
ATOM     22  C   UNL     1      46.073   1.670   8.245  0.00  0.00    +0.000 A 
ATOM     23  C   UNL     1      46.551   2.654   7.388  0.00  0.00    +0.000 A 
ATOM     24  N   UNL     1      46.190   3.961   7.466  0.00  0.00    +0.000 NA
ATOM     25  C   UNL     1      45.312   4.278   8.447  0.00  0.00    +0.000 A 
BRANCH  23  26
ATOM     26  C   UNL     1      47.533   2.320   6.307  0.00  0.00    +0.000 C 
ATOM     27  N   UNL     1      47.411   3.071   5.166  0.00  0.00    +0.000 N 
ATOM     28  O   UNL     1      48.384   1.448   6.426  0.00  0.00    +0.000 OA
ATOM     29  H   UNL     1      46.710   3.804   5.132  0.00  0.00    +0.000 HD
ATOM     30  H   UNL     1      48.053   2.938   4.399  0.00  0.00    +0.000 HD
ENDBRANCH  23  26
ENDBRANCH  18  20
ENDBRANCH  17  18
ENDBRANCH   1  17
TORSDOF 8
ENDMDL
MODEL 4
REMARK VINA RESULT:    -7.066      1.671      2.207
REMARK INTER + INTRA:         -11.241
REMARK INTER:                 -10.632
REMARK INTRA:                  -0.610
REMARK UNBOUND:                -0.870
REMARK  Name = 
REMARK  11 active torsions:
REMARK  status: ('A' for Active; 'I' for Inactive)
REMARK    1  A    between atoms: C_1  and  C_2
REMARK    2  A    between atoms: C_4  and  C_5
REMARK    3  A    between atoms: C_5  and  O_6
REMARK    4  A    between atoms: O_6  and  C_7
REMARK    5  A    between atoms: C_12  and  C_13
REMARK    6  A    between atoms: C_13  and  C_14
REMARK    7  A    between atoms: C_13  and  C_15
REMARK    8  A    between atoms: C_13  and  C_16
REMARK    9  A    between atoms: C_16  and  N_17
REMARK   10  A    between atoms: N_17  and  C_18
REMARK   11  A    between atoms: C_21  and  C_22
REMARK                            x       y       z     vdW  Elec       q    Type
REMARK                         _______ _______ _______ _____ _____    ______ ____
ROOT
ATOM      1  C   UNL     1      45.168   5.897  12.171  0.00  0.00    +0.000 C 
ATOM      2  C   UNL     1      45.685   4.440  12.293  0.00  0.00    +0.000 C 
ATOM      3  C   UNL     1      43.824   6.044  12.916  0.00  0.00    +0.000 C 
ENDROOT
BRANCH   1   9
ATOM      4  C   UNL     1      48.438   7.129  13.829  0.00  0.00    +0.000 A 
ATOM      5  C   UNL     1      48.359   8.506  13.714  0.00  0.00    +0.000 A 
ATOM      6  C   UNL     1      47.212   9.082  13.177  0.00  0.00    +0.000 A 
ATOM      7  C   UNL     1      46.158   8.284  12.697  0.00  0.00    +0.000 A 
ATOM      8 CL   UNL     1      44.794   9.173  12.113  0.00  0.00    +0.000 Cl
ATOM      9  C   UNL     1      46.236   6.872  12.732  0.00  0.00    +0.000 A 
ATOM     10  C   UNL     1      47.389   6.341  13.348  0.00  0.00    +0.000 A 
BRANCH   4  11
ATOM     11  O   UNL     1      49.569   6.636  14.422  0.00  0.00    +0.000 OA
BRANCH  11  12
ATOM     12  C   UNL     1      49.648   6.808  15.838  0.00  0.00    +0.000 C 
BRANCH  12  16
ATOM     13  C   UNL     1      47.679   3.717  16.964  0.00  0.00    +0.000 C 
ATOM     14  C   UNL     1      48.684   4.798  17.163  0.00  0.00    +0.000 C 
ATOM     15  C   UNL     1      48.354   6.032  17.967  0.00  0.00    +0.000 C 
ATOM     16  C   UNL     1      48.487   6.123  16.469  0.00  0.00    +0.000 C 
ENDBRANCH  12  16
ENDBRANCH  11  12
ENDBRANCH   4  11
ENDBRANCH   1   9
BRANCH   1  17
ATOM     17  C   UNL     1      44.846   6.048  10.633  0.00  0.00    +0.000 C 
BRANCH  17  18
ATOM     18  N   UNL     1      44.177   4.893  10.000  0.00  0.00    +0.000 N 
ATOM     19  H   UNL     1      43.279   5.099   9.570  0.00  0.00    +0.000 HD
BRANCH  18  20
ATOM     20  C   UNL     1      45.008   4.093   9.190  0.00  0.00    +0.000 A 
ATOM     21  C   UNL     1      45.876   4.671   8.259  0.00  0.00    +0.000 A 
ATOM     22  C   UNL     1      46.672   3.863   7.438  0.00  0.00    +0.000 A 
ATOM     23  C   UNL     1      46.560   2.483   7.563  0.00  0.00    +0.000 A 
ATOM     24  N   UNL     1      45.713   1.872   8.430  0.00  0.00    +0.000 NA
ATOM     25  C   UNL     1      44.954   2.690   9.198  0.00  0.00    +0.000 A 
BRANCH  23  26
ATOM     26  C   UNL     1      47.383   1.566   6.711  0.00  0.00    +0.000 C 
ATOM     27  N   UNL     1      48.444   2.163   6.081  0.00  0.00    +0.000 N 
ATOM     28  O   UNL     1      47.136   0.374   6.585  0.00  0.00    +0.000 OA
ATOM     29  H   UNL     1      48.624   3.149   6.246  0.00  0.00    +0.000 HD
ATOM     30  H   UNL     1      49.073   1.614   5.515  0.00  0.00    +0.000 HD
ENDBRANCH  23  26
ENDBRANCH  18  20
ENDBRANCH  17  18
ENDBRANCH   1  17
TORSDOF 8
ENDMDL
MODEL 5
REMARK VINA RESULT:    -7.030      2.638      4.233
REMARK INTER + INTRA:         -11.188
REMARK INTER:                 -10.073
REMARK INTRA:                  -1.115
REMARK UNBOUND:                -0.870
REMARK  Name = 
REMARK  11 active torsions:
REMARK  status: ('A' for Active; 'I' for Inactive)
REMARK    1  A    between atoms: C_1  and  C_2
REMARK    2  A    between atoms: C_4  and  C_5
REMARK    3  A    between atoms: C_5  and  O_6
REMARK    4  A    between atoms: O_6  and  C_7
REMARK    5  A    between atoms: C_12  and  C_13
REMARK    6  A    between atoms: C_13  and  C_14
REMARK    7  A    between atoms: C_13  and  C_15
REMARK    8  A    between atoms: C_13  and  C_16
REMARK    9  A    between atoms: C_16  and  N_17
REMARK   10  A    between atoms: N_17  and  C_18
REMARK   11  A    between atoms: C_21  and  C_22
REMARK                            x       y       z     vdW  Elec       q    Type
REMARK                         _______ _______ _______ _____ _____    ______ ____
ROOT
ATOM      1  C   UNL     1      44.411   6.530  11.725  0.00  0.00    +0.000 C 
ATOM      2  C   UNL     1      43.270   5.641  12.285  0.00  0.00    +0.000 C 
ATOM      3  C   UNL     1      43.940   7.998  11.638  0.00  0.00    +0.000 C 
ENDROOT
BRANCH   1   9
ATOM      4  C   UNL     1      47.477   7.544  13.854  0.00  0.00    +0.000 A 
ATOM      5  C   UNL     1      47.920   6.340  14.374  0.00  0.00    +0.000 A 
ATOM      6  C   UNL     1      47.297   5.158  13.987  0.00  0.00    +0.000 A 
ATOM      7  C   UNL     1      46.189   5.174  13.121  0.00  0.00    +0.000 A 
ATOM      8 CL   UNL     1      45.578   3.608  12.710  0.00  0.00    +0.000 Cl
ATOM      9  C   UNL     1      45.665   6.391  12.627  0.00  0.00    +0.000 A 
ATOM     10  C   UNL     1      46.374   7.553  12.996  0.00  0.00    +0.000 A 
BRANCH   4  11
ATOM     11  O   UNL     1      48.174   8.659  14.231  0.00  0.00    +0.000 OA
BRANCH  11  12
ATOM     12  C   UNL     1      48.303   9.673  13.233  0.00  0.00    +0.000 C 
BRANCH  12  16
ATOM     13  C   UNL     1      50.986   7.818  11.218  0.00  0.00    +0.000 C 
ATOM     14  C   UNL     1      49.800   8.710  11.347  0.00  0.00    +0.000 C 
ATOM     15  C   UNL     1      49.942  10.211  11.274  0.00  0.00    +0.000 C 
ATOM     16  C   UNL     1      49.642   9.547  12.592  0.00  0.00    +0.000 C 
ENDBRANCH  12  16
ENDBRANCH  11  12
ENDBRANCH   4  11
ENDBRANCH   1   9
BRANCH   1  17
ATOM     17  C   UNL     1      44.578   6.025  10.239  0.00  0.00    +0.000 C 
BRANCH  17  18
ATOM     18  N   UNL     1      43.925   4.738   9.920  0.00  0.00    +0.000 N 
ATOM     19  H   UNL     1      42.998   4.818   9.509  0.00  0.00    +0.000 HD
BRANCH  18  20
ATOM     20  C   UNL     1      44.745   3.800   9.262  0.00  0.00    +0.000 A 
ATOM     21  C   UNL     1      45.660   4.206   8.285  0.00  0.00    +0.000 A 
ATOM     22  C   UNL     1      46.445   3.259   7.617  0.00  0.00    +0.000 A 
ATOM     23  C   UNL     1      46.275   1.917   7.936  0.00  0.00    +0.000 A 
ATOM     24  N   UNL     1      45.381   1.469   8.854  0.00  0.00    +0.000 NA
ATOM     25  C   UNL     1      44.635   2.417   9.470  0.00  0.00    +0.000 A 
BRANCH  23  26
ATOM     26  C   UNL     1      47.084   0.857   7.252  0.00  0.00    +0.000 C 
ATOM     27  N   UNL     1      46.789  -0.427   7.633  0.00  0.00    +0.000 N 
ATOM     28  O   UNL     1      47.941   1.109   6.416  0.00  0.00    +0.000 OA
ATOM     29  H   UNL     1      46.046  -0.582   8.307  0.00  0.00    +0.000 HD
ATOM     30  H   UNL     1      47.260  -1.206   7.199  0.00  0.00    +0.000 HD
ENDBRANCH  23  26
ENDBRANCH  18  20
ENDBRANCH  17  18
ENDBRANCH   1  17
TORSDOF 8
ENDMDL
MODEL 6
REMARK VINA RESULT:    -6.878      3.543      8.030
REMARK INTER + INTRA:         -10.965
REMARK INTER:                 -10.035
REMARK INTRA:                  -0.930
REMARK UNBOUND:                -0.870
REMARK  Name = 
REMARK  11 active torsions:
REMARK  status: ('A' for Active; 'I' for Inactive)
REMARK    1  A    between atoms: C_1  and  C_2
REMARK    2  A    between atoms: C_4  and  C_5
REMARK    3  A    between atoms: C_5  and  O_6
REMARK    4  A    between atoms: O_6  and  C_7
REMARK    5  A    between atoms: C_12  and  C_13
REMARK    6  A    between atoms: C_13  and  C_14
REMARK    7  A    between atoms: C_13  and  C_15
REMARK    8  A    between atoms: C_13  and  C_16
REMARK    9  A    between atoms: C_16  and  N_17
REMARK   10  A    between atoms: N_17  and  C_18
REMARK   11  A    between atoms: C_21  and  C_22
REMARK                            x       y       z     vdW  Elec       q    Type
REMARK                         _______ _______ _______ _____ _____    ______ ____
ROOT
ATOM      1  C   UNL     1      47.954   8.394  12.247  0.00  0.00    +0.000 C 
ATOM      2  C   UNL     1      49.125   7.523  11.721  0.00  0.00    +0.000 C 
ATOM      3  C   UNL     1      48.057   9.822  11.669  0.00  0.00    +0.000 C 
ENDROOT
BRANCH   1   9
ATOM      4  C   UNL     1      45.442   5.672  11.130  0.00  0.00    +0.000 A 
ATOM      5  C   UNL     1      44.214   6.299  11.249  0.00  0.00    +0.000 A 
ATOM      6  C   UNL     1      44.164   7.642  11.609  0.00  0.00    +0.000 A 
ATOM      7  C   UNL     1      45.339   8.354  11.911  0.00  0.00    +0.000 A 
ATOM      8 CL   UNL     1      45.088  10.024  12.289  0.00  0.00    +0.000 Cl
ATOM      9  C   UNL     1      46.605   7.727  11.870  0.00  0.00    +0.000 A 
ATOM     10  C   UNL     1      46.605   6.385  11.433  0.00  0.00    +0.000 A 
BRANCH   4  11
ATOM     11  O   UNL     1      45.418   4.369  10.713  0.00  0.00    +0.000 OA
BRANCH  11  12
ATOM     12  C   UNL     1      44.185   3.927  10.142  0.00  0.00    +0.000 C 
BRANCH  12  16
ATOM     13  C   UNL     1      46.131   3.359   6.888  0.00  0.00    +0.000 C 
ATOM     14  C   UNL     1      45.890   3.162   8.344  0.00  0.00    +0.000 C 
ATOM     15  C   UNL     1      45.232   1.907   8.863  0.00  0.00    +0.000 C 
ATOM     16  C   UNL     1      44.477   3.211   8.869  0.00  0.00    +0.000 C 
ENDBRANCH  12  16
ENDBRANCH  11  12
ENDBRANCH   4  11
ENDBRANCH   1   9
BRANCH   1  17
ATOM     17  C   UNL     1      48.248   8.514  13.793  0.00  0.00    +0.000 C 
BRANCH  17  18
ATOM     18  N   UNL     1      49.316   7.635  14.314  0.00  0.00    +0.000 N 
ATOM     19  H   UNL     1      50.148   8.120  14.642  0.00  0.00    +0.000 HD
BRANCH  18  20
ATOM     20  C   UNL     1      48.880   6.624  15.194  0.00  0.00    +0.000 A 
ATOM     21  C   UNL     1      49.419   6.509  16.479  0.00  0.00    +0.000 A 
ATOM     22  C   UNL     1      49.000   5.480  17.331  0.00  0.00    +0.000 A 
ATOM     23  C   UNL     1      48.057   4.575  16.858  0.00  0.00    +0.000 A 
ATOM     24  N   UNL     1      47.525   4.626  15.610  0.00  0.00    +0.000 NA
ATOM     25  C   UNL     1      47.965   5.630  14.816  0.00  0.00    +0.000 A 
BRANCH  23  26
ATOM     26  C   UNL     1      47.572   3.450  17.721  0.00  0.00    +0.000 C 
ATOM     27  N   UNL     1      48.358   3.180  18.811  0.00  0.00    +0.000 N 
ATOM     28  O   UNL     1      46.552   2.818  17.480  0.00  0.00    +0.000 OA
ATOM     29  H   UNL     1      49.176   3.757  18.983  0.00  0.00    +0.000 HD
ATOM     30  H   UNL     1      48.089   2.463  19.467  0.00  0.00    +0.000 HD
ENDBRANCH  23  26
ENDBRANCH  18  20
ENDBRANCH  17  18
ENDBRANCH   1  17
TORSDOF 8
ENDMDL
MODEL 7
REMARK VINA RESULT:    -6.670      3.337      7.828
REMARK INTER + INTRA:         -10.659
REMARK INTER:                  -9.876
REMARK INTRA:                  -0.783
REMARK UNBOUND:                -0.870
REMARK  Name = 
REMARK  11 active torsions:
REMARK  status: ('A' for Active; 'I' for Inactive)
REMARK    1  A    between atoms: C_1  and  C_2
REMARK    2  A    between atoms: C_4  and  C_5
REMARK    3  A    between atoms: C_5  and  O_6
REMARK    4  A    between atoms: O_6  and  C_7
REMARK    5  A    between atoms: C_12  and  C_13
REMARK    6  A    between atoms: C_13  and  C_14
REMARK    7  A    between atoms: C_13  and  C_15
REMARK    8  A    between atoms: C_13  and  C_16
REMARK    9  A    between atoms: C_16  and  N_17
REMARK   10  A    between atoms: N_17  and  C_18
REMARK   11  A    between atoms: C_21  and  C_22
REMARK                            x       y       z     vdW  Elec       q    Type
REMARK                         _______ _______ _______ _____ _____    ______ ____
ROOT
ATOM      1  C   UNL     1      44.138   5.820  11.672  0.00  0.00    +0.000 C 
ATOM      2  C   UNL     1      44.839   7.034  11.006  0.00  0.00    +0.000 C 
ATOM      3  C   UNL     1      42.654   6.151  11.940  0.00  0.00    +0.000 C 
ENDROOT
BRANCH   1   9
ATOM      4  C   UNL     1      44.975   3.687   8.556  0.00  0.00    +0.000 A 
ATOM      5  C   UNL     1      44.731   2.391   8.977  0.00  0.00    +0.000 A 
ATOM      6  C   UNL     1      44.210   2.173  10.248  0.00  0.00    +0.000 A 
ATOM      7  C   UNL     1      43.981   3.245  11.131  0.00  0.00    +0.000 A 
ATOM      8 CL   UNL     1      43.282   2.789  12.646  0.00  0.00    +0.000 Cl
ATOM      9  C   UNL     1      44.285   4.575  10.759  0.00  0.00    +0.000 A 
ATOM     10  C   UNL     1      44.748   4.747   9.438  0.00  0.00    +0.000 A 
BRANCH   4  11
ATOM     11  O   UNL     1      45.430   3.830   7.273  0.00  0.00    +0.000 OA
BRANCH  11  12
ATOM     12  C   UNL     1      46.826   4.106   7.140  0.00  0.00    +0.000 C 
BRANCH  12  16
ATOM     13  C   UNL     1      47.080   0.283   7.291  0.00  0.00    +0.000 C 
ATOM     14  C   UNL     1      46.865   1.574   6.580  0.00  0.00    +0.000 C 
ATOM     15  C   UNL     1      47.964   2.205   5.761  0.00  0.00    +0.000 C 
ATOM     16  C   UNL     1      47.564   2.814   7.079  0.00  0.00    +0.000 C 
ENDBRANCH  12  16
ENDBRANCH  11  12
ENDBRANCH   4  11
ENDBRANCH   1   9
BRANCH   1  17
ATOM     17  C   UNL     1      44.837   5.720  13.084  0.00  0.00    +0.000 C 
BRANCH  17  18
ATOM     18  N   UNL     1      46.104   4.962  13.122  0.00  0.00    +0.000 N 
ATOM     19  H   UNL     1      46.295   4.402  12.294  0.00  0.00    +0.000 HD
BRANCH  18  20
ATOM     20  C   UNL     1      47.224   5.692  13.568  0.00  0.00    +0.000 A 
ATOM     21  C   UNL     1      47.918   6.542  12.700  0.00  0.00    +0.000 A 
ATOM     22  C   UNL     1      49.048   7.237  13.148  0.00  0.00    +0.000 A 
ATOM     23  C   UNL     1      49.466   7.043  14.460  0.00  0.00    +0.000 A 
ATOM     24  N   UNL     1      48.845   6.208  15.332  0.00  0.00    +0.000 NA
ATOM     25  C   UNL     1      47.762   5.548  14.855  0.00  0.00    +0.000 A 
BRANCH  23  26
ATOM     26  C   UNL     1      50.670   7.756  14.996  0.00  0.00    +0.000 C 
ATOM     27  N   UNL     1      51.437   7.020  15.861  0.00  0.00    +0.000 N 
ATOM     28  O   UNL     1      50.955   8.905  14.687  0.00  0.00    +0.000 OA
ATOM     29  H   UNL     1      51.173   6.059  16.058  0.00  0.00    +0.000 HD
ATOM     30  H   UNL     1      52.286   7.408  16.244  0.00  0.00    +0.000 HD
ENDBRANCH  23  26
ENDBRANCH  18  20
ENDBRANCH  17  18
ENDBRANCH   1  17
TORSDOF 8
ENDMDL
MODEL 8
REMARK VINA RESULT:    -6.597      3.141      8.106
REMARK INTER + INTRA:         -10.552
REMARK INTER:                  -9.830
REMARK INTRA:                  -0.722
REMARK UNBOUND:                -0.870
REMARK  Name = 
REMARK  11 active torsions:
REMARK  status: ('A' for Active; 'I' for Inactive)
REMARK    1  A    between atoms: C_1  and  C_2
REMARK    2  A    between atoms: C_4  and  C_5
REMARK    3  A    between atoms: C_5  and  O_6
REMARK    4  A    between atoms: O_6  and  C_7
REMARK    5  A    between atoms: C_12  and  C_13
REMARK    6  A    between atoms: C_13  and  C_14
REMARK    7  A    between atoms: C_13  and  C_15
REMARK    8  A    between atoms: C_13  and  C_16
REMARK    9  A    between atoms: C_16  and  N_17
REMARK   10  A    between atoms: N_17  and  C_18
REMARK   11  A    between atoms: C_21  and  C_22
REMARK                            x       y       z     vdW  Elec       q    Type
REMARK                         _______ _______ _______ _____ _____    ______ ____
ROOT
ATOM      1  C   UNL     1      44.005   4.337  12.427  0.00  0.00    +0.000 C 
ATOM      2  C   UNL     1      42.818   5.333  12.487  0.00  0.00    +0.000 C 
ATOM      3  C   UNL     1      43.504   2.903  12.706  0.00  0.00    +0.000 C 
ENDROOT
BRANCH   1   9
ATOM      4  C   UNL     1      45.166   3.339   8.875  0.00  0.00    +0.000 A 
ATOM      5  C   UNL     1      45.797   4.480   8.410  0.00  0.00    +0.000 A 
ATOM      6  C   UNL     1      45.942   5.574   9.258  0.00  0.00    +0.000 A 
ATOM      7  C   UNL     1      45.407   5.558  10.558  0.00  0.00    +0.000 A 
ATOM      8 CL   UNL     1      45.729   6.984  11.483  0.00  0.00    +0.000 Cl
ATOM      9  C   UNL     1      44.694   4.437  11.041  0.00  0.00    +0.000 A 
ATOM     10  C   UNL     1      44.634   3.331  10.168  0.00  0.00    +0.000 A 
BRANCH   4  11
ATOM     11  O   UNL     1      45.113   2.282   8.009  0.00  0.00    +0.000 OA
BRANCH  11  12
ATOM     12  C   UNL     1      46.157   1.316   8.149  0.00  0.00    +0.000 C 
BRANCH  12  16
ATOM     13  C   UNL     1      47.122   2.602   4.668  0.00  0.00    +0.000 C 
ATOM     14  C   UNL     1      47.200   2.606   6.155  0.00  0.00    +0.000 C 
ATOM     15  C   UNL     1      48.348   1.944   6.878  0.00  0.00    +0.000 C 
ATOM     16  C   UNL     1      46.979   1.317   6.907  0.00  0.00    +0.000 C 
ENDBRANCH  12  16
ENDBRANCH  11  12
ENDBRANCH   4  11
ENDBRANCH   1   9
BRANCH   1  17
ATOM     17  C   UNL     1      44.895   4.749  13.664  0.00  0.00    +0.000 C 
BRANCH  17  18
ATOM     18  N   UNL     1      46.182   4.037  13.797  0.00  0.00    +0.000 N 
ATOM     19  H   UNL     1      46.625   3.784  12.917  0.00  0.00    +0.000 HD
BRANCH  18  20
ATOM     20  C   UNL     1      47.079   4.594  14.729  0.00  0.00    +0.000 A 
ATOM     21  C   UNL     1      47.171   4.087  16.030  0.00  0.00    +0.000 A 
ATOM     22  C   UNL     1      48.044   4.672  16.955  0.00  0.00    +0.000 A 
ATOM     23  C   UNL     1      48.793   5.772  16.552  0.00  0.00    +0.000 A 
ATOM     24  N   UNL     1      48.719   6.319  15.312  0.00  0.00    +0.000 NA
ATOM     25  C   UNL     1      47.856   5.730  14.452  0.00  0.00    +0.000 A 
BRANCH  23  26
ATOM     26  C   UNL     1      49.741   6.442  17.499  0.00  0.00    +0.000 C 
ATOM     27  N   UNL     1      49.276   6.578  18.781  0.00  0.00    +0.000 N 
ATOM     28  O   UNL     1      50.849   6.839  17.161  0.00  0.00    +0.000 OA
ATOM     29  H   UNL     1      48.363   6.202  19.016  0.00  0.00    +0.000 HD
ATOM     30  H   UNL     1      49.862   6.986  19.494  0.00  0.00    +0.000 HD
ENDBRANCH  23  26
ENDBRANCH  18  20
ENDBRANCH  17  18
ENDBRANCH   1  17
TORSDOF 8
ENDMDL
MODEL 9
REMARK VINA RESULT:    -6.186      3.742      5.628
REMARK INTER + INTRA:          -9.949
REMARK INTER:                  -8.395
REMARK INTRA:                  -1.554
REMARK UNBOUND:                -0.870
REMARK  Name = 
REMARK  11 active torsions:
REMARK  status: ('A' for Active; 'I' for Inactive)
REMARK    1  A    between atoms: C_1  and  C_2
REMARK    2  A    between atoms: C_4  and  C_5
REMARK    3  A    between atoms: C_5  and  O_6
REMARK    4  A    between atoms: O_6  and  C_7
REMARK    5  A    between atoms: C_12  and  C_13
REMARK    6  A    between atoms: C_13  and  C_14
REMARK    7  A    between atoms: C_13  and  C_15
REMARK    8  A    between atoms: C_13  and  C_16
REMARK    9  A    between atoms: C_16  and  N_17
REMARK   10  A    between atoms: N_17  and  C_18
REMARK   11  A    between atoms: C_21  and  C_22
REMARK                            x       y       z     vdW  Elec       q    Type
REMARK                         _______ _______ _______ _____ _____    ______ ____
ROOT
ATOM      1  C   UNL     1      49.758   8.489  13.166  0.00  0.00    +0.000 C 
ATOM      2  C   UNL     1      49.907  10.026  13.318  0.00  0.00    +0.000 C 
ATOM      3  C   UNL     1      50.530   8.005  11.920  0.00  0.00    +0.000 C 
ENDROOT
BRANCH   1   9
ATOM      4  C   UNL     1      49.701   6.412  16.428  0.00  0.00    +0.000 A 
ATOM      5  C   UNL     1      51.034   6.353  16.796  0.00  0.00    +0.000 A 
ATOM      6  C   UNL     1      51.979   7.052  16.052  0.00  0.00    +0.000 A 
ATOM      7  C   UNL     1      51.608   7.768  14.900  0.00  0.00    +0.000 A 
ATOM      8 CL   UNL     1      52.908   8.616  14.134  0.00  0.00    +0.000 Cl
ATOM      9  C   UNL     1      50.267   7.792  14.454  0.00  0.00    +0.000 A 
ATOM     10  C   UNL     1      49.339   7.124  15.281  0.00  0.00    +0.000 A 
BRANCH   4  11
ATOM     11  O   UNL     1      48.819   5.752  17.240  0.00  0.00    +0.000 OA
BRANCH  11  12
ATOM     12  C   UNL     1      47.769   5.050  16.570  0.00  0.00    +0.000 C 
BRANCH  12  16
ATOM     13  C   UNL     1      50.107   2.052  17.065  0.00  0.00    +0.000 C 
ATOM     14  C   UNL     1      49.102   3.046  17.535  0.00  0.00    +0.000 C 
ATOM     15  C   UNL     1      47.643   2.681  17.657  0.00  0.00    +0.000 C 
ATOM     16  C   UNL     1      48.100   3.598  16.553  0.00  0.00    +0.000 C 
ENDBRANCH  12  16
ENDBRANCH  11  12
ENDBRANCH   4  11
ENDBRANCH   1   9
BRANCH   1  17
ATOM     17  C   UNL     1      48.224   8.298  12.845  0.00  0.00    +0.000 C 
BRANCH  17  18
ATOM     18  N   UNL     1      47.913   7.486  11.651  0.00  0.00    +0.000 N 
ATOM     19  H   UNL     1      48.724   7.165  11.127  0.00  0.00    +0.000 HD
BRANCH  18  20
ATOM     20  C   UNL     1      46.947   6.480  11.849  0.00  0.00    +0.000 A 
ATOM     21  C   UNL     1      46.938   5.712  13.018  0.00  0.00    +0.000 A 
ATOM     22  C   UNL     1      45.991   4.695  13.188  0.00  0.00    +0.000 A 
ATOM     23  C   UNL     1      45.085   4.459  12.160  0.00  0.00    +0.000 A 
ATOM     24  N   UNL     1      45.071   5.155  10.995  0.00  0.00    +0.000 NA
ATOM     25  C   UNL     1      46.008   6.123  10.868  0.00  0.00    +0.000 A 
BRANCH  23  26
ATOM     26  C   UNL     1      44.051   3.381  12.281  0.00  0.00    +0.000 C 
ATOM     27  N   UNL     1      43.730   2.756  11.104  0.00  0.00    +0.000 N 
ATOM     28  O   UNL     1      43.530   3.074  13.346  0.00  0.00    +0.000 OA
ATOM     29  H   UNL     1      44.216   3.027  10.255  0.00  0.00    +0.000 HD
ATOM     30  H   UNL     1      43.069   1.995  11.097  0.00  0.00    +0.000 HD
ENDBRANCH  23  26
ENDBRANCH  18  20
ENDBRANCH  17  18
ENDBRANCH   1  17
TORSDOF 8
ENDMDL
