MODEL 1
REMARK VINA RESULT:    -7.882      0.000      0.000
REMARK INTER + INTRA:         -11.003
REMARK INTER:                 -10.416
REMARK INTRA:                  -0.587
REMARK UNBOUND:                -0.587
REMARK  Name = 
REMARK  7 active torsions:
REMARK  status: ('A' for Active; 'I' for Inactive)
REMARK    1  A    between atoms: C_1  and  O_2
REMARK    2  A    between atoms: O_2  and  C_3
REMARK    3  A    between atoms: C_5  and  C_6
REMARK    4  A    between atoms: N_13  and  C_14
REMARK    5  A    between atoms: C_14  and  C_15
REMARK    6  A    between atoms: C_18  and  C_19
REMARK    7  A    between atoms: C_19  and  N_20
REMARK                            x       y       z     vdW  Elec       q    Type
REMARK                         _______ _______ _______ _____ _____    ______ ____
ROOT
ATOM      1  C   UNL     1      45.525   4.206  13.157  0.00  0.00    +0.000 A 
ATOM      2  C   UNL     1      46.232   4.007  14.358  0.00  0.00    +0.000 A 
ATOM      3  C   UNL     1      47.275   4.834  14.767  0.00  0.00    +0.000 A 
ATOM      4  C   UNL     1      47.697   5.864  13.923  0.00  0.00    +0.000 A 
ATOM      5  C   UNL     1      47.068   6.041  12.667  0.00  0.00    +0.000 A 
ATOM      6  C   UNL     1      47.299   6.968  11.616  0.00  0.00    +0.000 A 
ATOM      7  C   UNL     1      46.396   6.700  10.619  0.00  0.00    +0.000 A 
ATOM      8  N   UNL     1      45.593   5.649  11.023  0.00  0.00    +0.000 N 
ATOM      9  C   UNL     1      45.987   5.219  12.284  0.00  0.00    +0.000 A 
ENDROOT
BRANCH   3  10
ATOM     10  C   UNL     1      47.852   4.571  16.117  0.00  0.00    +0.000 C 
ATOM     11  N   UNL     1      47.503   5.385  17.157  0.00  0.00    +0.000 N 
ATOM     12  O   UNL     1      48.605   3.626  16.319  0.00  0.00    +0.000 OA
ATOM     13  H   UNL     1      46.827   6.128  17.107  0.00  0.00    +0.000 HD
ATOM     14  H   UNL     1      47.872   5.133  18.065  0.00  0.00    +0.000 HD
ENDBRANCH   3  10
BRANCH   1  16
ATOM     15  C   UNL     1      43.170   4.089  13.186  0.00  0.00    +0.000 C 
ATOM     16  O   UNL     1      44.416   3.453  12.842  0.00  0.00    +0.000 OA
ENDBRANCH   1  16
BRANCH   8  17
ATOM     17  C   UNL     1      44.555   5.090  10.143  0.00  0.00    +0.000 C 
BRANCH  17  18
ATOM     18  C   UNL     1      45.124   4.068   9.181  0.00  0.00    +0.000 A 
ATOM     19  C   UNL     1      44.986   2.689   9.403  0.00  0.00    +0.000 A 
ATOM     20  C   UNL     1      45.696   1.768   8.621  0.00  0.00    +0.000 A 
ATOM     21  C   UNL     1      46.559   2.208   7.607  0.00  0.00    +0.000 A 
ATOM     22  C   UNL     1      46.586   3.575   7.304  0.00  0.00    +0.000 A 
ATOM     23  C   UNL     1      45.869   4.492   8.076  0.00  0.00    +0.000 A 
BRANCH  21  24
ATOM     24  C   UNL     1      47.585   1.261   7.029  0.00  0.00    +0.000 C 
BRANCH  24  25
ATOM     25  N   UNL     1      48.451   1.858   6.019  0.00  0.00    +0.000 NA
ATOM     26  H   UNL     1      49.229   2.319   6.484  0.00  0.00    +0.000 HD
ATOM     27  H   UNL     1      47.930   2.584   5.531  0.00  0.00    +0.000 HD
ENDBRANCH  24  25
ENDBRANCH  21  24
ENDBRANCH  17  18
ENDBRANCH   8  17
TORSDOF 6
ENDMDL
MODEL 2
REMARK VINA RESULT:    -7.663      2.120      2.840
REMARK INTER + INTRA:         -10.714
REMARK INTER:                 -10.064
REMARK INTRA:                  -0.651
REMARK UNBOUND:                -0.587
REMARK  Name = 
REMARK  7 active torsions:
REMARK  status: ('A' for Active; 'I' for Inactive)
REMARK    1  A    between atoms: C_1  and  O_2
REMARK    2  A    between atoms: O_2  and  C_3
REMARK    3  A    between atoms: C_5  and  C_6
REMARK    4  A    between atoms: N_13  and  C_14
REMARK    5  A    between atoms: C_14  and  C_15
REMARK    6  A    between atoms: C_18  and  C_19
REMARK    7  A    between atoms: C_19  and  N_20
REMARK                            x       y       z     vdW  Elec       q    Type
REMARK                         _______ _______ _______ _____ _____    ______ ____
ROOT
ATOM      1  C   UNL     1      45.837   6.897  12.073  0.00  0.00    +0.000 A 
ATOM      2  C   UNL     1      46.536   7.843  12.848  0.00  0.00    +0.000 A 
ATOM      3  C   UNL     1      47.426   7.483  13.856  0.00  0.00    +0.000 A 
ATOM      4  C   UNL     1      47.585   6.132  14.173  0.00  0.00    +0.000 A 
ATOM      5  C   UNL     1      46.832   5.156  13.475  0.00  0.00    +0.000 A 
ATOM      6  C   UNL     1      46.771   3.743  13.597  0.00  0.00    +0.000 A 
ATOM      7  C   UNL     1      45.876   3.283  12.666  0.00  0.00    +0.000 A 
ATOM      8  N   UNL     1      45.392   4.362  11.949  0.00  0.00    +0.000 N 
ATOM      9  C   UNL     1      45.963   5.534  12.429  0.00  0.00    +0.000 A 
ENDROOT
BRANCH   3  10
ATOM     10  C   UNL     1      48.181   8.589  14.512  0.00  0.00    +0.000 C 
ATOM     11  N   UNL     1      47.602   9.263  15.549  0.00  0.00    +0.000 N 
ATOM     12  O   UNL     1      49.317   8.885  14.162  0.00  0.00    +0.000 OA
ATOM     13  H   UNL     1      46.713   9.035  15.961  0.00  0.00    +0.000 HD
ATOM     14  H   UNL     1      48.173   9.965  16.001  0.00  0.00    +0.000 HD
ENDBRANCH   3  10
BRANCH   1  16
ATOM     15  C   UNL     1      44.362   8.519  11.204  0.00  0.00    +0.000 C 
ATOM     16  O   UNL     1      45.065   7.279  10.999  0.00  0.00    +0.000 OA
ENDBRANCH   1  16
BRANCH   8  17
ATOM     17  C   UNL     1      44.367   4.199  10.907  0.00  0.00    +0.000 C 
BRANCH  17  18
ATOM     18  C   UNL     1      44.936   3.569   9.653  0.00  0.00    +0.000 A 
ATOM     19  C   UNL     1      44.936   2.179   9.459  0.00  0.00    +0.000 A 
ATOM     20  C   UNL     1      45.652   1.608   8.399  0.00  0.00    +0.000 A 
ATOM     21  C   UNL     1      46.386   2.414   7.516  0.00  0.00    +0.000 A 
ATOM     22  C   UNL     1      46.270   3.804   7.635  0.00  0.00    +0.000 A 
ATOM     23  C   UNL     1      45.547   4.374   8.685  0.00  0.00    +0.000 A 
BRANCH  21  24
ATOM     24  C   UNL     1      47.435   1.791   6.625  0.00  0.00    +0.000 C 
BRANCH  24  25
ATOM     25  N   UNL     1      48.633   2.604   6.450  0.00  0.00    +0.000 NA
ATOM     26  H   UNL     1      49.411   2.147   6.919  0.00  0.00    +0.000 HD
ATOM     27  H   UNL     1      48.492   3.497   6.920  0.00  0.00    +0.000 HD
ENDBRANCH  24  25
ENDBRANCH  21  24
ENDBRANCH  17  18
ENDBRANCH   8  17
TORSDOF 6
ENDMDL
MODEL 3
REMARK VINA RESULT:    -7.167      2.068      2.650
REMARK INTER + INTRA:         -10.058
REMARK INTER:                  -9.569
REMARK INTRA:                  -0.489
REMARK UNBOUND:                -0.587
REMARK  Name = 
REMARK  7 active torsions:
REMARK  status: ('A' for Active; 'I' for Inactive)
REMARK    1  A    between atoms: C_1  and  O_2
REMARK    2  A    between atoms: O_2  and  C_3
REMARK    3  A    between atoms: C_5  and  C_6
REMARK    4  A    between atoms: N_13  and  C_14
REMARK    5  A    between atoms: C_14  and  C_15
REMARK    6  A    between atoms: C_18  and  C_19
REMARK    7  A    between atoms: C_19  and  N_20
REMARK                            x       y       z     vdW  Elec       q    Type
REMARK                         _______ _______ _______ _____ _____    ______ ____
ROOT
ATOM      1  C   UNL     1      46.272   5.322  12.784  0.00  0.00    +0.000 A 
ATOM      2  C   UNL     1      47.160   6.249  13.360  0.00  0.00    +0.000 A 
ATOM      3  C   UNL     1      46.893   7.614  13.421  0.00  0.00    +0.000 A 
ATOM      4  C   UNL     1      45.732   8.107  12.821  0.00  0.00    +0.000 A 
ATOM      5  C   UNL     1      44.856   7.215  12.154  0.00  0.00    +0.000 A 
ATOM      6  C   UNL     1      43.643   7.432  11.450  0.00  0.00    +0.000 A 
ATOM      7  C   UNL     1      43.199   6.214  11.002  0.00  0.00    +0.000 A 
ATOM      8  N   UNL     1      44.085   5.240  11.423  0.00  0.00    +0.000 N 
ATOM      9  C   UNL     1      45.121   5.829  12.136  0.00  0.00    +0.000 A 
ENDROOT
BRANCH   3  10
ATOM     10  C   UNL     1      47.871   8.458  14.164  0.00  0.00    +0.000 C 
ATOM     11  N   UNL     1      47.445   9.165  15.253  0.00  0.00    +0.000 N 
ATOM     12  O   UNL     1      49.052   8.508  13.840  0.00  0.00    +0.000 OA
ATOM     13  H   UNL     1      46.520   9.118  15.645  0.00  0.00    +0.000 HD
ATOM     14  H   UNL     1      48.155   9.677  15.760  0.00  0.00    +0.000 HD
ENDBRANCH   3  10
BRANCH   1  16
ATOM     15  C   UNL     1      47.115   3.549  14.090  0.00  0.00    +0.000 C 
ATOM     16  O   UNL     1      46.502   3.966  12.855  0.00  0.00    +0.000 OA
ENDBRANCH   1  16
BRANCH   8  17
ATOM     17  C   UNL     1      43.911   3.827  11.052  0.00  0.00    +0.000 C 
BRANCH  17  18
ATOM     18  C   UNL     1      44.660   3.482   9.783  0.00  0.00    +0.000 A 
ATOM     19  C   UNL     1      44.916   2.151   9.416  0.00  0.00    +0.000 A 
ATOM     20  C   UNL     1      45.787   1.860   8.357  0.00  0.00    +0.000 A 
ATOM     21  C   UNL     1      46.422   2.891   7.650  0.00  0.00    +0.000 A 
ATOM     22  C   UNL     1      46.057   4.212   7.934  0.00  0.00    +0.000 A 
ATOM     23  C   UNL     1      45.180   4.503   8.981  0.00  0.00    +0.000 A 
BRANCH  21  24
ATOM     24  C   UNL     1      47.618   2.581   6.781  0.00  0.00    +0.000 C 
BRANCH  24  25
ATOM     25  N   UNL     1      48.046   1.188   6.825  0.00  0.00    +0.000 NA
ATOM     26  H   UNL     1      48.038   0.872   7.792  0.00  0.00    +0.000 HD
ATOM     27  H   UNL     1      49.012   1.133   6.508  0.00  0.00    +0.000 HD
ENDBRANCH  24  25
ENDBRANCH  21  24
ENDBRANCH  17  18
ENDBRANCH   8  17
TORSDOF 6
ENDMDL
MODEL 4
REMARK VINA RESULT:    -6.239      1.926      2.514
REMARK INTER + INTRA:          -8.832
REMARK INTER:                  -8.202
REMARK INTRA:                  -0.630
REMARK UNBOUND:                -0.587
REMARK  Name = 
REMARK  7 active torsions:
REMARK  status: ('A' for Active; 'I' for Inactive)
REMARK    1  A    between atoms: C_1  and  O_2
REMARK    2  A    between atoms: O_2  and  C_3
REMARK    3  A    between atoms: C_5  and  C_6
REMARK    4  A    between atoms: N_13  and  C_14
REMARK    5  A    between atoms: C_14  and  C_15
REMARK    6  A    between atoms: C_18  and  C_19
REMARK    7  A    between atoms: C_19  and  N_20
REMARK                            x       y       z     vdW  Elec       q    Type
REMARK                         _______ _______ _______ _____ _____    ______ ____
ROOT
ATOM      1  C   UNL     1      46.337   5.590  13.460  0.00  0.00    +0.000 A 
ATOM      2  C   UNL     1      47.483   5.847  14.237  0.00  0.00    +0.000 A 
ATOM      3  C   UNL     1      48.018   7.122  14.393  0.00  0.00    +0.000 A 
ATOM      4  C   UNL     1      47.449   8.189  13.695  0.00  0.00    +0.000 A 
ATOM      5  C   UNL     1      46.350   7.955  12.833  0.00  0.00    +0.000 A 
ATOM      6  C   UNL     1      45.601   8.825  11.997  0.00  0.00    +0.000 A 
ATOM      7  C   UNL     1      44.634   8.076  11.378  0.00  0.00    +0.000 A 
ATOM      8  N   UNL     1      44.740   6.769  11.817  0.00  0.00    +0.000 N 
ATOM      9  C   UNL     1      45.794   6.663  12.715  0.00  0.00    +0.000 A 
ENDROOT
BRANCH   3  10
ATOM     10  C   UNL     1      49.163   7.259  15.340  0.00  0.00    +0.000 C 
ATOM     11  N   UNL     1      50.436   7.250  14.846  0.00  0.00    +0.000 N 
ATOM     12  O   UNL     1      48.985   7.409  16.543  0.00  0.00    +0.000 OA
ATOM     13  H   UNL     1      50.676   7.221  13.870  0.00  0.00    +0.000 HD
ATOM     14  H   UNL     1      51.177   7.405  15.517  0.00  0.00    +0.000 HD
ENDBRANCH   3  10
BRANCH   1  16
ATOM     15  C   UNL     1      46.706   3.264  13.348  0.00  0.00    +0.000 C 
ATOM     16  O   UNL     1      45.755   4.342  13.429  0.00  0.00    +0.000 OA
ENDBRANCH   1  16
BRANCH   8  17
ATOM     17  C   UNL     1      43.870   5.706  11.291  0.00  0.00    +0.000 C 
BRANCH  17  18
ATOM     18  C   UNL     1      44.577   4.863  10.251  0.00  0.00    +0.000 A 
ATOM     19  C   UNL     1      45.639   5.371   9.487  0.00  0.00    +0.000 A 
ATOM     20  C   UNL     1      46.136   4.652   8.392  0.00  0.00    +0.000 A 
ATOM     21  C   UNL     1      45.579   3.415   8.037  0.00  0.00    +0.000 A 
ATOM     22  C   UNL     1      44.614   2.855   8.883  0.00  0.00    +0.000 A 
ATOM     23  C   UNL     1      44.127   3.566   9.982  0.00  0.00    +0.000 A 
BRANCH  21  24
ATOM     24  C   UNL     1      45.852   2.831   6.671  0.00  0.00    +0.000 C 
BRANCH  24  25
ATOM     25  N   UNL     1      47.008   3.407   5.993  0.00  0.00    +0.000 NA
ATOM     26  H   UNL     1      46.741   3.658   5.044  0.00  0.00    +0.000 HD
ATOM     27  H   UNL     1      47.729   2.692   5.914  0.00  0.00    +0.000 HD
ENDBRANCH  24  25
ENDBRANCH  21  24
ENDBRANCH  17  18
ENDBRANCH   8  17
TORSDOF 6
ENDMDL
MODEL 5
REMARK VINA RESULT:    -6.175      3.169      6.150
REMARK INTER + INTRA:          -8.748
REMARK INTER:                  -8.068
REMARK INTRA:                  -0.679
REMARK UNBOUND:                -0.587
REMARK  Name = 
REMARK  7 active torsions:
REMARK  status: ('A' for Active; 'I' for Inactive)
REMARK    1  A    between atoms: C_1  and  O_2
REMARK    2  A    between atoms: O_2  and  C_3
REMARK    3  A    between atoms: C_5  and  C_6
REMARK    4  A    between atoms: N_13  and  C_14
REMARK    5  A    between atoms: C_14  and  C_15
REMARK    6  A    between atoms: C_18  and  C_19
REMARK    7  A    between atoms: C_19  and  N_20
REMARK                            x       y       z     vdW  Elec       q    Type
REMARK                         _______ _______ _______ _____ _____    ______ ____
ROOT
ATOM      1  C   UNL     1      46.330   5.149  12.924  0.00  0.00    +0.000 A 
ATOM      2  C   UNL     1      45.594   4.039  12.467  0.00  0.00    +0.000 A 
ATOM      3  C   UNL     1      44.551   4.150  11.552  0.00  0.00    +0.000 A 
ATOM      4  C   UNL     1      44.157   5.418  11.119  0.00  0.00    +0.000 A 
ATOM      5  C   UNL     1      44.816   6.566  11.624  0.00  0.00    +0.000 A 
ATOM      6  C   UNL     1      44.617   7.951  11.386  0.00  0.00    +0.000 A 
ATOM      7  C   UNL     1      45.540   8.638  12.134  0.00  0.00    +0.000 A 
ATOM      8  N   UNL     1      46.323   7.724  12.815  0.00  0.00    +0.000 N 
ATOM      9  C   UNL     1      45.897   6.435  12.521  0.00  0.00    +0.000 A 
ENDROOT
BRANCH   3  10
ATOM     10  C   UNL     1      43.942   2.877  11.070  0.00  0.00    +0.000 C 
ATOM     11  N   UNL     1      44.488   2.248   9.988  0.00  0.00    +0.000 N 
ATOM     12  O   UNL     1      42.984   2.369  11.641  0.00  0.00    +0.000 OA
ATOM     13  H   UNL     1      45.323   2.542   9.511  0.00  0.00    +0.000 HD
ATOM     14  H   UNL     1      44.079   1.359   9.733  0.00  0.00    +0.000 HD
ENDBRANCH   3  10
BRANCH   1  16
ATOM     15  C   UNL     1      47.138   4.462  15.030  0.00  0.00    +0.000 C 
ATOM     16  O   UNL     1      47.438   4.996  13.726  0.00  0.00    +0.000 OA
ENDBRANCH   1  16
BRANCH   8  17
ATOM     17  C   UNL     1      47.375   8.155  13.748  0.00  0.00    +0.000 C 
BRANCH  17  18
ATOM     18  C   UNL     1      48.695   8.382  13.043  0.00  0.00    +0.000 A 
ATOM     19  C   UNL     1      49.040   7.679  11.877  0.00  0.00    +0.000 A 
ATOM     20  C   UNL     1      50.342   7.747  11.364  0.00  0.00    +0.000 A 
ATOM     21  C   UNL     1      51.324   8.514  12.007  0.00  0.00    +0.000 A 
ATOM     22  C   UNL     1      50.938   9.317  13.086  0.00  0.00    +0.000 A 
ATOM     23  C   UNL     1      49.637   9.258  13.592  0.00  0.00    +0.000 A 
BRANCH  21  24
ATOM     24  C   UNL     1      52.783   8.295  11.680  0.00  0.00    +0.000 C 
BRANCH  24  25
ATOM     25  N   UNL     1      53.046   7.104  10.881  0.00  0.00    +0.000 NA
ATOM     26  H   UNL     1      53.911   7.240  10.363  0.00  0.00    +0.000 HD
ATOM     27  H   UNL     1      52.305   7.005  10.189  0.00  0.00    +0.000 HD
ENDBRANCH  24  25
ENDBRANCH  21  24
ENDBRANCH  17  18
ENDBRANCH   8  17
TORSDOF 6
ENDMDL
MODEL 6
REMARK VINA RESULT:    -5.657      3.330      6.326
REMARK INTER + INTRA:          -8.063
REMARK INTER:                  -7.291
REMARK INTRA:                  -0.771
REMARK UNBOUND:                -0.587
REMARK  Name = 
REMARK  7 active torsions:
REMARK  status: ('A' for Active; 'I' for Inactive)
REMARK    1  A    between atoms: C_1  and  O_2
REMARK    2  A    between atoms: O_2  and  C_3
REMARK    3  A    between atoms: C_5  and  C_6
REMARK    4  A    between atoms: N_13  and  C_14
REMARK    5  A    between atoms: C_14  and  C_15
REMARK    6  A    between atoms: C_18  and  C_19
REMARK    7  A    between atoms: C_19  and  N_20
REMARK                            x       y       z     vdW  Elec       q    Type
REMARK                         _______ _______ _______ _____ _____    ______ ____
ROOT
ATOM      1  C   UNL     1      45.694   6.268  11.747  0.00  0.00    +0.000 A 
ATOM      2  C   UNL     1      45.017   5.203  11.123  0.00  0.00    +0.000 A 
ATOM      3  C   UNL     1      44.996   3.912  11.646  0.00  0.00    +0.000 A 
ATOM      4  C   UNL     1      45.735   3.632  12.797  0.00  0.00    +0.000 A 
ATOM      5  C   UNL     1      46.501   4.658  13.404  0.00  0.00    +0.000 A 
ATOM      6  C   UNL     1      47.349   4.657  14.542  0.00  0.00    +0.000 A 
ATOM      7  C   UNL     1      47.843   5.928  14.693  0.00  0.00    +0.000 A 
ATOM      8  N   UNL     1      47.313   6.728  13.698  0.00  0.00    +0.000 N 
ATOM      9  C   UNL     1      46.481   5.970  12.885  0.00  0.00    +0.000 A 
ENDROOT
BRANCH   3  10
ATOM     10  C   UNL     1      44.141   2.915  10.940  0.00  0.00    +0.000 C 
ATOM     11  N   UNL     1      44.643   2.267   9.848  0.00  0.00    +0.000 N 
ATOM     12  O   UNL     1      43.013   2.644  11.334  0.00  0.00    +0.000 OA
ATOM     13  H   UNL     1      45.584   2.358   9.504  0.00  0.00    +0.000 HD
ATOM     14  H   UNL     1      44.050   1.558   9.437  0.00  0.00    +0.000 HD
ENDBRANCH   3  10
BRANCH   1  16
ATOM     15  C   UNL     1      44.259   8.102  11.376  0.00  0.00    +0.000 C 
ATOM     16  O   UNL     1      45.589   7.558  11.278  0.00  0.00    +0.000 OA
ENDBRANCH   1  16
BRANCH   8  17
ATOM     17  C   UNL     1      47.696   8.142  13.560  0.00  0.00    +0.000 C 
BRANCH  17  18
ATOM     18  C   UNL     1      49.026   8.298  12.854  0.00  0.00    +0.000 A 
ATOM     19  C   UNL     1      49.244   7.779  11.568  0.00  0.00    +0.000 A 
ATOM     20  C   UNL     1      50.535   7.747  11.023  0.00  0.00    +0.000 A 
ATOM     21  C   UNL     1      51.631   8.228  11.754  0.00  0.00    +0.000 A 
ATOM     22  C   UNL     1      51.385   8.866  12.976  0.00  0.00    +0.000 A 
ATOM     23  C   UNL     1      50.097   8.908  13.514  0.00  0.00    +0.000 A 
BRANCH  21  24
ATOM     24  C   UNL     1      53.035   7.859  11.335  0.00  0.00    +0.000 C 
BRANCH  24  25
ATOM     25  N   UNL     1      53.884   7.393  12.425  0.00  0.00    +0.000 NA
ATOM     26  H   UNL     1      53.597   7.854  13.285  0.00  0.00    +0.000 HD
ATOM     27  H   UNL     1      54.841   7.687  12.241  0.00  0.00    +0.000 HD
ENDBRANCH  24  25
ENDBRANCH  21  24
ENDBRANCH  17  18
ENDBRANCH   8  17
TORSDOF 6
ENDMDL
MODEL 7
REMARK VINA RESULT:    -5.439      3.990      7.156
REMARK INTER + INTRA:          -7.775
REMARK INTER:                  -7.118
REMARK INTRA:                  -0.657
REMARK UNBOUND:                -0.587
REMARK  Name = 
REMARK  7 active torsions:
REMARK  status: ('A' for Active; 'I' for Inactive)
REMARK    1  A    between atoms: C_1  and  O_2
REMARK    2  A    between atoms: O_2  and  C_3
REMARK    3  A    between atoms: C_5  and  C_6
REMARK    4  A    between atoms: N_13  and  C_14
REMARK    5  A    between atoms: C_14  and  C_15
REMARK    6  A    between atoms: C_18  and  C_19
REMARK    7  A    between atoms: C_19  and  N_20
REMARK                            x       y       z     vdW  Elec       q    Type
REMARK                         _______ _______ _______ _____ _____    ______ ____
ROOT
ATOM      1  C   UNL     1      45.753   7.763  11.757  0.00  0.00    +0.000 A 
ATOM      2  C   UNL     1      44.582   8.488  11.469  0.00  0.00    +0.000 A 
ATOM      3  C   UNL     1      44.527   9.879  11.506  0.00  0.00    +0.000 A 
ATOM      4  C   UNL     1      45.654  10.594  11.917  0.00  0.00    +0.000 A 
ATOM      5  C   UNL     1      46.825   9.895  12.300  0.00  0.00    +0.000 A 
ATOM      6  C   UNL     1      48.084  10.348  12.774  0.00  0.00    +0.000 A 
ATOM      7  C   UNL     1      48.867   9.243  12.993  0.00  0.00    +0.000 A 
ATOM      8  N   UNL     1      48.145   8.115  12.650  0.00  0.00    +0.000 N 
ATOM      9  C   UNL     1      46.877   8.487  12.220  0.00  0.00    +0.000 A 
ENDROOT
BRANCH   3  10
ATOM     10  C   UNL     1      43.252  10.513  11.062  0.00  0.00    +0.000 C 
ATOM     11  N   UNL     1      42.727  10.168   9.850  0.00  0.00    +0.000 N 
ATOM     12  O   UNL     1      42.653  11.311  11.772  0.00  0.00    +0.000 OA
ATOM     13  H   UNL     1      43.100   9.461   9.239  0.00  0.00    +0.000 HD
ATOM     14  H   UNL     1      41.832  10.579   9.616  0.00  0.00    +0.000 HD
ENDBRANCH   3  10
BRANCH   1  16
ATOM     15  C   UNL     1      44.537   5.743  11.712  0.00  0.00    +0.000 C 
ATOM     16  O   UNL     1      45.814   6.398  11.586  0.00  0.00    +0.000 OA
ENDBRANCH   1  16
BRANCH   8  17
ATOM     17  C   UNL     1      48.698   6.763  12.824  0.00  0.00    +0.000 C 
BRANCH  17  18
ATOM     18  C   UNL     1      48.261   6.141  14.134  0.00  0.00    +0.000 A 
ATOM     19  C   UNL     1      48.793   6.561  15.363  0.00  0.00    +0.000 A 
ATOM     20  C   UNL     1      48.536   5.834  16.534  0.00  0.00    +0.000 A 
ATOM     21  C   UNL     1      47.748   4.675  16.497  0.00  0.00    +0.000 A 
ATOM     22  C   UNL     1      47.113   4.343  15.295  0.00  0.00    +0.000 A 
ATOM     23  C   UNL     1      47.359   5.072  14.130  0.00  0.00    +0.000 A 
BRANCH  21  24
ATOM     24  C   UNL     1      47.780   3.707  17.657  0.00  0.00    +0.000 C 
BRANCH  24  25
ATOM     25  N   UNL     1      46.616   2.834  17.742  0.00  0.00    +0.000 NA
ATOM     26  H   UNL     1      45.986   3.195  18.454  0.00  0.00    +0.000 HD
ATOM     27  H   UNL     1      46.919   1.915  18.059  0.00  0.00    +0.000 HD
ENDBRANCH  24  25
ENDBRANCH  21  24
ENDBRANCH  17  18
ENDBRANCH   8  17
TORSDOF 6
ENDMDL
MODEL 8
REMARK VINA RESULT:    -5.418      3.556      7.955
REMARK INTER + INTRA:          -7.747
REMARK INTER:                  -7.104
REMARK INTRA:                  -0.643
REMARK UNBOUND:                -0.587
REMARK  Name = 
REMARK  7 active torsions:
REMARK  status: ('A' for Active; 'I' for Inactive)
REMARK    1  A    between atoms: C_1  and  O_2
REMARK    2  A    between atoms: O_2  and  C_3
REMARK    3  A    between atoms: C_5  and  C_6
REMARK    4  A    between atoms: N_13  and  C_14
REMARK    5  A    between atoms: C_14  and  C_15
REMARK    6  A    between atoms: C_18  and  C_19
REMARK    7  A    between atoms: C_19  and  N_20
REMARK                            x       y       z     vdW  Elec       q    Type
REMARK                         _______ _______ _______ _____ _____    ______ ____
ROOT
ATOM      1  C   UNL     1      47.469   5.289  14.475  0.00  0.00    +0.000 A 
ATOM      2  C   UNL     1      46.247   4.665  14.161  0.00  0.00    +0.000 A 
ATOM      3  C   UNL     1      45.539   4.937  12.993  0.00  0.00    +0.000 A 
ATOM      4  C   UNL     1      46.012   5.923  12.125  0.00  0.00    +0.000 A 
ATOM      5  C   UNL     1      47.192   6.636  12.451  0.00  0.00    +0.000 A 
ATOM      6  C   UNL     1      47.878   7.685  11.785  0.00  0.00    +0.000 A 
ATOM      7  C   UNL     1      48.977   8.008  12.539  0.00  0.00    +0.000 A 
ATOM      8  N   UNL     1      49.012   7.179  13.645  0.00  0.00    +0.000 N 
ATOM      9  C   UNL     1      47.919   6.322  13.619  0.00  0.00    +0.000 A 
ENDROOT
BRANCH   3  10
ATOM     10  C   UNL     1      44.322   4.114  12.738  0.00  0.00    +0.000 C 
ATOM     11  N   UNL     1      44.468   2.787  12.449  0.00  0.00    +0.000 N 
ATOM     12  O   UNL     1      43.197   4.594  12.810  0.00  0.00    +0.000 OA
ATOM     13  H   UNL     1      45.341   2.288  12.454  0.00  0.00    +0.000 HD
ATOM     14  H   UNL     1      43.613   2.256  12.341  0.00  0.00    +0.000 HD
ENDBRANCH   3  10
BRANCH   1  16
ATOM     15  C   UNL     1      47.480   4.087  16.504  0.00  0.00    +0.000 C 
ATOM     16  O   UNL     1      48.210   4.906  15.571  0.00  0.00    +0.000 OA
ENDBRANCH   1  16
BRANCH   8  17
ATOM     17  C   UNL     1      50.049   7.316  14.679  0.00  0.00    +0.000 C 
BRANCH  17  18
ATOM     18  C   UNL     1      49.506   7.956  15.939  0.00  0.00    +0.000 A 
ATOM     19  C   UNL     1      49.805   7.447  17.213  0.00  0.00    +0.000 A 
ATOM     20  C   UNL     1      49.127   7.919  18.345  0.00  0.00    +0.000 A 
ATOM     21  C   UNL     1      48.136   8.905  18.225  0.00  0.00    +0.000 A 
ATOM     22  C   UNL     1      47.942   9.501  16.974  0.00  0.00    +0.000 A 
ATOM     23  C   UNL     1      48.625   9.038  15.847  0.00  0.00    +0.000 A 
BRANCH  21  24
ATOM     24  C   UNL     1      47.167   9.139  19.361  0.00  0.00    +0.000 C 
BRANCH  24  25
ATOM     25  N   UNL     1      47.504   8.433  20.591  0.00  0.00    +0.000 NA
ATOM     26  H   UNL     1      47.938   7.545  20.353  0.00  0.00    +0.000 HD
ATOM     27  H   UNL     1      46.643   8.214  21.088  0.00  0.00    +0.000 HD
ENDBRANCH  24  25
ENDBRANCH  21  24
ENDBRANCH  17  18
ENDBRANCH   8  17
TORSDOF 6
ENDMDL
MODEL 9
REMARK VINA RESULT:    -5.317      3.908      5.580
REMARK INTER + INTRA:          -7.614
REMARK INTER:                  -6.966
REMARK INTRA:                  -0.648
REMARK UNBOUND:                -0.587
REMARK  Name = 
REMARK  7 active torsions:
REMARK  status: ('A' for Active; 'I' for Inactive)
REMARK    1  A    between atoms: C_1  and  O_2
REMARK    2  A    between atoms: O_2  and  C_3
REMARK    3  A    between atoms: C_5  and  C_6
REMARK    4  A    between atoms: N_13  and  C_14
REMARK    5  A    between atoms: C_14  and  C_15
REMARK    6  A    between atoms: C_18  and  C_19
REMARK    7  A    between atoms: C_19  and  N_20
REMARK                            x       y       z     vdW  Elec       q    Type
REMARK                         _______ _______ _______ _____ _____    ______ ____
ROOT
ATOM      1  C   UNL     1      48.573   5.520  16.696  0.00  0.00    +0.000 A 
ATOM      2  C   UNL     1      48.648   5.463  18.100  0.00  0.00    +0.000 A 
ATOM      3  C   UNL     1      48.549   6.593  18.908  0.00  0.00    +0.000 A 
ATOM      4  C   UNL     1      48.446   7.851  18.309  0.00  0.00    +0.000 A 
ATOM      5  C   UNL     1      48.456   7.956  16.897  0.00  0.00    +0.000 A 
ATOM      6  C   UNL     1      48.392   9.080  16.032  0.00  0.00    +0.000 A 
ATOM      7  C   UNL     1      48.434   8.615  14.742  0.00  0.00    +0.000 A 
ATOM      8  N   UNL     1      48.501   7.234  14.773  0.00  0.00    +0.000 N 
ATOM      9  C   UNL     1      48.518   6.798  16.092  0.00  0.00    +0.000 A 
ENDROOT
BRANCH   3  10
ATOM     10  C   UNL     1      48.528   6.366  20.382  0.00  0.00    +0.000 C 
ATOM     11  N   UNL     1      47.706   5.402  20.892  0.00  0.00    +0.000 N 
ATOM     12  O   UNL     1      49.250   7.003  21.139  0.00  0.00    +0.000 OA
ATOM     13  H   UNL     1      47.144   4.773  20.344  0.00  0.00    +0.000 HD
ATOM     14  H   UNL     1      47.768   5.243  21.889  0.00  0.00    +0.000 HD
ENDBRANCH   3  10
BRANCH   1  16
ATOM     15  C   UNL     1      47.910   3.260  16.586  0.00  0.00    +0.000 C 
ATOM     16  O   UNL     1      48.543   4.375  15.931  0.00  0.00    +0.000 OA
ENDBRANCH   1  16
BRANCH   8  17
ATOM     17  C   UNL     1      48.612   6.440  13.540  0.00  0.00    +0.000 C 
BRANCH  17  18
ATOM     18  C   UNL     1      47.253   6.076  12.981  0.00  0.00    +0.000 A 
ATOM     19  C   UNL     1      46.654   6.822  11.954  0.00  0.00    +0.000 A 
ATOM     20  C   UNL     1      45.316   6.599  11.599  0.00  0.00    +0.000 A 
ATOM     21  C   UNL     1      44.552   5.632  12.268  0.00  0.00    +0.000 A 
ATOM     22  C   UNL     1      45.195   4.802  13.194  0.00  0.00    +0.000 A 
ATOM     23  C   UNL     1      46.531   5.016  13.539  0.00  0.00    +0.000 A 
BRANCH  21  24
ATOM     24  C   UNL     1      43.046   5.650  12.149  0.00  0.00    +0.000 C 
BRANCH  24  25
ATOM     25  N   UNL     1      42.526   6.698  11.279  0.00  0.00    +0.000 NA
ATOM     26  H   UNL     1      41.513   6.732  11.374  0.00  0.00    +0.000 HD
ATOM     27  H   UNL     1      42.719   6.445  10.312  0.00  0.00    +0.000 HD
ENDBRANCH  24  25
ENDBRANCH  21  24
ENDBRANCH  17  18
ENDBRANCH   8  17
TORSDOF 6
ENDMDL
