MODEL 1
REMARK VINA RESULT:    -7.078      0.000      0.000
REMARK INTER + INTRA:         -10.631
REMARK INTER:                  -9.767
REMARK INTRA:                  -0.863
REMARK UNBOUND:                -0.863
REMARK  Name = 
REMARK  7 active torsions:
REMARK  status: ('A' for Active; 'I' for Inactive)
REMARK    1  A    between atoms: C_2  and  C_19
REMARK    2  A    between atoms: N_3  and  C_4
REMARK    3  A    between atoms: C_4  and  C_5
REMARK    4  A    between atoms: C_8  and  C_9
REMARK    5  A    between atoms: C_9  and  N_10
REMARK    6  A    between atoms: C_14  and  C_15
REMARK    7  A    between atoms: C_15  and  O_16
REMARK                            x       y       z     vdW  Elec       q    Type
REMARK                         _______ _______ _______ _____ _____    ______ ____
ROOT
ATOM      1  C   UNL     1      47.164   3.400  16.838  0.00  0.00    +0.000 C 
ENDROOT
BRANCH   1   2
ATOM      2  C   UNL     1      48.644   3.430  17.107  0.00  0.00    +0.000 A 
ATOM      3  C   UNL     1      49.259   4.645  17.426  0.00  0.00    +0.000 A 
ATOM      4  C   UNL     1      50.619   4.702  17.722  0.00  0.00    +0.000 A 
ATOM      5  C   UNL     1      51.409   3.546  17.697  0.00  0.00    +0.000 A 
ATOM      6  C   UNL     1      50.804   2.333  17.336  0.00  0.00    +0.000 A 
ATOM      7  C   UNL     1      49.434   2.277  17.035  0.00  0.00    +0.000 A 
BRANCH   5   8
ATOM      8  C   UNL     1      52.897   3.639  17.969  0.00  0.00    +0.000 C 
BRANCH   8   9
ATOM      9  N   UNL     1      53.533   2.587  18.764  0.00  0.00    +0.000 NA
ATOM     10  C   UNL     1      54.173   2.985  20.009  0.00  0.00    +0.000 C 
ATOM     11  C   UNL     1      55.655   2.706  19.853  0.00  0.00    +0.000 C 
ATOM     12  C   UNL     1      55.770   1.686  18.735  0.00  0.00    +0.000 C 
ATOM     13  C   UNL     1      54.414   1.664  18.035  0.00  0.00    +0.000 C 
BRANCH  13  14
ATOM     14  C   UNL     1      53.799   0.251  18.054  0.00  0.00    +0.000 C 
BRANCH  14  15
ATOM     15  O   UNL     1      53.483  -0.174  16.728  0.00  0.00    +0.000 OA
ATOM     16  H   UNL     1      52.874   0.511  16.392  0.00  0.00    +0.000 HD
ENDBRANCH  14  15
ENDBRANCH  13  14
ENDBRANCH   8   9
ENDBRANCH   5   8
ENDBRANCH   1   2
BRANCH   1  19
ATOM     17  O   UNL     1      47.201   3.085  14.043  0.00  0.00    +0.000 OA
ATOM     18  C   UNL     1      46.784   4.140  14.515  0.00  0.00    +0.000 C 
ATOM     19  N   UNL     1      46.771   4.387  15.864  0.00  0.00    +0.000 N 
ATOM     20  H   UNL     1      46.255   5.185  16.219  0.00  0.00    +0.000 HD
BRANCH  18  21
ATOM     21  C   UNL     1      46.323   5.227  13.653  0.00  0.00    +0.000 A 
ATOM     22  C   UNL     1      47.156   6.307  13.389  0.00  0.00    +0.000 A 
ATOM     23  S   UNL     1      46.466   7.464  12.347  0.00  0.00    +0.000 S 
ATOM     24  C   UNL     1      45.042   6.545  12.185  0.00  0.00    +0.000 A 
ATOM     25  N   UNL     1      44.030   6.958  11.373  0.00  0.00    +0.000 NA
ATOM     26  C   UNL     1      43.031   6.145  11.316  0.00  0.00    +0.000 A 
ATOM     27  N   UNL     1      42.937   4.966  12.009  0.00  0.00    +0.000 N 
ATOM     28  C   UNL     1      43.897   4.551  12.909  0.00  0.00    +0.000 A 
ATOM     29  O   UNL     1      43.706   3.577  13.628  0.00  0.00    +0.000 OA
ATOM     30  C   UNL     1      45.073   5.395  12.952  0.00  0.00    +0.000 A 
ATOM     31  H   UNL     1      42.103   4.399  11.953  0.00  0.00    +0.000 HD
ENDBRANCH  18  21
ENDBRANCH   1  19
TORSDOF 7
ENDMDL
MODEL 2
REMARK VINA RESULT:    -6.803      4.005      9.059
REMARK INTER + INTRA:         -10.251
REMARK INTER:                  -8.908
REMARK INTRA:                  -1.343
REMARK UNBOUND:                -0.863
REMARK  Name = 
REMARK  7 active torsions:
REMARK  status: ('A' for Active; 'I' for Inactive)
REMARK    1  A    between atoms: C_2  and  C_19
REMARK    2  A    between atoms: N_3  and  C_4
REMARK    3  A    between atoms: C_4  and  C_5
REMARK    4  A    between atoms: C_8  and  C_9
REMARK    5  A    between atoms: C_9  and  N_10
REMARK    6  A    between atoms: C_14  and  C_15
REMARK    7  A    between atoms: C_15  and  O_16
REMARK                            x       y       z     vdW  Elec       q    Type
REMARK                         _______ _______ _______ _____ _____    ______ ____
ROOT
ATOM      1  C   UNL     1      47.814   8.635  14.252  0.00  0.00    +0.000 C 
ENDROOT
BRANCH   1   2
ATOM      2  C   UNL     1      46.991   7.980  13.176  0.00  0.00    +0.000 A 
ATOM      3  C   UNL     1      47.536   6.920  12.445  0.00  0.00    +0.000 A 
ATOM      4  C   UNL     1      46.786   6.264  11.470  0.00  0.00    +0.000 A 
ATOM      5  C   UNL     1      45.471   6.655  11.190  0.00  0.00    +0.000 A 
ATOM      6  C   UNL     1      44.937   7.746  11.892  0.00  0.00    +0.000 A 
ATOM      7  C   UNL     1      45.694   8.409  12.872  0.00  0.00    +0.000 A 
BRANCH   5   8
ATOM      8  C   UNL     1      44.693   5.964  10.090  0.00  0.00    +0.000 C 
BRANCH   8   9
ATOM      9  N   UNL     1      43.988   4.720  10.403  0.00  0.00    +0.000 NA
ATOM     10  C   UNL     1      42.912   4.790  11.380  0.00  0.00    +0.000 C 
ATOM     11  C   UNL     1      43.339   3.953  12.570  0.00  0.00    +0.000 C 
ATOM     12  C   UNL     1      44.408   3.009  12.051  0.00  0.00    +0.000 C 
ATOM     13  C   UNL     1      44.830   3.549  10.687  0.00  0.00    +0.000 C 
BRANCH  13  14
ATOM     14  C   UNL     1      44.625   2.493   9.582  0.00  0.00    +0.000 C 
BRANCH  14  15
ATOM     15  O   UNL     1      44.178   3.113   8.377  0.00  0.00    +0.000 OA
ATOM     16  H   UNL     1      43.679   3.898   8.676  0.00  0.00    +0.000 HD
ENDBRANCH  14  15
ENDBRANCH  13  14
ENDBRANCH   8   9
ENDBRANCH   5   8
ENDBRANCH   1   2
BRANCH   1  19
ATOM     17  O   UNL     1      50.252   7.315  14.724  0.00  0.00    +0.000 OA
ATOM     18  C   UNL     1      49.330   7.158  15.520  0.00  0.00    +0.000 C 
ATOM     19  N   UNL     1      48.098   7.734  15.340  0.00  0.00    +0.000 N 
ATOM     20  H   UNL     1      47.430   7.729  16.103  0.00  0.00    +0.000 HD
BRANCH  18  21
ATOM     21  C   UNL     1      49.476   6.293  16.690  0.00  0.00    +0.000 A 
ATOM     22  C   UNL     1      50.368   6.633  17.699  0.00  0.00    +0.000 A 
ATOM     23  S   UNL     1      50.389   5.528  18.995  0.00  0.00    +0.000 S 
ATOM     24  C   UNL     1      49.181   4.574  18.269  0.00  0.00    +0.000 A 
ATOM     25  N   UNL     1      48.692   3.467  18.893  0.00  0.00    +0.000 NA
ATOM     26  C   UNL     1      47.754   2.864  18.246  0.00  0.00    +0.000 A 
ATOM     27  N   UNL     1      47.269   3.251  17.022  0.00  0.00    +0.000 N 
ATOM     28  C   UNL     1      47.794   4.312  16.314  0.00  0.00    +0.000 A 
ATOM     29  O   UNL     1      47.447   4.530  15.159  0.00  0.00    +0.000 OA
ATOM     30  C   UNL     1      48.801   5.065  17.033  0.00  0.00    +0.000 A 
ATOM     31  H   UNL     1      46.564   2.704  16.551  0.00  0.00    +0.000 HD
ENDBRANCH  18  21
ENDBRANCH   1  19
TORSDOF 7
ENDMDL
MODEL 3
REMARK VINA RESULT:    -6.646      3.058      9.366
REMARK INTER + INTRA:         -10.035
REMARK INTER:                  -8.906
REMARK INTRA:                  -1.129
REMARK UNBOUND:                -0.863
REMARK  Name = 
REMARK  7 active torsions:
REMARK  status: ('A' for Active; 'I' for Inactive)
REMARK    1  A    between atoms: C_2  and  C_19
REMARK    2  A    between atoms: N_3  and  C_4
REMARK    3  A    between atoms: C_4  and  C_5
REMARK    4  A    between atoms: C_8  and  C_9
REMARK    5  A    between atoms: C_9  and  N_10
REMARK    6  A    between atoms: C_14  and  C_15
REMARK    7  A    between atoms: C_15  and  O_16
REMARK                            x       y       z     vdW  Elec       q    Type
REMARK                         _______ _______ _______ _____ _____    ______ ____
ROOT
ATOM      1  C   UNL     1      48.794   7.401  15.946  0.00  0.00    +0.000 C 
ENDROOT
BRANCH   1   2
ATOM      2  C   UNL     1      48.098   7.028  14.664  0.00  0.00    +0.000 A 
ATOM      3  C   UNL     1      47.778   8.029  13.742  0.00  0.00    +0.000 A 
ATOM      4  C   UNL     1      47.172   7.714  12.527  0.00  0.00    +0.000 A 
ATOM      5  C   UNL     1      46.858   6.389  12.202  0.00  0.00    +0.000 A 
ATOM      6  C   UNL     1      47.139   5.388  13.144  0.00  0.00    +0.000 A 
ATOM      7  C   UNL     1      47.747   5.706  14.369  0.00  0.00    +0.000 A 
BRANCH   5   8
ATOM      8  C   UNL     1      46.150   6.075  10.900  0.00  0.00    +0.000 C 
BRANCH   8   9
ATOM      9  N   UNL     1      44.801   5.511  10.952  0.00  0.00    +0.000 NA
ATOM     10  C   UNL     1      43.840   6.156  11.834  0.00  0.00    +0.000 C 
ATOM     11  C   UNL     1      43.479   5.149  12.909  0.00  0.00    +0.000 C 
ATOM     12  C   UNL     1      43.835   3.788  12.337  0.00  0.00    +0.000 C 
ATOM     13  C   UNL     1      44.712   4.053  11.116  0.00  0.00    +0.000 C 
BRANCH  13  14
ATOM     14  C   UNL     1      44.098   3.433   9.845  0.00  0.00    +0.000 C 
BRANCH  14  15
ATOM     15  O   UNL     1      43.706   4.457   8.931  0.00  0.00    +0.000 OA
ATOM     16  H   UNL     1      42.800   4.695   9.205  0.00  0.00    +0.000 HD
ENDBRANCH  14  15
ENDBRANCH  13  14
ENDBRANCH   8   9
ENDBRANCH   5   8
ENDBRANCH   1   2
BRANCH   1  19
ATOM     17  O   UNL     1      49.588   6.672  18.543  0.00  0.00    +0.000 OA
ATOM     18  C   UNL     1      50.138   6.137  17.584  0.00  0.00    +0.000 C 
ATOM     19  N   UNL     1      49.836   6.466  16.287  0.00  0.00    +0.000 N 
ATOM     20  H   UNL     1      50.174   5.878  15.532  0.00  0.00    +0.000 HD
BRANCH  18  21
ATOM     21  C   UNL     1      51.196   5.145  17.771  0.00  0.00    +0.000 A 
ATOM     22  C   UNL     1      52.448   5.540  18.223  0.00  0.00    +0.000 A 
ATOM     23  S   UNL     1      53.547   4.253  18.407  0.00  0.00    +0.000 S 
ATOM     24  C   UNL     1      52.377   3.116  17.921  0.00  0.00    +0.000 A 
ATOM     25  N   UNL     1      52.659   1.784  17.899  0.00  0.00    +0.000 NA
ATOM     26  C   UNL     1      51.668   1.037  17.549  0.00  0.00    +0.000 A 
ATOM     27  N   UNL     1      50.424   1.496  17.199  0.00  0.00    +0.000 N 
ATOM     28  C   UNL     1      50.119   2.840  17.122  0.00  0.00    +0.000 A 
ATOM     29  O   UNL     1      49.051   3.216  16.653  0.00  0.00    +0.000 OA
ATOM     30  C   UNL     1      51.179   3.715  17.577  0.00  0.00    +0.000 A 
ATOM     31  H   UNL     1      49.707   0.856  16.890  0.00  0.00    +0.000 HD
ENDBRANCH  18  21
ENDBRANCH   1  19
TORSDOF 7
ENDMDL
MODEL 4
REMARK VINA RESULT:    -6.643      2.151      2.876
REMARK INTER + INTRA:         -10.030
REMARK INTER:                  -8.972
REMARK INTRA:                  -1.058
REMARK UNBOUND:                -0.863
REMARK  Name = 
REMARK  7 active torsions:
REMARK  status: ('A' for Active; 'I' for Inactive)
REMARK    1  A    between atoms: C_2  and  C_19
REMARK    2  A    between atoms: N_3  and  C_4
REMARK    3  A    between atoms: C_4  and  C_5
REMARK    4  A    between atoms: C_8  and  C_9
REMARK    5  A    between atoms: C_9  and  N_10
REMARK    6  A    between atoms: C_14  and  C_15
REMARK    7  A    between atoms: C_15  and  O_16
REMARK                            x       y       z     vdW  Elec       q    Type
REMARK                         _______ _______ _______ _____ _____    ______ ____
ROOT
ATOM      1  C   UNL     1      47.268   3.486  16.720  0.00  0.00    +0.000 C 
ENDROOT
BRANCH   1   2
ATOM      2  C   UNL     1      48.725   3.706  17.032  0.00  0.00    +0.000 A 
ATOM      3  C   UNL     1      49.563   2.600  17.203  0.00  0.00    +0.000 A 
ATOM      4  C   UNL     1      50.924   2.767  17.451  0.00  0.00    +0.000 A 
ATOM      5  C   UNL     1      51.487   4.046  17.546  0.00  0.00    +0.000 A 
ATOM      6  C   UNL     1      50.640   5.157  17.418  0.00  0.00    +0.000 A 
ATOM      7  C   UNL     1      49.268   4.988  17.171  0.00  0.00    +0.000 A 
BRANCH   5   8
ATOM      8  C   UNL     1      52.958   4.205  17.870  0.00  0.00    +0.000 C 
BRANCH   8   9
ATOM      9  N   UNL     1      53.336   4.714  19.188  0.00  0.00    +0.000 NA
ATOM     10  C   UNL     1      52.750   4.062  20.350  0.00  0.00    +0.000 C 
ATOM     11  C   UNL     1      51.880   5.092  21.045  0.00  0.00    +0.000 C 
ATOM     12  C   UNL     1      52.383   6.445  20.573  0.00  0.00    +0.000 C 
ATOM     13  C   UNL     1      53.274   6.172  19.364  0.00  0.00    +0.000 C 
BRANCH  13  14
ATOM     14  C   UNL     1      54.698   6.720  19.587  0.00  0.00    +0.000 C 
BRANCH  14  15
ATOM     15  O   UNL     1      54.927   6.964  20.975  0.00  0.00    +0.000 OA
ATOM     16  H   UNL     1      55.776   6.521  21.164  0.00  0.00    +0.000 HD
ENDBRANCH  14  15
ENDBRANCH  13  14
ENDBRANCH   8   9
ENDBRANCH   5   8
ENDBRANCH   1   2
BRANCH   1  19
ATOM     17  O   UNL     1      47.191   3.156  13.928  0.00  0.00    +0.000 OA
ATOM     18  C   UNL     1      46.735   4.187  14.416  0.00  0.00    +0.000 C 
ATOM     19  N   UNL     1      46.771   4.442  15.764  0.00  0.00    +0.000 N 
ATOM     20  H   UNL     1      46.225   5.210  16.140  0.00  0.00    +0.000 HD
BRANCH  18  21
ATOM     21  C   UNL     1      46.168   5.240  13.574  0.00  0.00    +0.000 A 
ATOM     22  C   UNL     1      46.905   6.384  13.299  0.00  0.00    +0.000 A 
ATOM     23  S   UNL     1      46.102   7.489  12.283  0.00  0.00    +0.000 S 
ATOM     24  C   UNL     1      44.752   6.461  12.146  0.00  0.00    +0.000 A 
ATOM     25  N   UNL     1      43.691   6.797  11.362  0.00  0.00    +0.000 NA
ATOM     26  C   UNL     1      42.758   5.908  11.321  0.00  0.00    +0.000 A 
ATOM     27  N   UNL     1      42.775   4.720  12.007  0.00  0.00    +0.000 N 
ATOM     28  C   UNL     1      43.786   4.377  12.881  0.00  0.00    +0.000 A 
ATOM     29  O   UNL     1      43.691   3.387  13.596  0.00  0.00    +0.000 OA
ATOM     30  C   UNL     1      44.892   5.312  12.904  0.00  0.00    +0.000 A 
ATOM     31  H   UNL     1      41.987   4.090  11.966  0.00  0.00    +0.000 HD
ENDBRANCH  18  21
ENDBRANCH   1  19
TORSDOF 7
ENDMDL
MODEL 5
REMARK VINA RESULT:    -6.617      4.222      5.181
REMARK INTER + INTRA:          -9.995
REMARK INTER:                  -8.997
REMARK INTRA:                  -0.999
REMARK UNBOUND:                -0.863
REMARK  Name = 
REMARK  7 active torsions:
REMARK  status: ('A' for Active; 'I' for Inactive)
REMARK    1  A    between atoms: C_2  and  C_19
REMARK    2  A    between atoms: N_3  and  C_4
REMARK    3  A    between atoms: C_4  and  C_5
REMARK    4  A    between atoms: C_8  and  C_9
REMARK    5  A    between atoms: C_9  and  N_10
REMARK    6  A    between atoms: C_14  and  C_15
REMARK    7  A    between atoms: C_15  and  O_16
REMARK                            x       y       z     vdW  Elec       q    Type
REMARK                         _______ _______ _______ _____ _____    ______ ____
ROOT
ATOM      1  C   UNL     1      48.470   7.733  12.341  0.00  0.00    +0.000 C 
ENDROOT
BRANCH   1   2
ATOM      2  C   UNL     1      48.950   7.332  13.710  0.00  0.00    +0.000 A 
ATOM      3  C   UNL     1      48.138   6.527  14.514  0.00  0.00    +0.000 A 
ATOM      4  C   UNL     1      48.569   6.103  15.769  0.00  0.00    +0.000 A 
ATOM      5  C   UNL     1      49.824   6.481  16.263  0.00  0.00    +0.000 A 
ATOM      6  C   UNL     1      50.623   7.324  15.477  0.00  0.00    +0.000 A 
ATOM      7  C   UNL     1      50.187   7.752  14.213  0.00  0.00    +0.000 A 
BRANCH   5   8
ATOM      8  C   UNL     1      50.251   6.053  17.652  0.00  0.00    +0.000 C 
BRANCH   8   9
ATOM      9  N   UNL     1      49.509   6.567  18.804  0.00  0.00    +0.000 NA
ATOM     10  C   UNL     1      50.258   7.317  19.801  0.00  0.00    +0.000 C 
ATOM     11  C   UNL     1      50.205   6.519  21.089  0.00  0.00    +0.000 C 
ATOM     12  C   UNL     1      49.008   5.594  20.954  0.00  0.00    +0.000 C 
ATOM     13  C   UNL     1      48.615   5.615  19.480  0.00  0.00    +0.000 C 
BRANCH  13  14
ATOM     14  C   UNL     1      47.154   6.072  19.299  0.00  0.00    +0.000 C 
BRANCH  14  15
ATOM     15  O   UNL     1      46.471   5.211  18.388  0.00  0.00    +0.000 OA
ATOM     16  H   UNL     1      46.882   5.396  17.523  0.00  0.00    +0.000 HD
ENDBRANCH  14  15
ENDBRANCH  13  14
ENDBRANCH   8   9
ENDBRANCH   5   8
ENDBRANCH   1   2
BRANCH   1  19
ATOM     17  O   UNL     1      45.715   7.853  11.785  0.00  0.00    +0.000 OA
ATOM     18  C   UNL     1      46.344   6.852  11.451  0.00  0.00    +0.000 C 
ATOM     19  N   UNL     1      47.680   6.699  11.721  0.00  0.00    +0.000 N 
ATOM     20  H   UNL     1      48.196   5.950  11.272  0.00  0.00    +0.000 HD
BRANCH  18  21
ATOM     21  C   UNL     1      45.685   5.729  10.786  0.00  0.00    +0.000 A 
ATOM     22  C   UNL     1      45.864   5.525   9.424  0.00  0.00    +0.000 A 
ATOM     23  S   UNL     1      45.045   4.158   8.822  0.00  0.00    +0.000 S 
ATOM     24  C   UNL     1      44.449   3.771  10.370  0.00  0.00    +0.000 A 
ATOM     25  N   UNL     1      43.690   2.659  10.571  0.00  0.00    +0.000 NA
ATOM     26  C   UNL     1      43.341   2.469  11.797  0.00  0.00    +0.000 A 
ATOM     27  N   UNL     1      43.663   3.297  12.842  0.00  0.00    +0.000 N 
ATOM     28  C   UNL     1      44.354   4.479  12.672  0.00  0.00    +0.000 A 
ATOM     29  O   UNL     1      44.483   5.270  13.599  0.00  0.00    +0.000 OA
ATOM     30  C   UNL     1      44.830   4.698  11.322  0.00  0.00    +0.000 A 
ATOM     31  H   UNL     1      43.316   3.111  13.772  0.00  0.00    +0.000 HD
ENDBRANCH  18  21
ENDBRANCH   1  19
TORSDOF 7
ENDMDL
MODEL 6
REMARK VINA RESULT:    -6.436      4.144      9.322
REMARK INTER + INTRA:          -9.745
REMARK INTER:                  -8.635
REMARK INTRA:                  -1.111
REMARK UNBOUND:                -0.863
REMARK  Name = 
REMARK  7 active torsions:
REMARK  status: ('A' for Active; 'I' for Inactive)
REMARK    1  A    between atoms: C_2  and  C_19
REMARK    2  A    between atoms: N_3  and  C_4
REMARK    3  A    between atoms: C_4  and  C_5
REMARK    4  A    between atoms: C_8  and  C_9
REMARK    5  A    between atoms: C_9  and  N_10
REMARK    6  A    between atoms: C_14  and  C_15
REMARK    7  A    between atoms: C_15  and  O_16
REMARK                            x       y       z     vdW  Elec       q    Type
REMARK                         _______ _______ _______ _____ _____    ______ ____
ROOT
ATOM      1  C   UNL     1      47.852   8.934  14.568  0.00  0.00    +0.000 C 
ENDROOT
BRANCH   1   2
ATOM      2  C   UNL     1      47.149   8.198  13.459  0.00  0.00    +0.000 A 
ATOM      3  C   UNL     1      47.610   6.936  13.074  0.00  0.00    +0.000 A 
ATOM      4  C   UNL     1      46.957   6.209  12.080  0.00  0.00    +0.000 A 
ATOM      5  C   UNL     1      45.829   6.728  11.433  0.00  0.00    +0.000 A 
ATOM      6  C   UNL     1      45.391   8.013  11.787  0.00  0.00    +0.000 A 
ATOM      7  C   UNL     1      46.051   8.745  12.787  0.00  0.00    +0.000 A 
BRANCH   5   8
ATOM      8  C   UNL     1      45.168   5.944  10.319  0.00  0.00    +0.000 C 
BRANCH   8   9
ATOM      9  N   UNL     1      44.107   4.996  10.661  0.00  0.00    +0.000 NA
ATOM     10  C   UNL     1      42.989   5.498  11.447  0.00  0.00    +0.000 C 
ATOM     11  C   UNL     1      43.021   4.769  12.776  0.00  0.00    +0.000 C 
ATOM     12  C   UNL     1      43.829   3.507  12.538  0.00  0.00    +0.000 C 
ATOM     13  C   UNL     1      44.542   3.701  11.202  0.00  0.00    +0.000 C 
BRANCH  13  14
ATOM     14  C   UNL     1      44.174   2.582  10.208  0.00  0.00    +0.000 C 
BRANCH  14  15
ATOM     15  O   UNL     1      44.176   3.083   8.871  0.00  0.00    +0.000 OA
ATOM     16  H   UNL     1      44.492   4.003   8.956  0.00  0.00    +0.000 HD
ENDBRANCH  14  15
ENDBRANCH  13  14
ENDBRANCH   8   9
ENDBRANCH   5   8
ENDBRANCH   1   2
BRANCH   1  19
ATOM     17  O   UNL     1      49.308   9.593  16.882  0.00  0.00    +0.000 OA
ATOM     18  C   UNL     1      48.659   8.551  16.868  0.00  0.00    +0.000 C 
ATOM     19  N   UNL     1      47.955   8.139  15.765  0.00  0.00    +0.000 N 
ATOM     20  H   UNL     1      47.292   7.376  15.854  0.00  0.00    +0.000 HD
BRANCH  18  21
ATOM     21  C   UNL     1      48.641   7.651  18.020  0.00  0.00    +0.000 A 
ATOM     22  C   UNL     1      48.477   8.164  19.301  0.00  0.00    +0.000 A 
ATOM     23  S   UNL     1      48.456   6.973  20.518  0.00  0.00    +0.000 S 
ATOM     24  C   UNL     1      48.631   5.725  19.372  0.00  0.00    +0.000 A 
ATOM     25  N   UNL     1      48.641   4.419  19.754  0.00  0.00    +0.000 NA
ATOM     26  C   UNL     1      48.741   3.582  18.778  0.00  0.00    +0.000 A 
ATOM     27  N   UNL     1      48.851   3.927  17.455  0.00  0.00    +0.000 N 
ATOM     28  C   UNL     1      48.934   5.237  17.030  0.00  0.00    +0.000 A 
ATOM     29  O   UNL     1      49.192   5.504  15.863  0.00  0.00    +0.000 OA
ATOM     30  C   UNL     1      48.753   6.214  18.084  0.00  0.00    +0.000 A 
ATOM     31  H   UNL     1      48.973   3.218  16.746  0.00  0.00    +0.000 HD
ENDBRANCH  18  21
ENDBRANCH   1  19
TORSDOF 7
ENDMDL
MODEL 7
REMARK VINA RESULT:    -6.318      6.253      7.342
REMARK INTER + INTRA:          -9.582
REMARK INTER:                  -8.455
REMARK INTRA:                  -1.127
REMARK UNBOUND:                -0.863
REMARK  Name = 
REMARK  7 active torsions:
REMARK  status: ('A' for Active; 'I' for Inactive)
REMARK    1  A    between atoms: C_2  and  C_19
REMARK    2  A    between atoms: N_3  and  C_4
REMARK    3  A    between atoms: C_4  and  C_5
REMARK    4  A    between atoms: C_8  and  C_9
REMARK    5  A    between atoms: C_9  and  N_10
REMARK    6  A    between atoms: C_14  and  C_15
REMARK    7  A    between atoms: C_15  and  O_16
REMARK                            x       y       z     vdW  Elec       q    Type
REMARK                         _______ _______ _______ _____ _____    ______ ____
ROOT
ATOM      1  C   UNL     1      46.522   8.333  11.944  0.00  0.00    +0.000 C 
ENDROOT
BRANCH   1   2
ATOM      2  C   UNL     1      48.017   8.421  12.096  0.00  0.00    +0.000 A 
ATOM      3  C   UNL     1      48.681   9.582  11.687  0.00  0.00    +0.000 A 
ATOM      4  C   UNL     1      50.058   9.714  11.852  0.00  0.00    +0.000 A 
ATOM      5  C   UNL     1      50.816   8.683  12.421  0.00  0.00    +0.000 A 
ATOM      6  C   UNL     1      50.159   7.500  12.792  0.00  0.00    +0.000 A 
ATOM      7  C   UNL     1      48.771   7.367  12.623  0.00  0.00    +0.000 A 
BRANCH   5   8
ATOM      8  C   UNL     1      52.319   8.825  12.541  0.00  0.00    +0.000 C 
BRANCH   8   9
ATOM      9  N   UNL     1      53.140   8.634  11.345  0.00  0.00    +0.000 NA
ATOM     10  C   UNL     1      53.342   9.788  10.482  0.00  0.00    +0.000 C 
ATOM     11  C   UNL     1      52.686   9.467   9.153  0.00  0.00    +0.000 C 
ATOM     12  C   UNL     1      52.573   7.954   9.101  0.00  0.00    +0.000 C 
ATOM     13  C   UNL     1      52.827   7.458  10.522  0.00  0.00    +0.000 C 
BRANCH  13  14
ATOM     14  C   UNL     1      54.014   6.475  10.565  0.00  0.00    +0.000 C 
BRANCH  14  15
ATOM     15  O   UNL     1      53.560   5.135  10.374  0.00  0.00    +0.000 OA
ATOM     16  H   UNL     1      52.650   5.232  10.033  0.00  0.00    +0.000 HD
ENDBRANCH  14  15
ENDBRANCH  13  14
ENDBRANCH   8   9
ENDBRANCH   5   8
ENDBRANCH   1   2
BRANCH   1  19
ATOM     17  O   UNL     1      43.889   7.504  11.405  0.00  0.00    +0.000 OA
ATOM     18  C   UNL     1      44.774   6.655  11.480  0.00  0.00    +0.000 C 
ATOM     19  N   UNL     1      46.075   6.974  11.779  0.00  0.00    +0.000 N 
ATOM     20  H   UNL     1      46.800   6.276  11.652  0.00  0.00    +0.000 HD
BRANCH  18  21
ATOM     21  C   UNL     1      44.479   5.233  11.307  0.00  0.00    +0.000 A 
ATOM     22  C   UNL     1      43.742   4.553  12.268  0.00  0.00    +0.000 A 
ATOM     23  S   UNL     1      43.472   2.915  11.891  0.00  0.00    +0.000 S 
ATOM     24  C   UNL     1      44.303   3.065  10.412  0.00  0.00    +0.000 A 
ATOM     25  N   UNL     1      44.405   2.012   9.556  0.00  0.00    +0.000 NA
ATOM     26  C   UNL     1      45.026   2.279   8.458  0.00  0.00    +0.000 A 
ATOM     27  N   UNL     1      45.573   3.496   8.141  0.00  0.00    +0.000 N 
ATOM     28  C   UNL     1      45.570   4.565   9.014  0.00  0.00    +0.000 A 
ATOM     29  O   UNL     1      46.206   5.582   8.764  0.00  0.00    +0.000 OA
ATOM     30  C   UNL     1      44.820   4.334  10.231  0.00  0.00    +0.000 A 
ATOM     31  H   UNL     1      46.087   3.622   7.282  0.00  0.00    +0.000 HD
ENDBRANCH  18  21
ENDBRANCH   1  19
TORSDOF 7
ENDMDL
MODEL 8
REMARK VINA RESULT:    -6.293      3.045      9.452
REMARK INTER + INTRA:          -9.547
REMARK INTER:                  -8.875
REMARK INTRA:                  -0.672
REMARK UNBOUND:                -0.863
REMARK  Name = 
REMARK  7 active torsions:
REMARK  status: ('A' for Active; 'I' for Inactive)
REMARK    1  A    between atoms: C_2  and  C_19
REMARK    2  A    between atoms: N_3  and  C_4
REMARK    3  A    between atoms: C_4  and  C_5
REMARK    4  A    between atoms: C_8  and  C_9
REMARK    5  A    between atoms: C_9  and  N_10
REMARK    6  A    between atoms: C_14  and  C_15
REMARK    7  A    between atoms: C_15  and  O_16
REMARK                            x       y       z     vdW  Elec       q    Type
REMARK                         _______ _______ _______ _____ _____    ______ ____
ROOT
ATOM      1  C   UNL     1      47.645   3.670  17.195  0.00  0.00    +0.000 C 
ENDROOT
BRANCH   1   2
ATOM      2  C   UNL     1      47.491   4.319  15.846  0.00  0.00    +0.000 A 
ATOM      3  C   UNL     1      46.904   3.599  14.801  0.00  0.00    +0.000 A 
ATOM      4  C   UNL     1      46.708   4.183  13.551  0.00  0.00    +0.000 A 
ATOM      5  C   UNL     1      47.104   5.504  13.305  0.00  0.00    +0.000 A 
ATOM      6  C   UNL     1      47.732   6.214  14.338  0.00  0.00    +0.000 A 
ATOM      7  C   UNL     1      47.932   5.623  15.597  0.00  0.00    +0.000 A 
BRANCH   5   8
ATOM      8  C   UNL     1      46.931   6.101  11.924  0.00  0.00    +0.000 C 
BRANCH   8   9
ATOM      9  N   UNL     1      45.623   6.002  11.274  0.00  0.00    +0.000 NA
ATOM     10  C   UNL     1      44.520   6.734  11.878  0.00  0.00    +0.000 C 
ATOM     11  C   UNL     1      43.512   5.705  12.352  0.00  0.00    +0.000 C 
ATOM     12  C   UNL     1      43.803   4.444  11.560  0.00  0.00    +0.000 C 
ATOM     13  C   UNL     1      45.174   4.648  10.920  0.00  0.00    +0.000 C 
BRANCH  13  14
ATOM     14  C   UNL     1      45.096   4.522   9.385  0.00  0.00    +0.000 C 
BRANCH  14  15
ATOM     15  O   UNL     1      45.892   5.530   8.761  0.00  0.00    +0.000 OA
ATOM     16  H   UNL     1      46.773   5.433   9.171  0.00  0.00    +0.000 HD
ENDBRANCH  14  15
ENDBRANCH  13  14
ENDBRANCH   8   9
ENDBRANCH   5   8
ENDBRANCH   1   2
BRANCH   1  19
ATOM     17  O   UNL     1      49.306   1.657  16.147  0.00  0.00    +0.000 OA
ATOM     18  C   UNL     1      49.780   2.461  16.946  0.00  0.00    +0.000 C 
ATOM     19  N   UNL     1      49.027   3.446  17.533  0.00  0.00    +0.000 N 
ATOM     20  H   UNL     1      49.491   4.192  18.039  0.00  0.00    +0.000 HD
BRANCH  18  21
ATOM     21  C   UNL     1      51.179   2.379  17.365  0.00  0.00    +0.000 A 
ATOM     22  C   UNL     1      51.766   1.141  17.592  0.00  0.00    +0.000 A 
ATOM     23  S   UNL     1      53.405   1.233  18.047  0.00  0.00    +0.000 S 
ATOM     24  C   UNL     1      53.396   2.931  17.925  0.00  0.00    +0.000 A 
ATOM     25  N   UNL     1      54.527   3.656  18.147  0.00  0.00    +0.000 NA
ATOM     26  C   UNL     1      54.385   4.926  17.981  0.00  0.00    +0.000 A 
ATOM     27  N   UNL     1      53.212   5.546  17.632  0.00  0.00    +0.000 N 
ATOM     28  C   UNL     1      52.022   4.863  17.483  0.00  0.00    +0.000 A 
ATOM     29  O   UNL     1      50.966   5.465  17.330  0.00  0.00    +0.000 OA
ATOM     30  C   UNL     1      52.149   3.424  17.588  0.00  0.00    +0.000 A 
ATOM     31  H   UNL     1      53.161   6.552  17.565  0.00  0.00    +0.000 HD
ENDBRANCH  18  21
ENDBRANCH   1  19
TORSDOF 7
ENDMDL
MODEL 9
REMARK VINA RESULT:    -6.104      4.861      9.069
REMARK INTER + INTRA:          -9.287
REMARK INTER:                  -8.087
REMARK INTRA:                  -1.200
REMARK UNBOUND:                -0.863
REMARK  Name = 
REMARK  7 active torsions:
REMARK  status: ('A' for Active; 'I' for Inactive)
REMARK    1  A    between atoms: C_2  and  C_19
REMARK    2  A    between atoms: N_3  and  C_4
REMARK    3  A    between atoms: C_4  and  C_5
REMARK    4  A    between atoms: C_8  and  C_9
REMARK    5  A    between atoms: C_9  and  N_10
REMARK    6  A    between atoms: C_14  and  C_15
REMARK    7  A    between atoms: C_15  and  O_16
REMARK                            x       y       z     vdW  Elec       q    Type
REMARK                         _______ _______ _______ _____ _____    ______ ____
ROOT
ATOM      1  C   UNL     1      49.811   8.576  14.171  0.00  0.00    +0.000 C 
ENDROOT
BRANCH   1   2
ATOM      2  C   UNL     1      48.582   8.131  13.425  0.00  0.00    +0.000 A 
ATOM      3  C   UNL     1      47.360   8.761  13.679  0.00  0.00    +0.000 A 
ATOM      4  C   UNL     1      46.211   8.403  12.975  0.00  0.00    +0.000 A 
ATOM      5  C   UNL     1      46.248   7.396  12.003  0.00  0.00    +0.000 A 
ATOM      6  C   UNL     1      47.463   6.732  11.777  0.00  0.00    +0.000 A 
ATOM      7  C   UNL     1      48.620   7.092  12.488  0.00  0.00    +0.000 A 
BRANCH   5   8
ATOM      8  C   UNL     1      44.977   6.985  11.290  0.00  0.00    +0.000 C 
BRANCH   8   9
ATOM      9  N   UNL     1      44.365   5.699  11.628  0.00  0.00    +0.000 NA
ATOM     10  C   UNL     1      44.123   5.424  13.037  0.00  0.00    +0.000 C 
ATOM     11  C   UNL     1      44.996   4.243  13.414  0.00  0.00    +0.000 C 
ATOM     12  C   UNL     1      45.330   3.541  12.110  0.00  0.00    +0.000 C 
ATOM     13  C   UNL     1      44.954   4.511  10.993  0.00  0.00    +0.000 C 
BRANCH  13  14
ATOM     14  C   UNL     1      43.925   3.884  10.032  0.00  0.00    +0.000 C 
BRANCH  14  15
ATOM     15  O   UNL     1      43.759   4.702   8.875  0.00  0.00    +0.000 OA
ATOM     16  H   UNL     1      42.907   4.416   8.494  0.00  0.00    +0.000 HD
ENDBRANCH  14  15
ENDBRANCH  13  14
ENDBRANCH   8   9
ENDBRANCH   5   8
ENDBRANCH   1   2
BRANCH   1  19
ATOM     17  O   UNL     1      50.481   6.424  15.853  0.00  0.00    +0.000 OA
ATOM     18  C   UNL     1      50.015   7.444  16.353  0.00  0.00    +0.000 C 
ATOM     19  N   UNL     1      49.626   8.522  15.599  0.00  0.00    +0.000 N 
ATOM     20  H   UNL     1      49.421   9.403  16.058  0.00  0.00    +0.000 HD
BRANCH  18  21
ATOM     21  C   UNL     1      49.795   7.550  17.795  0.00  0.00    +0.000 A 
ATOM     22  C   UNL     1      50.523   8.465  18.545  0.00  0.00    +0.000 A 
ATOM     23  S   UNL     1      50.120   8.470  20.200  0.00  0.00    +0.000 S 
ATOM     24  C   UNL     1      48.932   7.273  19.966  0.00  0.00    +0.000 A 
ATOM     25  N   UNL     1      48.161   6.839  21.001  0.00  0.00    +0.000 NA
ATOM     26  C   UNL     1      47.276   5.960  20.672  0.00  0.00    +0.000 A 
ATOM     27  N   UNL     1      47.102   5.457  19.408  0.00  0.00    +0.000 N 
ATOM     28  C   UNL     1      47.916   5.801  18.349  0.00  0.00    +0.000 A 
ATOM     29  O   UNL     1      47.834   5.215  17.276  0.00  0.00    +0.000 OA
ATOM     30  C   UNL     1      48.877   6.841  18.653  0.00  0.00    +0.000 A 
ATOM     31  H   UNL     1      46.419   4.735  19.230  0.00  0.00    +0.000 HD
ENDBRANCH  18  21
ENDBRANCH   1  19
TORSDOF 7
ENDMDL
