MODEL 1
REMARK VINA RESULT:    -9.071      0.000      0.000
REMARK INTER + INTRA:         -14.295
REMARK INTER:                 -13.844
REMARK INTRA:                  -0.451
REMARK UNBOUND:                -0.451
REMARK  Name = 
REMARK  11 active torsions:
REMARK  status: ('A' for Active; 'I' for Inactive)
REMARK    1  A    between atoms: C_1  and  C_2
REMARK    2  A    between atoms: C_2  and  N_3
REMARK    3  A    between atoms: C_2  and  C_20
REMARK    4  A    between atoms: N_3  and  C_4
REMARK    5  A    between atoms: C_4  and  C_5
REMARK    6  A    between atoms: C_8  and  C_9
REMARK    7  A    between atoms: C_9  and  O_10
REMARK    8  A    between atoms: C_9  and  C_11
REMARK    9  A    between atoms: C_11  and  N_12
REMARK   10  A    between atoms: C_15  and  O_16
REMARK   11  A    between atoms: C_20  and  C_22
REMARK                            x       y       z     vdW  Elec       q    Type
REMARK                         _______ _______ _______ _____ _____    ______ ____
ROOT
ATOM      1  C   UNL     1      47.557   6.103  14.105  0.00  0.00    +0.000 C 
ENDROOT
BRANCH   1   2
ATOM      2  C   UNL     1      46.709   5.585  12.963  0.00  0.00    +0.000 A 
ATOM      3  C   UNL     1      46.012   4.370  13.071  0.00  0.00    +0.000 A 
ATOM      4  C   UNL     1      45.260   3.877  12.001  0.00  0.00    +0.000 A 
ATOM      5  C   UNL     1      45.176   4.584  10.791  0.00  0.00    +0.000 A 
ATOM      6  C   UNL     1      45.830   5.823  10.705  0.00  0.00    +0.000 A 
ATOM      7  C   UNL     1      46.592   6.312  11.772  0.00  0.00    +0.000 A 
BRANCH   5   8
ATOM      8  C   UNL     1      44.353   4.015   9.652  0.00  0.00    +0.000 C 
BRANCH   8   9
ATOM      9  O   UNL     1      43.218   4.867   9.444  0.00  0.00    +0.000 OA
ATOM     10  H   UNL     1      43.152   5.443  10.226  0.00  0.00    +0.000 HD
ENDBRANCH   8   9
BRANCH   8  11
ATOM     11  C   UNL     1      45.078   3.850   8.286  0.00  0.00    +0.000 C 
BRANCH  11  12
ATOM     12  N   UNL     1      46.277   2.997   8.290  0.00  0.00    +0.000 NA
ATOM     13  C   UNL     1      45.946   1.563   8.339  0.00  0.00    +0.000 C 
ATOM     14  C   UNL     1      46.986   0.879   7.472  0.00  0.00    +0.000 C 
ATOM     15  C   UNL     1      47.224   1.893   6.372  0.00  0.00    +0.000 C 
ATOM     16  C   UNL     1      47.121   3.228   7.105  0.00  0.00    +0.000 C 
BRANCH  15  17
ATOM     17  O   UNL     1      48.481   1.698   5.746  0.00  0.00    +0.000 OA
ATOM     18  H   UNL     1      48.387   0.964   5.115  0.00  0.00    +0.000 HD
ENDBRANCH  15  17
ENDBRANCH  11  12
ENDBRANCH   8  11
ENDBRANCH   5   8
ENDBRANCH   1   2
BRANCH   1  19
ATOM     19  N   UNL     1      47.586   5.132  15.200  0.00  0.00    +0.000 NA
ATOM     20  H   UNL     1      46.627   4.873  15.425  0.00  0.00    +0.000 HD
BRANCH  19  22
ATOM     21  C   UNL     1      49.476   6.466  16.138  0.00  0.00    +0.000 C 
ATOM     22  C   UNL     1      48.255   5.591  16.439  0.00  0.00    +0.000 C 
BRANCH  22  23
ATOM     23  C   UNL     1      48.589   4.429  17.410  0.00  0.00    +0.000 C 
ATOM     24  O   UNL     1      47.698   3.686  17.823  0.00  0.00    +0.000 OA
BRANCH  23  25
ATOM     25  C   UNL     1      49.983   4.228  17.854  0.00  0.00    +0.000 A 
ATOM     26  C   UNL     1      50.699   5.154  18.595  0.00  0.00    +0.000 A 
ATOM     27  S   UNL     1      52.215   4.572  19.130  0.00  0.00    +0.000 S 
ATOM     28  C   UNL     1      51.978   3.079  18.354  0.00  0.00    +0.000 A 
ATOM     29  N   UNL     1      52.903   2.086  18.444  0.00  0.00    +0.000 NA
ATOM     30  C   UNL     1      52.585   1.006  17.808  0.00  0.00    +0.000 A 
ATOM     31  N   UNL     1      51.444   0.843  17.068  0.00  0.00    +0.000 N 
ATOM     32  C   UNL     1      50.543   1.861  16.844  0.00  0.00    +0.000 A 
ATOM     33  O   UNL     1      49.689   1.772  15.970  0.00  0.00    +0.000 OA
ATOM     34  C   UNL     1      50.788   3.047  17.650  0.00  0.00    +0.000 A 
ATOM     35  H   UNL     1      51.305   0.009  16.515  0.00  0.00    +0.000 HD
ENDBRANCH  23  25
ENDBRANCH  22  23
ENDBRANCH  19  22
ENDBRANCH   1  19
TORSDOF 10
ENDMDL
MODEL 2
REMARK VINA RESULT:    -8.545      1.091      1.615
REMARK INTER + INTRA:         -13.492
REMARK INTER:                 -12.475
REMARK INTRA:                  -1.017
REMARK UNBOUND:                -0.451
REMARK  Name = 
REMARK  11 active torsions:
REMARK  status: ('A' for Active; 'I' for Inactive)
REMARK    1  A    between atoms: C_1  and  C_2
REMARK    2  A    between atoms: C_2  and  N_3
REMARK    3  A    between atoms: C_2  and  C_20
REMARK    4  A    between atoms: N_3  and  C_4
REMARK    5  A    between atoms: C_4  and  C_5
REMARK    6  A    between atoms: C_8  and  C_9
REMARK    7  A    between atoms: C_9  and  O_10
REMARK    8  A    between atoms: C_9  and  C_11
REMARK    9  A    between atoms: C_11  and  N_12
REMARK   10  A    between atoms: C_15  and  O_16
REMARK   11  A    between atoms: C_20  and  C_22
REMARK                            x       y       z     vdW  Elec       q    Type
REMARK                         _______ _______ _______ _____ _____    ______ ____
ROOT
ATOM      1  C   UNL     1      47.886   6.043  14.558  0.00  0.00    +0.000 C 
ENDROOT
BRANCH   1   2
ATOM      2  C   UNL     1      46.966   5.348  13.576  0.00  0.00    +0.000 A 
ATOM      3  C   UNL     1      46.358   6.058  12.526  0.00  0.00    +0.000 A 
ATOM      4  C   UNL     1      45.481   5.421  11.644  0.00  0.00    +0.000 A 
ATOM      5  C   UNL     1      45.186   4.056  11.779  0.00  0.00    +0.000 A 
ATOM      6  C   UNL     1      45.835   3.339  12.796  0.00  0.00    +0.000 A 
ATOM      7  C   UNL     1      46.706   3.977  13.686  0.00  0.00    +0.000 A 
BRANCH   5   8
ATOM      8  C   UNL     1      44.226   3.401  10.805  0.00  0.00    +0.000 C 
BRANCH   8   9
ATOM      9  O   UNL     1      42.915   3.410  11.387  0.00  0.00    +0.000 OA
ATOM     10  H   UNL     1      42.484   4.233  11.098  0.00  0.00    +0.000 HD
ENDBRANCH   8   9
BRANCH   8  11
ATOM     11  C   UNL     1      44.122   4.043   9.393  0.00  0.00    +0.000 C 
BRANCH  11  12
ATOM     12  N   UNL     1      44.547   3.197   8.266  0.00  0.00    +0.000 NA
ATOM     13  C   UNL     1      45.737   3.729   7.582  0.00  0.00    +0.000 C 
ATOM     14  C   UNL     1      46.549   2.512   7.180  0.00  0.00    +0.000 C 
ATOM     15  C   UNL     1      46.303   1.552   8.325  0.00  0.00    +0.000 C 
ATOM     16  C   UNL     1      44.846   1.820   8.694  0.00  0.00    +0.000 C 
BRANCH  15  17
ATOM     17  O   UNL     1      46.542   0.209   7.941  0.00  0.00    +0.000 OA
ATOM     18  H   UNL     1      46.786  -0.290   8.740  0.00  0.00    +0.000 HD
ENDBRANCH  15  17
ENDBRANCH  11  12
ENDBRANCH   8  11
ENDBRANCH   5   8
ENDBRANCH   1   2
BRANCH   1  19
ATOM     19  N   UNL     1      48.067   5.220  15.755  0.00  0.00    +0.000 NA
ATOM     20  H   UNL     1      47.148   4.944  16.098  0.00  0.00    +0.000 HD
BRANCH  19  22
ATOM     21  C   UNL     1      50.089   6.550  16.369  0.00  0.00    +0.000 C 
ATOM     22  C   UNL     1      48.810   5.864  16.862  0.00  0.00    +0.000 C 
BRANCH  22  23
ATOM     23  C   UNL     1      49.079   4.902  18.049  0.00  0.00    +0.000 C 
ATOM     24  O   UNL     1      48.157   4.544  18.781  0.00  0.00    +0.000 OA
BRANCH  23  25
ATOM     25  C   UNL     1      50.455   4.431  18.308  0.00  0.00    +0.000 A 
ATOM     26  C   UNL     1      51.385   5.136  19.054  0.00  0.00    +0.000 A 
ATOM     27  S   UNL     1      52.824   4.261  19.350  0.00  0.00    +0.000 S 
ATOM     28  C   UNL     1      52.262   2.928  18.457  0.00  0.00    +0.000 A 
ATOM     29  N   UNL     1      53.009   1.797  18.339  0.00  0.00    +0.000 NA
ATOM     30  C   UNL     1      52.452   0.866  17.636  0.00  0.00    +0.000 A 
ATOM     31  N   UNL     1      51.235   0.976  17.018  0.00  0.00    +0.000 N 
ATOM     32  C   UNL     1      50.503   2.144  17.004  0.00  0.00    +0.000 A 
ATOM     33  O   UNL     1      49.567   2.297  16.228  0.00  0.00    +0.000 OA
ATOM     34  C   UNL     1      51.023   3.170  17.893  0.00  0.00    +0.000 A 
ATOM     35  H   UNL     1      50.904   0.247  16.402  0.00  0.00    +0.000 HD
ENDBRANCH  23  25
ENDBRANCH  22  23
ENDBRANCH  19  22
ENDBRANCH   1  19
TORSDOF 10
ENDMDL
MODEL 3
REMARK VINA RESULT:    -8.515      1.995      2.820
REMARK INTER + INTRA:         -13.445
REMARK INTER:                 -12.321
REMARK INTRA:                  -1.124
REMARK UNBOUND:                -0.451
REMARK  Name = 
REMARK  11 active torsions:
REMARK  status: ('A' for Active; 'I' for Inactive)
REMARK    1  A    between atoms: C_1  and  C_2
REMARK    2  A    between atoms: C_2  and  N_3
REMARK    3  A    between atoms: C_2  and  C_20
REMARK    4  A    between atoms: N_3  and  C_4
REMARK    5  A    between atoms: C_4  and  C_5
REMARK    6  A    between atoms: C_8  and  C_9
REMARK    7  A    between atoms: C_9  and  O_10
REMARK    8  A    between atoms: C_9  and  C_11
REMARK    9  A    between atoms: C_11  and  N_12
REMARK   10  A    between atoms: C_15  and  O_16
REMARK   11  A    between atoms: C_20  and  C_22
REMARK                            x       y       z     vdW  Elec       q    Type
REMARK                         _______ _______ _______ _____ _____    ______ ____
ROOT
ATOM      1  C   UNL     1      47.307   5.270  14.516  0.00  0.00    +0.000 C 
ENDROOT
BRANCH   1   2
ATOM      2  C   UNL     1      46.550   4.921  13.252  0.00  0.00    +0.000 A 
ATOM      3  C   UNL     1      46.377   5.865  12.227  0.00  0.00    +0.000 A 
ATOM      4  C   UNL     1      45.646   5.551  11.078  0.00  0.00    +0.000 A 
ATOM      5  C   UNL     1      45.068   4.283  10.914  0.00  0.00    +0.000 A 
ATOM      6  C   UNL     1      45.287   3.325  11.917  0.00  0.00    +0.000 A 
ATOM      7  C   UNL     1      46.010   3.641  13.072  0.00  0.00    +0.000 A 
BRANCH   5   8
ATOM      8  C   UNL     1      44.279   3.980   9.655  0.00  0.00    +0.000 C 
BRANCH   8   9
ATOM      9  O   UNL     1      43.272   4.989   9.500  0.00  0.00    +0.000 OA
ATOM     10  H   UNL     1      43.734   5.844   9.452  0.00  0.00    +0.000 HD
ENDBRANCH   8   9
BRANCH   8  11
ATOM     11  C   UNL     1      45.086   3.907   8.329  0.00  0.00    +0.000 C 
BRANCH  11  12
ATOM     12  N   UNL     1      46.261   3.021   8.336  0.00  0.00    +0.000 NA
ATOM     13  C   UNL     1      45.890   1.597   8.377  0.00  0.00    +0.000 C 
ATOM     14  C   UNL     1      46.916   0.887   7.512  0.00  0.00    +0.000 C 
ATOM     15  C   UNL     1      47.189   1.899   6.419  0.00  0.00    +0.000 C 
ATOM     16  C   UNL     1      47.118   3.233   7.157  0.00  0.00    +0.000 C 
BRANCH  15  17
ATOM     17  O   UNL     1      48.443   1.672   5.799  0.00  0.00    +0.000 OA
ATOM     18  H   UNL     1      49.067   1.386   6.488  0.00  0.00    +0.000 HD
ENDBRANCH  15  17
ENDBRANCH  11  12
ENDBRANCH   8  11
ENDBRANCH   5   8
ENDBRANCH   1   2
BRANCH   1  19
ATOM     19  N   UNL     1      46.813   4.475  15.642  0.00  0.00    +0.000 NA
ATOM     20  H   UNL     1      46.150   5.041  16.169  0.00  0.00    +0.000 HD
BRANCH  19  22
ATOM     21  C   UNL     1      47.342   2.812  17.427  0.00  0.00    +0.000 C 
ATOM     22  C   UNL     1      47.852   3.976  16.571  0.00  0.00    +0.000 C 
BRANCH  22  23
ATOM     23  C   UNL     1      48.486   5.102  17.429  0.00  0.00    +0.000 C 
ATOM     24  O   UNL     1      47.776   5.958  17.957  0.00  0.00    +0.000 OA
BRANCH  23  25
ATOM     25  C   UNL     1      49.953   5.153  17.595  0.00  0.00    +0.000 A 
ATOM     26  C   UNL     1      50.659   4.355  18.479  0.00  0.00    +0.000 A 
ATOM     27  S   UNL     1      52.355   4.492  18.316  0.00  0.00    +0.000 S 
ATOM     28  C   UNL     1      52.198   5.652  17.084  0.00  0.00    +0.000 A 
ATOM     29  N   UNL     1      53.292   6.173  16.467  0.00  0.00    +0.000 NA
ATOM     30  C   UNL     1      53.019   7.039  15.546  0.00  0.00    +0.000 A 
ATOM     31  N   UNL     1      51.756   7.451  15.212  0.00  0.00    +0.000 N 
ATOM     32  C   UNL     1      50.629   7.047  15.894  0.00  0.00    +0.000 A 
ATOM     33  O   UNL     1      49.561   7.630  15.757  0.00  0.00    +0.000 OA
ATOM     34  C   UNL     1      50.874   5.972  16.842  0.00  0.00    +0.000 A 
ATOM     35  H   UNL     1      51.620   8.204  14.552  0.00  0.00    +0.000 HD
ENDBRANCH  23  25
ENDBRANCH  22  23
ENDBRANCH  19  22
ENDBRANCH   1  19
TORSDOF 10
ENDMDL
MODEL 4
REMARK VINA RESULT:    -8.193      2.929      8.881
REMARK INTER + INTRA:         -12.954
REMARK INTER:                 -11.598
REMARK INTRA:                  -1.356
REMARK UNBOUND:                -0.451
REMARK  Name = 
REMARK  11 active torsions:
REMARK  status: ('A' for Active; 'I' for Inactive)
REMARK    1  A    between atoms: C_1  and  C_2
REMARK    2  A    between atoms: C_2  and  N_3
REMARK    3  A    between atoms: C_2  and  C_20
REMARK    4  A    between atoms: N_3  and  C_4
REMARK    5  A    between atoms: C_4  and  C_5
REMARK    6  A    between atoms: C_8  and  C_9
REMARK    7  A    between atoms: C_9  and  O_10
REMARK    8  A    between atoms: C_9  and  C_11
REMARK    9  A    between atoms: C_11  and  N_12
REMARK   10  A    between atoms: C_15  and  O_16
REMARK   11  A    between atoms: C_20  and  C_22
REMARK                            x       y       z     vdW  Elec       q    Type
REMARK                         _______ _______ _______ _____ _____    ______ ____
ROOT
ATOM      1  C   UNL     1      47.982   6.956  12.688  0.00  0.00    +0.000 C 
ENDROOT
BRANCH   1   2
ATOM      2  C   UNL     1      47.903   6.189  13.992  0.00  0.00    +0.000 A 
ATOM      3  C   UNL     1      47.137   5.017  14.098  0.00  0.00    +0.000 A 
ATOM      4  C   UNL     1      47.038   4.333  15.313  0.00  0.00    +0.000 A 
ATOM      5  C   UNL     1      47.703   4.795  16.458  0.00  0.00    +0.000 A 
ATOM      6  C   UNL     1      48.510   5.938  16.336  0.00  0.00    +0.000 A 
ATOM      7  C   UNL     1      48.602   6.629  15.123  0.00  0.00    +0.000 A 
BRANCH   5   8
ATOM      8  C   UNL     1      47.568   4.028  17.760  0.00  0.00    +0.000 C 
BRANCH   8   9
ATOM      9  O   UNL     1      46.735   2.884  17.526  0.00  0.00    +0.000 OA
ATOM     10  H   UNL     1      47.233   2.289  16.938  0.00  0.00    +0.000 HD
ENDBRANCH   8   9
BRANCH   8  11
ATOM     11  C   UNL     1      48.887   3.529  18.413  0.00  0.00    +0.000 C 
BRANCH  11  12
ATOM     12  N   UNL     1      50.019   3.311  17.497  0.00  0.00    +0.000 NA
ATOM     13  C   UNL     1      51.289   3.815  18.044  0.00  0.00    +0.000 C 
ATOM     14  C   UNL     1      52.346   2.826  17.590  0.00  0.00    +0.000 C 
ATOM     15  C   UNL     1      51.605   1.505  17.627  0.00  0.00    +0.000 C 
ATOM     16  C   UNL     1      50.198   1.885  17.173  0.00  0.00    +0.000 C 
BRANCH  15  17
ATOM     17  O   UNL     1      52.218   0.540  16.789  0.00  0.00    +0.000 OA
ATOM     18  H   UNL     1      51.780  -0.314  16.950  0.00  0.00    +0.000 HD
ENDBRANCH  15  17
ENDBRANCH  11  12
ENDBRANCH   8  11
ENDBRANCH   5   8
ENDBRANCH   1   2
BRANCH   1  19
ATOM     19  N   UNL     1      46.886   6.565  11.800  0.00  0.00    +0.000 NA
ATOM     20  H   UNL     1      47.268   6.402  10.870  0.00  0.00    +0.000 HD
BRANCH  19  22
ATOM     21  C   UNL     1      45.700   8.456  12.918  0.00  0.00    +0.000 C 
ATOM     22  C   UNL     1      45.778   7.542  11.691  0.00  0.00    +0.000 C 
BRANCH  22  23
ATOM     23  C   UNL     1      44.416   6.874  11.368  0.00  0.00    +0.000 C 
ATOM     24  O   UNL     1      43.439   7.564  11.075  0.00  0.00    +0.000 OA
BRANCH  23  25
ATOM     25  C   UNL     1      44.291   5.404  11.431  0.00  0.00    +0.000 A 
ATOM     26  C   UNL     1      43.740   4.721  12.502  0.00  0.00    +0.000 A 
ATOM     27  S   UNL     1      43.548   3.046  12.216  0.00  0.00    +0.000 S 
ATOM     28  C   UNL     1      44.232   3.177  10.666  0.00  0.00    +0.000 A 
ATOM     29  N   UNL     1      44.338   2.093   9.851  0.00  0.00    +0.000 NA
ATOM     30  C   UNL     1      44.872   2.345   8.701  0.00  0.00    +0.000 A 
ATOM     31  N   UNL     1      45.338   3.571   8.308  0.00  0.00    +0.000 N 
ATOM     32  C   UNL     1      45.369   4.666   9.145  0.00  0.00    +0.000 A 
ATOM     33  O   UNL     1      46.030   5.659   8.866  0.00  0.00    +0.000 OA
ATOM     34  C   UNL     1      44.654   4.466  10.395  0.00  0.00    +0.000 A 
ATOM     35  H   UNL     1      45.835   3.676   7.434  0.00  0.00    +0.000 HD
ENDBRANCH  23  25
ENDBRANCH  22  23
ENDBRANCH  19  22
ENDBRANCH   1  19
TORSDOF 10
ENDMDL
MODEL 5
REMARK VINA RESULT:    -8.040      2.608      3.662
REMARK INTER + INTRA:         -12.721
REMARK INTER:                 -11.719
REMARK INTRA:                  -1.003
REMARK UNBOUND:                -0.451
REMARK  Name = 
REMARK  11 active torsions:
REMARK  status: ('A' for Active; 'I' for Inactive)
REMARK    1  A    between atoms: C_1  and  C_2
REMARK    2  A    between atoms: C_2  and  N_3
REMARK    3  A    between atoms: C_2  and  C_20
REMARK    4  A    between atoms: N_3  and  C_4
REMARK    5  A    between atoms: C_4  and  C_5
REMARK    6  A    between atoms: C_8  and  C_9
REMARK    7  A    between atoms: C_9  and  O_10
REMARK    8  A    between atoms: C_9  and  C_11
REMARK    9  A    between atoms: C_11  and  N_12
REMARK   10  A    between atoms: C_15  and  O_16
REMARK   11  A    between atoms: C_20  and  C_22
REMARK                            x       y       z     vdW  Elec       q    Type
REMARK                         _______ _______ _______ _____ _____    ______ ____
ROOT
ATOM      1  C   UNL     1      47.171   5.542  14.391  0.00  0.00    +0.000 C 
ENDROOT
BRANCH   1   2
ATOM      2  C   UNL     1      46.460   5.116  13.123  0.00  0.00    +0.000 A 
ATOM      3  C   UNL     1      46.329   5.994  12.035  0.00  0.00    +0.000 A 
ATOM      4  C   UNL     1      45.641   5.610  10.882  0.00  0.00    +0.000 A 
ATOM      5  C   UNL     1      45.065   4.335  10.776  0.00  0.00    +0.000 A 
ATOM      6  C   UNL     1      45.243   3.441  11.844  0.00  0.00    +0.000 A 
ATOM      7  C   UNL     1      45.923   3.828  13.004  0.00  0.00    +0.000 A 
BRANCH   5   8
ATOM      8  C   UNL     1      44.322   3.954   9.510  0.00  0.00    +0.000 C 
BRANCH   8   9
ATOM      9  O   UNL     1      43.263   4.900   9.306  0.00  0.00    +0.000 OA
ATOM     10  H   UNL     1      43.664   5.688   8.900  0.00  0.00    +0.000 HD
ENDBRANCH   8   9
BRANCH   8  11
ATOM     11  C   UNL     1      45.162   3.894   8.203  0.00  0.00    +0.000 C 
BRANCH  11  12
ATOM     12  N   UNL     1      46.341   3.013   8.233  0.00  0.00    +0.000 NA
ATOM     13  C   UNL     1      45.976   1.588   8.284  0.00  0.00    +0.000 C 
ATOM     14  C   UNL     1      47.014   0.874   7.439  0.00  0.00    +0.000 C 
ATOM     15  C   UNL     1      47.295   1.876   6.338  0.00  0.00    +0.000 C 
ATOM     16  C   UNL     1      47.210   3.217   7.061  0.00  0.00    +0.000 C 
BRANCH  15  17
ATOM     17  O   UNL     1      48.557   1.647   5.735  0.00  0.00    +0.000 OA
ATOM     18  H   UNL     1      48.439   0.971   5.045  0.00  0.00    +0.000 HD
ENDBRANCH  15  17
ENDBRANCH  11  12
ENDBRANCH   8  11
ENDBRANCH   5   8
ENDBRANCH   1   2
BRANCH   1  19
ATOM     19  N   UNL     1      48.543   5.954  14.092  0.00  0.00    +0.000 NA
ATOM     20  H   UNL     1      49.155   5.149  14.214  0.00  0.00    +0.000 HD
BRANCH  19  22
ATOM     21  C   UNL     1      49.786   8.119  14.059  0.00  0.00    +0.000 C 
ATOM     22  C   UNL     1      49.064   7.072  14.912  0.00  0.00    +0.000 C 
BRANCH  22  23
ATOM     23  C   UNL     1      49.927   6.591  16.108  0.00  0.00    +0.000 C 
ATOM     24  O   UNL     1      51.139   6.805  16.127  0.00  0.00    +0.000 OA
BRANCH  23  25
ATOM     25  C   UNL     1      49.288   5.858  17.220  0.00  0.00    +0.000 A 
ATOM     26  C   UNL     1      49.309   4.479  17.348  0.00  0.00    +0.000 A 
ATOM     27  S   UNL     1      48.660   3.924  18.829  0.00  0.00    +0.000 S 
ATOM     28  C   UNL     1      48.297   5.507  19.328  0.00  0.00    +0.000 A 
ATOM     29  N   UNL     1      47.744   5.751  20.546  0.00  0.00    +0.000 NA
ATOM     30  C   UNL     1      47.529   7.002  20.791  0.00  0.00    +0.000 A 
ATOM     31  N   UNL     1      47.786   8.023  19.915  0.00  0.00    +0.000 N 
ATOM     32  C   UNL     1      48.225   7.815  18.625  0.00  0.00    +0.000 A 
ATOM     33  O   UNL     1      48.185   8.709  17.789  0.00  0.00    +0.000 OA
ATOM     34  C   UNL     1      48.611   6.439  18.355  0.00  0.00    +0.000 A 
ATOM     35  H   UNL     1      47.501   8.969  20.131  0.00  0.00    +0.000 HD
ENDBRANCH  23  25
ENDBRANCH  22  23
ENDBRANCH  19  22
ENDBRANCH   1  19
TORSDOF 10
ENDMDL
MODEL 6
REMARK VINA RESULT:    -7.979      2.237      2.898
REMARK INTER + INTRA:         -12.627
REMARK INTER:                 -11.210
REMARK INTRA:                  -1.417
REMARK UNBOUND:                -0.451
REMARK  Name = 
REMARK  11 active torsions:
REMARK  status: ('A' for Active; 'I' for Inactive)
REMARK    1  A    between atoms: C_1  and  C_2
REMARK    2  A    between atoms: C_2  and  N_3
REMARK    3  A    between atoms: C_2  and  C_20
REMARK    4  A    between atoms: N_3  and  C_4
REMARK    5  A    between atoms: C_4  and  C_5
REMARK    6  A    between atoms: C_8  and  C_9
REMARK    7  A    between atoms: C_9  and  O_10
REMARK    8  A    between atoms: C_9  and  C_11
REMARK    9  A    between atoms: C_11  and  N_12
REMARK   10  A    between atoms: C_15  and  O_16
REMARK   11  A    between atoms: C_20  and  C_22
REMARK                            x       y       z     vdW  Elec       q    Type
REMARK                         _______ _______ _______ _____ _____    ______ ____
ROOT
ATOM      1  C   UNL     1      48.780   7.298  14.031  0.00  0.00    +0.000 C 
ENDROOT
BRANCH   1   2
ATOM      2  C   UNL     1      47.482   6.638  13.616  0.00  0.00    +0.000 A 
ATOM      3  C   UNL     1      46.543   7.321  12.826  0.00  0.00    +0.000 A 
ATOM      4  C   UNL     1      45.329   6.722  12.475  0.00  0.00    +0.000 A 
ATOM      5  C   UNL     1      45.017   5.422  12.898  0.00  0.00    +0.000 A 
ATOM      6  C   UNL     1      45.981   4.723  13.644  0.00  0.00    +0.000 A 
ATOM      7  C   UNL     1      47.191   5.325  14.004  0.00  0.00    +0.000 A 
BRANCH   5   8
ATOM      8  C   UNL     1      43.690   4.807  12.501  0.00  0.00    +0.000 C 
BRANCH   8   9
ATOM      9  O   UNL     1      42.652   5.761  12.766  0.00  0.00    +0.000 OA
ATOM     10  H   UNL     1      42.366   6.112  11.905  0.00  0.00    +0.000 HD
ENDBRANCH   8   9
BRANCH   8  11
ATOM     11  C   UNL     1      43.549   4.352  11.022  0.00  0.00    +0.000 C 
BRANCH  11  12
ATOM     12  N   UNL     1      44.757   3.781  10.404  0.00  0.00    +0.000 NA
ATOM     13  C   UNL     1      44.530   2.427   9.873  0.00  0.00    +0.000 C 
ATOM     14  C   UNL     1      45.355   2.347   8.602  0.00  0.00    +0.000 C 
ATOM     15  C   UNL     1      45.253   3.753   8.049  0.00  0.00    +0.000 C 
ATOM     16  C   UNL     1      45.262   4.621   9.304  0.00  0.00    +0.000 C 
BRANCH  15  17
ATOM     17  O   UNL     1      46.321   4.044   7.163  0.00  0.00    +0.000 OA
ATOM     18  H   UNL     1      46.936   3.291   7.182  0.00  0.00    +0.000 HD
ENDBRANCH  15  17
ENDBRANCH  11  12
ENDBRANCH   8  11
ENDBRANCH   5   8
ENDBRANCH   1   2
BRANCH   1  19
ATOM     19  N   UNL     1      49.371   6.588  15.167  0.00  0.00    +0.000 NA
ATOM     20  H   UNL     1      48.785   5.784  15.385  0.00  0.00    +0.000 HD
BRANCH  19  22
ATOM     21  C   UNL     1      50.969   7.949  16.519  0.00  0.00    +0.000 C 
ATOM     22  C   UNL     1      49.547   7.393  16.397  0.00  0.00    +0.000 C 
BRANCH  22  23
ATOM     23  C   UNL     1      49.098   6.642  17.679  0.00  0.00    +0.000 C 
ATOM     24  O   UNL     1      48.982   7.245  18.746  0.00  0.00    +0.000 OA
BRANCH  23  25
ATOM     25  C   UNL     1      48.827   5.192  17.616  0.00  0.00    +0.000 A 
ATOM     26  C   UNL     1      47.560   4.647  17.484  0.00  0.00    +0.000 A 
ATOM     27  S   UNL     1      47.568   2.955  17.242  0.00  0.00    +0.000 S 
ATOM     28  C   UNL     1      49.263   2.893  17.346  0.00  0.00    +0.000 A 
ATOM     29  N   UNL     1      49.934   1.720  17.187  0.00  0.00    +0.000 NA
ATOM     30  C   UNL     1      51.218   1.826  17.286  0.00  0.00    +0.000 A 
ATOM     31  N   UNL     1      51.886   2.990  17.560  0.00  0.00    +0.000 N 
ATOM     32  C   UNL     1      51.244   4.173  17.854  0.00  0.00    +0.000 A 
ATOM     33  O   UNL     1      51.846   5.115  18.356  0.00  0.00    +0.000 OA
ATOM     34  C   UNL     1      49.809   4.133  17.619  0.00  0.00    +0.000 A 
ATOM     35  H   UNL     1      52.884   2.984  17.722  0.00  0.00    +0.000 HD
ENDBRANCH  23  25
ENDBRANCH  22  23
ENDBRANCH  19  22
ENDBRANCH   1  19
TORSDOF 10
ENDMDL
MODEL 7
REMARK VINA RESULT:    -7.861      1.494      2.045
REMARK INTER + INTRA:         -12.448
REMARK INTER:                 -11.516
REMARK INTRA:                  -0.932
REMARK UNBOUND:                -0.451
REMARK  Name = 
REMARK  11 active torsions:
REMARK  status: ('A' for Active; 'I' for Inactive)
REMARK    1  A    between atoms: C_1  and  C_2
REMARK    2  A    between atoms: C_2  and  N_3
REMARK    3  A    between atoms: C_2  and  C_20
REMARK    4  A    between atoms: N_3  and  C_4
REMARK    5  A    between atoms: C_4  and  C_5
REMARK    6  A    between atoms: C_8  and  C_9
REMARK    7  A    between atoms: C_9  and  O_10
REMARK    8  A    between atoms: C_9  and  C_11
REMARK    9  A    between atoms: C_11  and  N_12
REMARK   10  A    between atoms: C_15  and  O_16
REMARK   11  A    between atoms: C_20  and  C_22
REMARK                            x       y       z     vdW  Elec       q    Type
REMARK                         _______ _______ _______ _____ _____    ______ ____
ROOT
ATOM      1  C   UNL     1      47.440   6.668  13.962  0.00  0.00    +0.000 C 
ENDROOT
BRANCH   1   2
ATOM      2  C   UNL     1      46.692   5.969  12.845  0.00  0.00    +0.000 A 
ATOM      3  C   UNL     1      46.612   6.534  11.562  0.00  0.00    +0.000 A 
ATOM      4  C   UNL     1      45.889   5.904  10.545  0.00  0.00    +0.000 A 
ATOM      5  C   UNL     1      45.228   4.689  10.776  0.00  0.00    +0.000 A 
ATOM      6  C   UNL     1      45.354   4.101  12.045  0.00  0.00    +0.000 A 
ATOM      7  C   UNL     1      46.068   4.735  13.067  0.00  0.00    +0.000 A 
BRANCH   5   8
ATOM      8  C   UNL     1      44.450   4.038   9.649  0.00  0.00    +0.000 C 
BRANCH   8   9
ATOM      9  O   UNL     1      43.258   4.801   9.422  0.00  0.00    +0.000 OA
ATOM     10  H   UNL     1      43.153   5.395  10.186  0.00  0.00    +0.000 HD
ENDBRANCH   8   9
BRANCH   8  11
ATOM     11  C   UNL     1      45.188   3.895   8.288  0.00  0.00    +0.000 C 
BRANCH  11  12
ATOM     12  N   UNL     1      46.359   3.004   8.278  0.00  0.00    +0.000 NA
ATOM     13  C   UNL     1      45.983   1.581   8.319  0.00  0.00    +0.000 C 
ATOM     14  C   UNL     1      46.995   0.870   7.440  0.00  0.00    +0.000 C 
ATOM     15  C   UNL     1      47.259   1.884   6.347  0.00  0.00    +0.000 C 
ATOM     16  C   UNL     1      47.202   3.216   7.089  0.00  0.00    +0.000 C 
BRANCH  15  17
ATOM     17  O   UNL     1      48.504   1.653   5.711  0.00  0.00    +0.000 OA
ATOM     18  H   UNL     1      48.898   0.858   6.108  0.00  0.00    +0.000 HD
ENDBRANCH  15  17
ENDBRANCH  11  12
ENDBRANCH   8  11
ENDBRANCH   5   8
ENDBRANCH   1   2
BRANCH   1  19
ATOM     19  N   UNL     1      48.049   5.686  14.860  0.00  0.00    +0.000 NA
ATOM     20  H   UNL     1      47.340   5.001  15.116  0.00  0.00    +0.000 HD
BRANCH  19  22
ATOM     21  C   UNL     1      50.041   6.811  15.858  0.00  0.00    +0.000 C 
ATOM     22  C   UNL     1      48.641   6.239  16.099  0.00  0.00    +0.000 C 
BRANCH  22  23
ATOM     23  C   UNL     1      48.612   5.235  17.282  0.00  0.00    +0.000 C 
ATOM     24  O   UNL     1      48.005   4.169  17.179  0.00  0.00    +0.000 OA
BRANCH  23  25
ATOM     25  C   UNL     1      49.303   5.575  18.542  0.00  0.00    +0.000 A 
ATOM     26  C   UNL     1      48.805   6.462  19.482  0.00  0.00    +0.000 A 
ATOM     27  S   UNL     1      49.721   6.510  20.925  0.00  0.00    +0.000 S 
ATOM     28  C   UNL     1      50.833   5.375  20.323  0.00  0.00    +0.000 A 
ATOM     29  N   UNL     1      51.873   4.938  21.083  0.00  0.00    +0.000 NA
ATOM     30  C   UNL     1      52.632   4.072  20.496  0.00  0.00    +0.000 A 
ATOM     31  N   UNL     1      52.463   3.631  19.210  0.00  0.00    +0.000 N 
ATOM     32  C   UNL     1      51.504   4.139  18.362  0.00  0.00    +0.000 A 
ATOM     33  O   UNL     1      51.548   3.930  17.155  0.00  0.00    +0.000 OA
ATOM     34  C   UNL     1      50.544   5.010  19.020  0.00  0.00    +0.000 A 
ATOM     35  H   UNL     1      53.151   3.029  18.780  0.00  0.00    +0.000 HD
ENDBRANCH  23  25
ENDBRANCH  22  23
ENDBRANCH  19  22
ENDBRANCH   1  19
TORSDOF 10
ENDMDL
MODEL 8
REMARK VINA RESULT:    -7.753      2.816      3.474
REMARK INTER + INTRA:         -12.283
REMARK INTER:                 -10.946
REMARK INTRA:                  -1.337
REMARK UNBOUND:                -0.451
REMARK  Name = 
REMARK  11 active torsions:
REMARK  status: ('A' for Active; 'I' for Inactive)
REMARK    1  A    between atoms: C_1  and  C_2
REMARK    2  A    between atoms: C_2  and  N_3
REMARK    3  A    between atoms: C_2  and  C_20
REMARK    4  A    between atoms: N_3  and  C_4
REMARK    5  A    between atoms: C_4  and  C_5
REMARK    6  A    between atoms: C_8  and  C_9
REMARK    7  A    between atoms: C_9  and  O_10
REMARK    8  A    between atoms: C_9  and  C_11
REMARK    9  A    between atoms: C_11  and  N_12
REMARK   10  A    between atoms: C_15  and  O_16
REMARK   11  A    between atoms: C_20  and  C_22
REMARK                            x       y       z     vdW  Elec       q    Type
REMARK                         _______ _______ _______ _____ _____    ______ ____
ROOT
ATOM      1  C   UNL     1      47.535   7.271  13.634  0.00  0.00    +0.000 C 
ENDROOT
BRANCH   1   2
ATOM      2  C   UNL     1      46.696   6.221  12.936  0.00  0.00    +0.000 A 
ATOM      3  C   UNL     1      46.418   4.990  13.552  0.00  0.00    +0.000 A 
ATOM      4  C   UNL     1      45.674   4.009  12.890  0.00  0.00    +0.000 A 
ATOM      5  C   UNL     1      45.180   4.228  11.595  0.00  0.00    +0.000 A 
ATOM      6  C   UNL     1      45.416   5.480  11.004  0.00  0.00    +0.000 A 
ATOM      7  C   UNL     1      46.169   6.459  11.661  0.00  0.00    +0.000 A 
BRANCH   5   8
ATOM      8  C   UNL     1      44.381   3.139  10.907  0.00  0.00    +0.000 C 
BRANCH   8   9
ATOM      9  O   UNL     1      42.996   3.318  11.237  0.00  0.00    +0.000 OA
ATOM     10  H   UNL     1      42.968   3.771  12.098  0.00  0.00    +0.000 HD
ENDBRANCH   8   9
BRANCH   8  11
ATOM     11  C   UNL     1      44.494   3.066   9.359  0.00  0.00    +0.000 C 
BRANCH  11  12
ATOM     12  N   UNL     1      45.840   2.815   8.820  0.00  0.00    +0.000 NA
ATOM     13  C   UNL     1      46.022   1.418   8.391  0.00  0.00    +0.000 C 
ATOM     14  C   UNL     1      46.897   1.486   7.154  0.00  0.00    +0.000 C 
ATOM     15  C   UNL     1      46.436   2.767   6.489  0.00  0.00    +0.000 C 
ATOM     16  C   UNL     1      46.146   3.686   7.672  0.00  0.00    +0.000 C 
BRANCH  15  17
ATOM     17  O   UNL     1      47.423   3.283   5.612  0.00  0.00    +0.000 OA
ATOM     18  H   UNL     1      47.601   2.609   4.934  0.00  0.00    +0.000 HD
ENDBRANCH  15  17
ENDBRANCH  11  12
ENDBRANCH   8  11
ENDBRANCH   5   8
ENDBRANCH   1   2
BRANCH   1  19
ATOM     19  N   UNL     1      48.910   6.798  13.798  0.00  0.00    +0.000 NA
ATOM     20  H   UNL     1      48.903   5.999  14.429  0.00  0.00    +0.000 HD
BRANCH  19  22
ATOM     21  C   UNL     1      50.855   8.260  13.237  0.00  0.00    +0.000 C 
ATOM     22  C   UNL     1      49.869   7.800  14.316  0.00  0.00    +0.000 C 
BRANCH  22  23
ATOM     23  C   UNL     1      50.589   7.335  15.609  0.00  0.00    +0.000 C 
ATOM     24  O   UNL     1      51.690   6.787  15.547  0.00  0.00    +0.000 OA
BRANCH  23  25
ATOM     25  C   UNL     1      49.937   7.537  16.918  0.00  0.00    +0.000 A 
ATOM     26  C   UNL     1      50.202   8.607  17.757  0.00  0.00    +0.000 A 
ATOM     27  S   UNL     1      49.161   8.686  19.110  0.00  0.00    +0.000 S 
ATOM     28  C   UNL     1      48.348   7.271  18.638  0.00  0.00    +0.000 A 
ATOM     29  N   UNL     1      47.298   6.790  19.356  0.00  0.00    +0.000 NA
ATOM     30  C   UNL     1      46.775   5.711  18.874  0.00  0.00    +0.000 A 
ATOM     31  N   UNL     1      47.228   5.055  17.760  0.00  0.00    +0.000 N 
ATOM     32  C   UNL     1      48.363   5.431  17.076  0.00  0.00    +0.000 A 
ATOM     33  O   UNL     1      48.893   4.682  16.264  0.00  0.00    +0.000 OA
ATOM     34  C   UNL     1      48.901   6.715  17.498  0.00  0.00    +0.000 A 
ATOM     35  H   UNL     1      46.836   4.162  17.496  0.00  0.00    +0.000 HD
ENDBRANCH  23  25
ENDBRANCH  22  23
ENDBRANCH  19  22
ENDBRANCH   1  19
TORSDOF 10
ENDMDL
MODEL 9
REMARK VINA RESULT:    -7.499      2.438      3.132
REMARK INTER + INTRA:         -11.895
REMARK INTER:                 -10.520
REMARK INTRA:                  -1.375
REMARK UNBOUND:                -0.451
REMARK  Name = 
REMARK  11 active torsions:
REMARK  status: ('A' for Active; 'I' for Inactive)
REMARK    1  A    between atoms: C_1  and  C_2
REMARK    2  A    between atoms: C_2  and  N_3
REMARK    3  A    between atoms: C_2  and  C_20
REMARK    4  A    between atoms: N_3  and  C_4
REMARK    5  A    between atoms: C_4  and  C_5
REMARK    6  A    between atoms: C_8  and  C_9
REMARK    7  A    between atoms: C_9  and  O_10
REMARK    8  A    between atoms: C_9  and  C_11
REMARK    9  A    between atoms: C_11  and  N_12
REMARK   10  A    between atoms: C_15  and  O_16
REMARK   11  A    between atoms: C_20  and  C_22
REMARK                            x       y       z     vdW  Elec       q    Type
REMARK                         _______ _______ _______ _____ _____    ______ ____
ROOT
ATOM      1  C   UNL     1      47.715   7.971  13.760  0.00  0.00    +0.000 C 
ENDROOT
BRANCH   1   2
ATOM      2  C   UNL     1      46.966   6.780  13.201  0.00  0.00    +0.000 A 
ATOM      3  C   UNL     1      47.011   5.530  13.841  0.00  0.00    +0.000 A 
ATOM      4  C   UNL     1      46.348   4.424  13.301  0.00  0.00    +0.000 A 
ATOM      5  C   UNL     1      45.617   4.531  12.109  0.00  0.00    +0.000 A 
ATOM      6  C   UNL     1      45.531   5.794  11.500  0.00  0.00    +0.000 A 
ATOM      7  C   UNL     1      46.202   6.899  12.033  0.00  0.00    +0.000 A 
BRANCH   5   8
ATOM      8  C   UNL     1      44.915   3.308  11.552  0.00  0.00    +0.000 C 
BRANCH   8   9
ATOM      9  O   UNL     1      44.316   2.595  12.643  0.00  0.00    +0.000 OA
ATOM     10  H   UNL     1      43.580   2.078  12.272  0.00  0.00    +0.000 HD
ENDBRANCH   8   9
BRANCH   8  11
ATOM     11  C   UNL     1      43.809   3.565  10.490  0.00  0.00    +0.000 C 
BRANCH  11  12
ATOM     12  N   UNL     1      44.096   3.081   9.130  0.00  0.00    +0.000 NA
ATOM     13  C   UNL     1      44.900   4.038   8.352  0.00  0.00    +0.000 C 
ATOM     14  C   UNL     1      45.832   3.190   7.506  0.00  0.00    +0.000 C 
ATOM     15  C   UNL     1      46.134   2.017   8.416  0.00  0.00    +0.000 C 
ATOM     16  C   UNL     1      44.810   1.793   9.142  0.00  0.00    +0.000 C 
BRANCH  15  17
ATOM     17  O   UNL     1      46.564   0.884   7.681  0.00  0.00    +0.000 OA
ATOM     18  H   UNL     1      46.755   1.174   6.773  0.00  0.00    +0.000 HD
ENDBRANCH  15  17
ENDBRANCH  11  12
ENDBRANCH   8  11
ENDBRANCH   5   8
ENDBRANCH   1   2
BRANCH   1  19
ATOM     19  N   UNL     1      48.151   7.702  15.131  0.00  0.00    +0.000 NA
ATOM     20  H   UNL     1      47.434   8.042  15.769  0.00  0.00    +0.000 HD
BRANCH  19  22
ATOM     21  C   UNL     1      50.587   7.834  14.602  0.00  0.00    +0.000 C 
ATOM     22  C   UNL     1      49.449   8.302  15.514  0.00  0.00    +0.000 C 
BRANCH  22  23
ATOM     23  C   UNL     1      49.783   8.109  17.017  0.00  0.00    +0.000 C 
ATOM     24  O   UNL     1      50.642   8.805  17.558  0.00  0.00    +0.000 OA
BRANCH  23  25
ATOM     25  C   UNL     1      49.075   7.071  17.793  0.00  0.00    +0.000 A 
ATOM     26  C   UNL     1      47.945   7.313  18.556  0.00  0.00    +0.000 A 
ATOM     27  S   UNL     1      47.230   5.893  19.184  0.00  0.00    +0.000 S 
ATOM     28  C   UNL     1      48.431   4.914  18.486  0.00  0.00    +0.000 A 
ATOM     29  N   UNL     1      48.394   3.560  18.612  0.00  0.00    +0.000 NA
ATOM     30  C   UNL     1      49.369   2.946  18.025  0.00  0.00    +0.000 A 
ATOM     31  N   UNL     1      50.390   3.566  17.354  0.00  0.00    +0.000 N 
ATOM     32  C   UNL     1      50.538   4.935  17.310  0.00  0.00    +0.000 A 
ATOM     33  O   UNL     1      51.588   5.449  16.945  0.00  0.00    +0.000 OA
ATOM     34  C   UNL     1      49.394   5.663  17.836  0.00  0.00    +0.000 A 
ATOM     35  H   UNL     1      51.173   3.032  17.004  0.00  0.00    +0.000 HD
ENDBRANCH  23  25
ENDBRANCH  22  23
ENDBRANCH  19  22
ENDBRANCH   1  19
TORSDOF 10
ENDMDL
