MODEL 1
REMARK VINA RESULT:    -7.236      0.000      0.000
REMARK INTER + INTRA:          -9.505
REMARK INTER:                  -9.139
REMARK INTRA:                  -0.366
REMARK UNBOUND:                -0.366
REMARK  Name = 
REMARK  5 active torsions:
REMARK  status: ('A' for Active; 'I' for Inactive)
REMARK    1  A    between atoms: N_1  and  C_2
REMARK    2  A    between atoms: C_2  and  C_3
REMARK    3  A    between atoms: C_6  and  O_7
REMARK    4  A    between atoms: O_7  and  C_8
REMARK    5  A    between atoms: C_8  and  C_9
REMARK                            x       y       z     vdW  Elec       q    Type
REMARK                         _______ _______ _______ _____ _____    ______ ____
ROOT
ATOM      1  C   UNL     1      46.580   2.331   7.538  0.00  0.00    +0.000 A 
ATOM      2  C   UNL     1      46.386   3.720   7.578  0.00  0.00    +0.000 A 
ATOM      3  C   UNL     1      45.440   4.291   8.438  0.00  0.00    +0.000 A 
ATOM      4  C   UNL     1      44.671   3.476   9.267  0.00  0.00    +0.000 A 
ATOM      5  C   UNL     1      44.883   2.097   9.260  0.00  0.00    +0.000 A 
ATOM      6  C   UNL     1      45.823   1.526   8.398  0.00  0.00    +0.000 A 
ENDROOT
BRANCH   1   7
ATOM      7  C   UNL     1      47.555   1.714   6.568  0.00  0.00    +0.000 C 
BRANCH   7   8
ATOM      8  N   UNL     1      48.681   2.597   6.287  0.00  0.00    +0.000 NA
ATOM      9  H   UNL     1      48.570   2.987   5.353  0.00  0.00    +0.000 HD
ATOM     10  H   UNL     1      49.535   2.039   6.265  0.00  0.00    +0.000 HD
ENDBRANCH   7   8
ENDBRANCH   1   7
BRANCH   4  11
ATOM     11  O   UNL     1      43.728   3.915  10.157  0.00  0.00    +0.000 OA
BRANCH  11  12
ATOM     12  C   UNL     1      43.785   3.323  11.460  0.00  0.00    +0.000 C 
BRANCH  12  13
ATOM     13  C   UNL     1      44.859   4.004  12.286  0.00  0.00    +0.000 A 
ATOM     14  N   UNL     1      45.774   3.214  12.890  0.00  0.00    +0.000 NA
ATOM     15  C   UNL     1      46.721   3.838  13.615  0.00  0.00    +0.000 A 
ATOM     16  C   UNL     1      46.797   5.201  13.757  0.00  0.00    +0.000 A 
ATOM     17  C   UNL     1      45.824   5.919  13.101  0.00  0.00    +0.000 A 
ATOM     18  N   UNL     1      44.852   5.352  12.361  0.00  0.00    +0.000 NA
ENDBRANCH  12  13
ENDBRANCH  11  12
ENDBRANCH   4  11
TORSDOF 5
ENDMDL
MODEL 2
REMARK VINA RESULT:    -7.229      0.153      1.689
REMARK INTER + INTRA:          -9.498
REMARK INTER:                  -9.103
REMARK INTRA:                  -0.395
REMARK UNBOUND:                -0.366
REMARK  Name = 
REMARK  5 active torsions:
REMARK  status: ('A' for Active; 'I' for Inactive)
REMARK    1  A    between atoms: N_1  and  C_2
REMARK    2  A    between atoms: C_2  and  C_3
REMARK    3  A    between atoms: C_6  and  O_7
REMARK    4  A    between atoms: O_7  and  C_8
REMARK    5  A    between atoms: C_8  and  C_9
REMARK                            x       y       z     vdW  Elec       q    Type
REMARK                         _______ _______ _______ _____ _____    ______ ____
ROOT
ATOM      1  C   UNL     1      46.560   2.311   7.546  0.00  0.00    +0.000 A 
ATOM      2  C   UNL     1      45.789   1.509   8.400  0.00  0.00    +0.000 A 
ATOM      3  C   UNL     1      44.844   2.077   9.263  0.00  0.00    +0.000 A 
ATOM      4  C   UNL     1      44.662   3.459   9.285  0.00  0.00    +0.000 A 
ATOM      5  C   UNL     1      45.399   4.260   8.411  0.00  0.00    +0.000 A 
ATOM      6  C   UNL     1      46.346   3.695   7.554  0.00  0.00    +0.000 A 
ENDROOT
BRANCH   1   7
ATOM      7  C   UNL     1      47.619   1.703   6.662  0.00  0.00    +0.000 C 
BRANCH   7   8
ATOM      8  N   UNL     1      48.672   2.656   6.332  0.00  0.00    +0.000 NA
ATOM      9  H   UNL     1      48.620   2.875   5.339  0.00  0.00    +0.000 HD
ATOM     10  H   UNL     1      49.575   2.207   6.480  0.00  0.00    +0.000 HD
ENDBRANCH   7   8
ENDBRANCH   1   7
BRANCH   4  11
ATOM     11  O   UNL     1      43.764   4.128  10.071  0.00  0.00    +0.000 OA
BRANCH  11  12
ATOM     12  C   UNL     1      43.650   3.657  11.419  0.00  0.00    +0.000 C 
BRANCH  12  13
ATOM     13  C   UNL     1      44.820   4.165  12.239  0.00  0.00    +0.000 A 
ATOM     14  N   UNL     1      44.960   5.504  12.363  0.00  0.00    +0.000 NA
ATOM     15  C   UNL     1      46.001   5.935  13.098  0.00  0.00    +0.000 A 
ATOM     16  C   UNL     1      46.897   5.096  13.713  0.00  0.00    +0.000 A 
ATOM     17  C   UNL     1      46.669   3.752  13.534  0.00  0.00    +0.000 A 
ATOM     18  N   UNL     1      45.644   3.261  12.810  0.00  0.00    +0.000 NA
ENDBRANCH  12  13
ENDBRANCH  11  12
ENDBRANCH   4  11
TORSDOF 5
ENDMDL
MODEL 3
REMARK VINA RESULT:    -6.436      1.820      5.727
REMARK INTER + INTRA:          -8.496
REMARK INTER:                  -8.205
REMARK INTRA:                  -0.291
REMARK UNBOUND:                -0.366
REMARK  Name = 
REMARK  5 active torsions:
REMARK  status: ('A' for Active; 'I' for Inactive)
REMARK    1  A    between atoms: N_1  and  C_2
REMARK    2  A    between atoms: C_2  and  C_3
REMARK    3  A    between atoms: C_6  and  O_7
REMARK    4  A    between atoms: O_7  and  C_8
REMARK    5  A    between atoms: C_8  and  C_9
REMARK                            x       y       z     vdW  Elec       q    Type
REMARK                         _______ _______ _______ _____ _____    ______ ____
ROOT
ATOM      1  C   UNL     1      46.504   5.423  12.881  0.00  0.00    +0.000 A 
ATOM      2  C   UNL     1      46.278   6.149  11.702  0.00  0.00    +0.000 A 
ATOM      3  C   UNL     1      45.502   5.616  10.666  0.00  0.00    +0.000 A 
ATOM      4  C   UNL     1      44.945   4.345  10.795  0.00  0.00    +0.000 A 
ATOM      5  C   UNL     1      45.135   3.631  11.979  0.00  0.00    +0.000 A 
ATOM      6  C   UNL     1      45.914   4.160  13.011  0.00  0.00    +0.000 A 
ENDROOT
BRANCH   1   7
ATOM      7  C   UNL     1      47.390   5.973  13.970  0.00  0.00    +0.000 C 
BRANCH   7   8
ATOM      8  N   UNL     1      47.490   5.066  15.107  0.00  0.00    +0.000 NA
ATOM      9  H   UNL     1      46.552   4.816  15.413  0.00  0.00    +0.000 HD
ATOM     10  H   UNL     1      47.922   5.565  15.884  0.00  0.00    +0.000 HD
ENDBRANCH   7   8
ENDBRANCH   1   7
BRANCH   4  11
ATOM     11  O   UNL     1      44.160   3.724   9.861  0.00  0.00    +0.000 OA
BRANCH  11  12
ATOM     12  C   UNL     1      44.494   2.360   9.582  0.00  0.00    +0.000 C 
BRANCH  12  13
ATOM     13  C   UNL     1      45.488   2.299   8.438  0.00  0.00    +0.000 A 
ATOM     14  N   UNL     1      45.574   3.378   7.630  0.00  0.00    +0.000 NA
ATOM     15  C   UNL     1      46.466   3.307   6.624  0.00  0.00    +0.000 A 
ATOM     16  C   UNL     1      47.269   2.218   6.395  0.00  0.00    +0.000 A 
ATOM     17  C   UNL     1      47.111   1.171   7.273  0.00  0.00    +0.000 A 
ATOM     18  N   UNL     1      46.238   1.185   8.298  0.00  0.00    +0.000 NA
ENDBRANCH  12  13
ENDBRANCH  11  12
ENDBRANCH   4  11
TORSDOF 5
ENDMDL
MODEL 4
REMARK VINA RESULT:    -6.078      1.842      2.763
REMARK INTER + INTRA:          -8.043
REMARK INTER:                  -7.809
REMARK INTRA:                  -0.234
REMARK UNBOUND:                -0.366
REMARK  Name = 
REMARK  5 active torsions:
REMARK  status: ('A' for Active; 'I' for Inactive)
REMARK    1  A    between atoms: N_1  and  C_2
REMARK    2  A    between atoms: C_2  and  C_3
REMARK    3  A    between atoms: C_6  and  O_7
REMARK    4  A    between atoms: O_7  and  C_8
REMARK    5  A    between atoms: C_8  and  C_9
REMARK                            x       y       z     vdW  Elec       q    Type
REMARK                         _______ _______ _______ _____ _____    ______ ____
ROOT
ATOM      1  C   UNL     1      46.627   1.833   7.492  0.00  0.00    +0.000 A 
ATOM      2  C   UNL     1      45.640   1.854   8.489  0.00  0.00    +0.000 A 
ATOM      3  C   UNL     1      45.184   3.064   9.025  0.00  0.00    +0.000 A 
ATOM      4  C   UNL     1      45.716   4.271   8.574  0.00  0.00    +0.000 A 
ATOM      5  C   UNL     1      46.672   4.260   7.557  0.00  0.00    +0.000 A 
ATOM      6  C   UNL     1      47.131   3.053   7.025  0.00  0.00    +0.000 A 
ENDROOT
BRANCH   1   7
ATOM      7  C   UNL     1      47.160   0.527   6.960  0.00  0.00    +0.000 C 
BRANCH   7   8
ATOM      8  N   UNL     1      46.793  -0.602   7.806  0.00  0.00    +0.000 NA
ATOM      9  H   UNL     1      45.786  -0.589   7.955  0.00  0.00    +0.000 HD
ATOM     10  H   UNL     1      47.220  -0.473   8.723  0.00  0.00    +0.000 HD
ENDBRANCH   7   8
ENDBRANCH   1   7
BRANCH   4  11
ATOM     11  O   UNL     1      45.344   5.514   9.009  0.00  0.00    +0.000 OA
BRANCH  11  12
ATOM     12  C   UNL     1      45.816   5.880  10.311  0.00  0.00    +0.000 C 
BRANCH  12  13
ATOM     13  C   UNL     1      44.802   5.467  11.359  0.00  0.00    +0.000 A 
ATOM     14  N   UNL     1      43.514   5.820  11.153  0.00  0.00    +0.000 NA
ATOM     15  C   UNL     1      42.628   5.440  12.092  0.00  0.00    +0.000 A 
ATOM     16  C   UNL     1      42.969   4.728  13.215  0.00  0.00    +0.000 A 
ATOM     17  C   UNL     1      44.302   4.412  13.335  0.00  0.00    +0.000 A 
ATOM     18  N   UNL     1      45.234   4.763  12.428  0.00  0.00    +0.000 NA
ENDBRANCH  12  13
ENDBRANCH  11  12
ENDBRANCH   4  11
TORSDOF 5
ENDMDL
MODEL 5
REMARK VINA RESULT:    -6.053      2.063      2.895
REMARK INTER + INTRA:          -8.011
REMARK INTER:                  -7.744
REMARK INTRA:                  -0.267
REMARK UNBOUND:                -0.366
REMARK  Name = 
REMARK  5 active torsions:
REMARK  status: ('A' for Active; 'I' for Inactive)
REMARK    1  A    between atoms: N_1  and  C_2
REMARK    2  A    between atoms: C_2  and  C_3
REMARK    3  A    between atoms: C_6  and  O_7
REMARK    4  A    between atoms: O_7  and  C_8
REMARK    5  A    between atoms: C_8  and  C_9
REMARK                            x       y       z     vdW  Elec       q    Type
REMARK                         _______ _______ _______ _____ _____    ______ ____
ROOT
ATOM      1  C   UNL     1      46.234   2.210   7.901  0.00  0.00    +0.000 A 
ATOM      2  C   UNL     1      45.366   1.805   8.926  0.00  0.00    +0.000 A 
ATOM      3  C   UNL     1      44.715   2.747   9.733  0.00  0.00    +0.000 A 
ATOM      4  C   UNL     1      44.930   4.108   9.526  0.00  0.00    +0.000 A 
ATOM      5  C   UNL     1      45.763   4.520   8.485  0.00  0.00    +0.000 A 
ATOM      6  C   UNL     1      46.417   3.582   7.684  0.00  0.00    +0.000 A 
ENDROOT
BRANCH   1   7
ATOM      7  C   UNL     1      46.981   1.195   7.074  0.00  0.00    +0.000 C 
BRANCH   7   8
ATOM      8  N   UNL     1      46.937  -0.136   7.668  0.00  0.00    +0.000 NA
ATOM      9  H   UNL     1      45.968  -0.381   7.858  0.00  0.00    +0.000 HD
ATOM     10  H   UNL     1      47.408  -0.104   8.572  0.00  0.00    +0.000 HD
ENDBRANCH   7   8
ENDBRANCH   1   7
BRANCH   4  11
ATOM     11  O   UNL     1      44.343   5.120  10.237  0.00  0.00    +0.000 OA
BRANCH  11  12
ATOM     12  C   UNL     1      44.840   5.309  11.568  0.00  0.00    +0.000 C 
BRANCH  12  13
ATOM     13  C   UNL     1      44.978   6.791  11.857  0.00  0.00    +0.000 A 
ATOM     14  N   UNL     1      45.756   7.152  12.901  0.00  0.00    +0.000 NA
ATOM     15  C   UNL     1      45.870   8.472  13.139  0.00  0.00    +0.000 A 
ATOM     16  C   UNL     1      45.250   9.437  12.385  0.00  0.00    +0.000 A 
ATOM     17  C   UNL     1      44.484   8.972  11.342  0.00  0.00    +0.000 A 
ATOM     18  N   UNL     1      44.333   7.665  11.053  0.00  0.00    +0.000 NA
ENDBRANCH  12  13
ENDBRANCH  11  12
ENDBRANCH   4  11
TORSDOF 5
ENDMDL
MODEL 6
REMARK VINA RESULT:    -5.981      2.073      5.882
REMARK INTER + INTRA:          -7.920
REMARK INTER:                  -7.647
REMARK INTRA:                  -0.274
REMARK UNBOUND:                -0.366
REMARK  Name = 
REMARK  5 active torsions:
REMARK  status: ('A' for Active; 'I' for Inactive)
REMARK    1  A    between atoms: N_1  and  C_2
REMARK    2  A    between atoms: C_2  and  C_3
REMARK    3  A    between atoms: C_6  and  O_7
REMARK    4  A    between atoms: O_7  and  C_8
REMARK    5  A    between atoms: C_8  and  C_9
REMARK                            x       y       z     vdW  Elec       q    Type
REMARK                         _______ _______ _______ _____ _____    ______ ____
ROOT
ATOM      1  C   UNL     1      46.269   6.853  12.767  0.00  0.00    +0.000 A 
ATOM      2  C   UNL     1      46.441   5.601  13.375  0.00  0.00    +0.000 A 
ATOM      3  C   UNL     1      45.892   4.444  12.807  0.00  0.00    +0.000 A 
ATOM      4  C   UNL     1      45.159   4.528  11.625  0.00  0.00    +0.000 A 
ATOM      5  C   UNL     1      45.015   5.765  10.995  0.00  0.00    +0.000 A 
ATOM      6  C   UNL     1      45.557   6.920  11.563  0.00  0.00    +0.000 A 
ENDROOT
BRANCH   1   7
ATOM      7  C   UNL     1      46.808   8.105  13.411  0.00  0.00    +0.000 C 
BRANCH   7   8
ATOM      8  N   UNL     1      45.966   9.265  13.146  0.00  0.00    +0.000 NA
ATOM      9  H   UNL     1      45.799   9.331  12.144  0.00  0.00    +0.000 HD
ATOM     10  H   UNL     1      46.479  10.107  13.407  0.00  0.00    +0.000 HD
ENDBRANCH   7   8
ENDBRANCH   1   7
BRANCH   4  11
ATOM     11  O   UNL     1      44.588   3.471  10.969  0.00  0.00    +0.000 OA
BRANCH  11  12
ATOM     12  C   UNL     1      44.191   3.724   9.616  0.00  0.00    +0.000 C 
BRANCH  12  13
ATOM     13  C   UNL     1      45.249   3.198   8.666  0.00  0.00    +0.000 A 
ATOM     14  N   UNL     1      45.569   1.888   8.753  0.00  0.00    +0.000 NA
ATOM     15  C   UNL     1      46.506   1.439   7.898  0.00  0.00    +0.000 A 
ATOM     16  C   UNL     1      47.129   2.232   6.967  0.00  0.00    +0.000 A 
ATOM     17  C   UNL     1      46.734   3.549   6.952  0.00  0.00    +0.000 A 
ATOM     18  N   UNL     1      45.801   4.056   7.781  0.00  0.00    +0.000 NA
ENDBRANCH  12  13
ENDBRANCH  11  12
ENDBRANCH   4  11
TORSDOF 5
ENDMDL
MODEL 7
REMARK VINA RESULT:    -5.561      3.213      4.471
REMARK INTER + INTRA:          -7.391
REMARK INTER:                  -7.149
REMARK INTRA:                  -0.242
REMARK UNBOUND:                -0.366
REMARK  Name = 
REMARK  5 active torsions:
REMARK  status: ('A' for Active; 'I' for Inactive)
REMARK    1  A    between atoms: N_1  and  C_2
REMARK    2  A    between atoms: C_2  and  C_3
REMARK    3  A    between atoms: C_6  and  O_7
REMARK    4  A    between atoms: O_7  and  C_8
REMARK    5  A    between atoms: C_8  and  C_9
REMARK                            x       y       z     vdW  Elec       q    Type
REMARK                         _______ _______ _______ _____ _____    ______ ____
ROOT
ATOM      1  C   UNL     1      44.936   4.363  10.185  0.00  0.00    +0.000 A 
ATOM      2  C   UNL     1      45.491   5.522  10.747  0.00  0.00    +0.000 A 
ATOM      3  C   UNL     1      45.829   5.573  12.106  0.00  0.00    +0.000 A 
ATOM      4  C   UNL     1      45.609   4.463  12.920  0.00  0.00    +0.000 A 
ATOM      5  C   UNL     1      45.091   3.294  12.360  0.00  0.00    +0.000 A 
ATOM      6  C   UNL     1      44.749   3.245  11.007  0.00  0.00    +0.000 A 
ENDROOT
BRANCH   1   7
ATOM      7  C   UNL     1      44.517   4.331   8.737  0.00  0.00    +0.000 C 
BRANCH   7   8
ATOM      8  N   UNL     1      44.489   2.974   8.204  0.00  0.00    +0.000 NA
ATOM      9  H   UNL     1      44.953   2.351   8.861  0.00  0.00    +0.000 HD
ATOM     10  H   UNL     1      45.040   2.950   7.346  0.00  0.00    +0.000 HD
ENDBRANCH   7   8
ENDBRANCH   1   7
BRANCH   4  11
ATOM     11  O   UNL     1      45.908   4.386  14.253  0.00  0.00    +0.000 OA
BRANCH  11  12
ATOM     12  C   UNL     1      47.161   4.964  14.640  0.00  0.00    +0.000 C 
BRANCH  12  13
ATOM     13  C   UNL     1      47.640   4.331  15.932  0.00  0.00    +0.000 A 
ATOM     14  N   UNL     1      48.868   4.676  16.377  0.00  0.00    +0.000 NA
ATOM     15  C   UNL     1      49.273   4.107  17.527  0.00  0.00    +0.000 A 
ATOM     16  C   UNL     1      48.512   3.221  18.247  0.00  0.00    +0.000 A 
ATOM     17  C   UNL     1      47.276   2.935  17.717  0.00  0.00    +0.000 A 
ATOM     18  N   UNL     1      46.814   3.474  16.571  0.00  0.00    +0.000 NA
ENDBRANCH  12  13
ENDBRANCH  11  12
ENDBRANCH   4  11
TORSDOF 5
ENDMDL
MODEL 8
REMARK VINA RESULT:    -5.475      4.181      6.076
REMARK INTER + INTRA:          -7.282
REMARK INTER:                  -7.019
REMARK INTRA:                  -0.263
REMARK UNBOUND:                -0.366
REMARK  Name = 
REMARK  5 active torsions:
REMARK  status: ('A' for Active; 'I' for Inactive)
REMARK    1  A    between atoms: N_1  and  C_2
REMARK    2  A    between atoms: C_2  and  C_3
REMARK    3  A    between atoms: C_6  and  O_7
REMARK    4  A    between atoms: O_7  and  C_8
REMARK    5  A    between atoms: C_8  and  C_9
REMARK                            x       y       z     vdW  Elec       q    Type
REMARK                         _______ _______ _______ _____ _____    ______ ____
ROOT
ATOM      1  C   UNL     1      45.558   5.715  11.954  0.00  0.00    +0.000 A 
ATOM      2  C   UNL     1      45.175   4.366  11.957  0.00  0.00    +0.000 A 
ATOM      3  C   UNL     1      45.796   3.443  12.809  0.00  0.00    +0.000 A 
ATOM      4  C   UNL     1      46.813   3.861  13.666  0.00  0.00    +0.000 A 
ATOM      5  C   UNL     1      47.174   5.208  13.694  0.00  0.00    +0.000 A 
ATOM      6  C   UNL     1      46.559   6.128  12.841  0.00  0.00    +0.000 A 
ENDROOT
BRANCH   1   7
ATOM      7  C   UNL     1      44.931   6.694  10.993  0.00  0.00    +0.000 C 
BRANCH   7   8
ATOM      8  N   UNL     1      43.547   6.993  11.340  0.00  0.00    +0.000 NA
ATOM      9  H   UNL     1      43.019   7.151  10.484  0.00  0.00    +0.000 HD
ATOM     10  H   UNL     1      43.524   7.871  11.858  0.00  0.00    +0.000 HD
ENDBRANCH   7   8
ENDBRANCH   1   7
BRANCH   4  11
ATOM     11  O   UNL     1      47.483   3.060  14.550  0.00  0.00    +0.000 OA
BRANCH  11  12
ATOM     12  C   UNL     1      47.512   3.524  15.905  0.00  0.00    +0.000 C 
BRANCH  12  13
ATOM     13  C   UNL     1      48.867   3.232  16.518  0.00  0.00    +0.000 A 
ATOM     14  N   UNL     1      49.354   1.979  16.386  0.00  0.00    +0.000 NA
ATOM     15  C   UNL     1      50.561   1.741  16.932  0.00  0.00    +0.000 A 
ATOM     16  C   UNL     1      51.297   2.691  17.595  0.00  0.00    +0.000 A 
ATOM     17  C   UNL     1      50.720   3.938  17.674  0.00  0.00    +0.000 A 
ATOM     18  N   UNL     1      49.517   4.236  17.146  0.00  0.00    +0.000 NA
ENDBRANCH  12  13
ENDBRANCH  11  12
ENDBRANCH   4  11
TORSDOF 5
ENDMDL
MODEL 9
REMARK VINA RESULT:    -5.312      3.706      5.664
REMARK INTER + INTRA:          -7.076
REMARK INTER:                  -6.792
REMARK INTRA:                  -0.284
REMARK UNBOUND:                -0.366
REMARK  Name = 
REMARK  5 active torsions:
REMARK  status: ('A' for Active; 'I' for Inactive)
REMARK    1  A    between atoms: N_1  and  C_2
REMARK    2  A    between atoms: C_2  and  C_3
REMARK    3  A    between atoms: C_6  and  O_7
REMARK    4  A    between atoms: O_7  and  C_8
REMARK    5  A    between atoms: C_8  and  C_9
REMARK                            x       y       z     vdW  Elec       q    Type
REMARK                         _______ _______ _______ _____ _____    ______ ____
ROOT
ATOM      1  C   UNL     1      45.126   4.335  11.549  0.00  0.00    +0.000 A 
ATOM      2  C   UNL     1      45.613   5.640  11.714  0.00  0.00    +0.000 A 
ATOM      3  C   UNL     1      46.478   5.958  12.768  0.00  0.00    +0.000 A 
ATOM      4  C   UNL     1      46.863   4.973  13.676  0.00  0.00    +0.000 A 
ATOM      5  C   UNL     1      46.412   3.664  13.497  0.00  0.00    +0.000 A 
ATOM      6  C   UNL     1      45.545   3.347  12.449  0.00  0.00    +0.000 A 
ENDROOT
BRANCH   1   7
ATOM      7  C   UNL     1      44.148   4.008  10.450  0.00  0.00    +0.000 C 
BRANCH   7   8
ATOM      8  N   UNL     1      43.463   5.196   9.954  0.00  0.00    +0.000 NA
ATOM      9  H   UNL     1      44.058   6.008  10.105  0.00  0.00    +0.000 HD
ATOM     10  H   UNL     1      42.624   5.347  10.514  0.00  0.00    +0.000 HD
ENDBRANCH   7   8
ENDBRANCH   1   7
BRANCH   4  11
ATOM     11  O   UNL     1      47.711   5.157  14.734  0.00  0.00    +0.000 OA
BRANCH  11  12
ATOM     12  C   UNL     1      47.427   4.371  15.898  0.00  0.00    +0.000 C 
BRANCH  12  13
ATOM     13  C   UNL     1      48.721   3.863  16.502  0.00  0.00    +0.000 A 
ATOM     14  N   UNL     1      49.579   4.782  16.999  0.00  0.00    +0.000 NA
ATOM     15  C   UNL     1      50.720   4.312  17.535  0.00  0.00    +0.000 A 
ATOM     16  C   UNL     1      51.037   2.978  17.599  0.00  0.00    +0.000 A 
ATOM     17  C   UNL     1      50.100   2.120  17.072  0.00  0.00    +0.000 A 
ATOM     18  N   UNL     1      48.940   2.531  16.524  0.00  0.00    +0.000 NA
ENDBRANCH  12  13
ENDBRANCH  11  12
ENDBRANCH   4  11
TORSDOF 5
ENDMDL
