MODEL 1
REMARK VINA RESULT:    -8.639      0.000      0.000
REMARK INTER + INTRA:         -12.075
REMARK INTER:                 -11.164
REMARK INTRA:                  -0.911
REMARK UNBOUND:                -0.911
REMARK  Name = 
REMARK  6 active torsions:
REMARK  status: ('A' for Active; 'I' for Inactive)
REMARK    1  A    between atoms: C_1  and  C_2
REMARK    2  A    between atoms: C_4  and  C_5
REMARK    3  A    between atoms: C_10  and  N_11
REMARK    4  A    between atoms: N_11  and  C_12
REMARK    5  A    between atoms: C_12  and  C_13
REMARK    6  A    between atoms: C_17  and  C_18
REMARK                            x       y       z     vdW  Elec       q    Type
REMARK                         _______ _______ _______ _____ _____    ______ ____
ROOT
ATOM      1  N   UNL     1      44.015   5.153   9.900  0.00  0.00    +0.000 N 
ATOM      2  H   UNL     1      43.462   5.718   9.266  0.00  0.00    +0.000 HD
ENDROOT
BRANCH   1   9
ATOM      3  C   UNL     1      43.886   2.125  10.538  0.00  0.00    +0.000 C 
ATOM      4  C   UNL     1      44.744   2.816   9.518  0.00  0.00    +0.000 A 
ATOM      5  C   UNL     1      45.603   1.987   8.772  0.00  0.00    +0.000 A 
ATOM      6  C   UNL     1      46.448   2.510   7.800  0.00  0.00    +0.000 A 
ATOM      7  C   UNL     1      46.389   3.875   7.609  0.00  0.00    +0.000 A 
ATOM      8  N   UNL     1      45.572   4.707   8.309  0.00  0.00    +0.000 NA
ATOM      9  C   UNL     1      44.756   4.195   9.263  0.00  0.00    +0.000 A 
BRANCH   6  10
ATOM     10  C   UNL     1      47.327   1.578   7.053  0.00  0.00    +0.000 C 
ATOM     11  N   UNL     1      48.456   2.058   6.454  0.00  0.00    +0.000 N 
ATOM     12  O   UNL     1      47.059   0.383   6.971  0.00  0.00    +0.000 OA
ATOM     13  H   UNL     1      48.773   3.015   6.461  0.00  0.00    +0.000 HD
ATOM     14  H   UNL     1      49.021   1.378   5.959  0.00  0.00    +0.000 HD
ENDBRANCH   6  10
ENDBRANCH   1   9
BRANCH   1  15
ATOM     15  C   UNL     1      43.842   5.310  11.317  0.00  0.00    +0.000 C 
BRANCH  15  16
ATOM     16  C   UNL     1      45.143   5.451  12.059  0.00  0.00    +0.000 A 
ATOM     17  C   UNL     1      45.557   4.503  12.993  0.00  0.00    +0.000 A 
ATOM     18  C   UNL     1      46.830   4.620  13.523  0.00  0.00    +0.000 A 
ATOM     19  N   UNL     1      47.695   5.610  13.205  0.00  0.00    +0.000 NA
ATOM     20  C   UNL     1      47.279   6.558  12.328  0.00  0.00    +0.000 A 
ATOM     21  C   UNL     1      46.014   6.499  11.742  0.00  0.00    +0.000 A 
BRANCH  20  22
ATOM     22  C   UNL     1      48.243   7.633  12.012  0.00  0.00    +0.000 A 
ATOM     23  C   UNL     1      49.584   7.339  11.694  0.00  0.00    +0.000 A 
ATOM     24  C   UNL     1      50.495   8.354  11.382  0.00  0.00    +0.000 A 
ATOM     25  C   UNL     1      50.075   9.677  11.388  0.00  0.00    +0.000 A 
ATOM     26  F   UNL     1      50.946  10.650  11.092  0.00  0.00    +0.000 F 
ATOM     27  C   UNL     1      48.765  10.005  11.701  0.00  0.00    +0.000 A 
ATOM     28  C   UNL     1      47.858   8.990  12.013  0.00  0.00    +0.000 A 
ENDBRANCH  20  22
ENDBRANCH  15  16
ENDBRANCH   1  15
TORSDOF 5
ENDMDL
MODEL 2
REMARK VINA RESULT:    -8.590      3.638      6.689
REMARK INTER + INTRA:         -12.011
REMARK INTER:                 -10.852
REMARK INTRA:                  -1.159
REMARK UNBOUND:                -0.911
REMARK  Name = 
REMARK  6 active torsions:
REMARK  status: ('A' for Active; 'I' for Inactive)
REMARK    1  A    between atoms: C_1  and  C_2
REMARK    2  A    between atoms: C_4  and  C_5
REMARK    3  A    between atoms: C_10  and  N_11
REMARK    4  A    between atoms: N_11  and  C_12
REMARK    5  A    between atoms: C_12  and  C_13
REMARK    6  A    between atoms: C_17  and  C_18
REMARK                            x       y       z     vdW  Elec       q    Type
REMARK                         _______ _______ _______ _____ _____    ______ ____
ROOT
ATOM      1  N   UNL     1      44.512   7.015  12.636  0.00  0.00    +0.000 N 
ATOM      2  H   UNL     1      44.074   7.406  13.462  0.00  0.00    +0.000 HD
ENDROOT
BRANCH   1   9
ATOM      3  C   UNL     1      46.411   4.854  13.782  0.00  0.00    +0.000 C 
ATOM      4  C   UNL     1      46.781   6.172  13.165  0.00  0.00    +0.000 A 
ATOM      5  C   UNL     1      48.157   6.464  13.115  0.00  0.00    +0.000 A 
ATOM      6  C   UNL     1      48.622   7.656  12.570  0.00  0.00    +0.000 A 
ATOM      7  C   UNL     1      47.665   8.520  12.082  0.00  0.00    +0.000 A 
ATOM      8  N   UNL     1      46.328   8.271  12.111  0.00  0.00    +0.000 NA
ATOM      9  C   UNL     1      45.876   7.113  12.651  0.00  0.00    +0.000 A 
BRANCH   6  10
ATOM     10  C   UNL     1      50.085   7.899  12.552  0.00  0.00    +0.000 C 
ATOM     11  N   UNL     1      50.833   7.408  11.520  0.00  0.00    +0.000 N 
ATOM     12  O   UNL     1      50.632   8.538  13.446  0.00  0.00    +0.000 OA
ATOM     13  H   UNL     1      50.489   6.877  10.736  0.00  0.00    +0.000 HD
ATOM     14  H   UNL     1      51.826   7.605  11.557  0.00  0.00    +0.000 HD
ENDBRANCH   6  10
ENDBRANCH   1   9
BRANCH   1  15
ATOM     15  C   UNL     1      43.689   6.576  11.543  0.00  0.00    +0.000 C 
BRANCH  15  16
ATOM     16  C   UNL     1      43.871   5.120  11.214  0.00  0.00    +0.000 A 
ATOM     17  C   UNL     1      43.159   4.126  11.883  0.00  0.00    +0.000 A 
ATOM     18  C   UNL     1      43.265   2.824  11.425  0.00  0.00    +0.000 A 
ATOM     19  N   UNL     1      44.034   2.451  10.377  0.00  0.00    +0.000 NA
ATOM     20  C   UNL     1      44.761   3.410   9.750  0.00  0.00    +0.000 A 
ATOM     21  C   UNL     1      44.695   4.746  10.147  0.00  0.00    +0.000 A 
BRANCH  20  22
ATOM     22  C   UNL     1      45.600   2.966   8.617  0.00  0.00    +0.000 A 
ATOM     23  C   UNL     1      46.003   1.622   8.491  0.00  0.00    +0.000 A 
ATOM     24  C   UNL     1      46.786   1.196   7.413  0.00  0.00    +0.000 A 
ATOM     25  C   UNL     1      47.179   2.113   6.448  0.00  0.00    +0.000 A 
ATOM     26  F   UNL     1      47.930   1.710   5.416  0.00  0.00    +0.000 F 
ATOM     27  C   UNL     1      46.806   3.445   6.540  0.00  0.00    +0.000 A 
ATOM     28  C   UNL     1      46.025   3.867   7.619  0.00  0.00    +0.000 A 
ENDBRANCH  20  22
ENDBRANCH  15  16
ENDBRANCH   1  15
TORSDOF 5
ENDMDL
MODEL 3
REMARK VINA RESULT:    -8.437      2.737      4.069
REMARK INTER + INTRA:         -11.814
REMARK INTER:                 -11.019
REMARK INTRA:                  -0.795
REMARK UNBOUND:                -0.911
REMARK  Name = 
REMARK  6 active torsions:
REMARK  status: ('A' for Active; 'I' for Inactive)
REMARK    1  A    between atoms: C_1  and  C_2
REMARK    2  A    between atoms: C_4  and  C_5
REMARK    3  A    between atoms: C_10  and  N_11
REMARK    4  A    between atoms: N_11  and  C_12
REMARK    5  A    between atoms: C_12  and  C_13
REMARK    6  A    between atoms: C_17  and  C_18
REMARK                            x       y       z     vdW  Elec       q    Type
REMARK                         _______ _______ _______ _____ _____    ______ ____
ROOT
ATOM      1  N   UNL     1      44.228   5.202  10.007  0.00  0.00    +0.000 N 
ATOM      2  H   UNL     1      43.601   5.737   9.418  0.00  0.00    +0.000 HD
ENDROOT
BRANCH   1   9
ATOM      3  C   UNL     1      43.952   2.165  10.549  0.00  0.00    +0.000 C 
ATOM      4  C   UNL     1      44.829   2.844   9.537  0.00  0.00    +0.000 A 
ATOM      5  C   UNL     1      45.632   1.997   8.751  0.00  0.00    +0.000 A 
ATOM      6  C   UNL     1      46.488   2.508   7.782  0.00  0.00    +0.000 A 
ATOM      7  C   UNL     1      46.498   3.880   7.637  0.00  0.00    +0.000 A 
ATOM      8  N   UNL     1      45.736   4.729   8.376  0.00  0.00    +0.000 NA
ATOM      9  C   UNL     1      44.908   4.229   9.327  0.00  0.00    +0.000 A 
BRANCH   6  10
ATOM     10  C   UNL     1      47.307   1.558   6.992  0.00  0.00    +0.000 C 
ATOM     11  N   UNL     1      48.378   2.023   6.284  0.00  0.00    +0.000 N 
ATOM     12  O   UNL     1      47.040   0.360   6.967  0.00  0.00    +0.000 OA
ATOM     13  H   UNL     1      48.688   2.981   6.236  0.00  0.00    +0.000 HD
ATOM     14  H   UNL     1      48.903   1.331   5.763  0.00  0.00    +0.000 HD
ENDBRANCH   6  10
ENDBRANCH   1   9
BRANCH   1  15
ATOM     15  C   UNL     1      44.210   5.409  11.428  0.00  0.00    +0.000 C 
BRANCH  15  16
ATOM     16  C   UNL     1      45.565   5.728  11.997  0.00  0.00    +0.000 A 
ATOM     17  C   UNL     1      46.404   6.667  11.400  0.00  0.00    +0.000 A 
ATOM     18  C   UNL     1      47.568   7.018  12.061  0.00  0.00    +0.000 A 
ATOM     19  N   UNL     1      47.954   6.492  13.246  0.00  0.00    +0.000 NA
ATOM     20  C   UNL     1      47.159   5.547  13.809  0.00  0.00    +0.000 A 
ATOM     21  C   UNL     1      45.964   5.152  13.207  0.00  0.00    +0.000 A 
BRANCH  20  22
ATOM     22  C   UNL     1      47.616   4.983  15.096  0.00  0.00    +0.000 A 
ATOM     23  C   UNL     1      48.398   5.743  15.989  0.00  0.00    +0.000 A 
ATOM     24  C   UNL     1      48.821   5.217  17.214  0.00  0.00    +0.000 A 
ATOM     25  C   UNL     1      48.469   3.919  17.559  0.00  0.00    +0.000 A 
ATOM     26  F   UNL     1      48.874   3.411  18.730  0.00  0.00    +0.000 F 
ATOM     27  C   UNL     1      47.705   3.139  16.705  0.00  0.00    +0.000 A 
ATOM     28  C   UNL     1      47.285   3.667  15.482  0.00  0.00    +0.000 A 
ENDBRANCH  20  22
ENDBRANCH  15  16
ENDBRANCH   1  15
TORSDOF 5
ENDMDL
MODEL 4
REMARK VINA RESULT:    -7.945      4.486      8.199
REMARK INTER + INTRA:         -11.178
REMARK INTER:                 -10.576
REMARK INTRA:                  -0.602
REMARK UNBOUND:                -0.911
REMARK  Name = 
REMARK  6 active torsions:
REMARK  status: ('A' for Active; 'I' for Inactive)
REMARK    1  A    between atoms: C_1  and  C_2
REMARK    2  A    between atoms: C_4  and  C_5
REMARK    3  A    between atoms: C_10  and  N_11
REMARK    4  A    between atoms: N_11  and  C_12
REMARK    5  A    between atoms: C_12  and  C_13
REMARK    6  A    between atoms: C_17  and  C_18
REMARK                            x       y       z     vdW  Elec       q    Type
REMARK                         _______ _______ _______ _____ _____    ______ ____
ROOT
ATOM      1  N   UNL     1      46.747   4.511  13.882  0.00  0.00    +0.000 N 
ATOM      2  H   UNL     1      47.366   4.014  13.253  0.00  0.00    +0.000 HD
ENDROOT
BRANCH   1   9
ATOM      3  C   UNL     1      48.618   6.793  14.824  0.00  0.00    +0.000 C 
ATOM      4  C   UNL     1      48.104   5.632  15.627  0.00  0.00    +0.000 A 
ATOM      5  C   UNL     1      48.537   5.568  16.964  0.00  0.00    +0.000 A 
ATOM      6  C   UNL     1      48.130   4.540  17.806  0.00  0.00    +0.000 A 
ATOM      7  C   UNL     1      47.283   3.600  17.259  0.00  0.00    +0.000 A 
ATOM      8  N   UNL     1      46.843   3.629  15.972  0.00  0.00    +0.000 NA
ATOM      9  C   UNL     1      47.247   4.629  15.151  0.00  0.00    +0.000 A 
BRANCH   6  10
ATOM     10  C   UNL     1      48.627   4.534  19.204  0.00  0.00    +0.000 C 
ATOM     11  N   UNL     1      48.486   3.406  19.960  0.00  0.00    +0.000 N 
ATOM     12  O   UNL     1      49.166   5.525  19.688  0.00  0.00    +0.000 OA
ATOM     13  H   UNL     1      48.066   2.540  19.663  0.00  0.00    +0.000 HD
ATOM     14  H   UNL     1      48.844   3.456  20.906  0.00  0.00    +0.000 HD
ENDBRANCH   6  10
ENDBRANCH   1   9
BRANCH   1  15
ATOM     15  C   UNL     1      45.429   4.870  13.437  0.00  0.00    +0.000 C 
BRANCH  15  16
ATOM     16  C   UNL     1      44.884   3.937  12.392  0.00  0.00    +0.000 A 
ATOM     17  C   UNL     1      43.649   3.310  12.546  0.00  0.00    +0.000 A 
ATOM     18  C   UNL     1      43.145   2.586  11.480  0.00  0.00    +0.000 A 
ATOM     19  N   UNL     1      43.785   2.433  10.298  0.00  0.00    +0.000 NA
ATOM     20  C   UNL     1      45.007   3.008  10.160  0.00  0.00    +0.000 A 
ATOM     21  C   UNL     1      45.574   3.763  11.187  0.00  0.00    +0.000 A 
BRANCH  20  22
ATOM     22  C   UNL     1      45.685   2.810   8.862  0.00  0.00    +0.000 A 
ATOM     23  C   UNL     1      45.920   3.892   7.990  0.00  0.00    +0.000 A 
ATOM     24  C   UNL     1      46.574   3.709   6.767  0.00  0.00    +0.000 A 
ATOM     25  C   UNL     1      46.998   2.440   6.400  0.00  0.00    +0.000 A 
ATOM     26  F   UNL     1      47.622   2.262   5.228  0.00  0.00    +0.000 F 
ATOM     27  C   UNL     1      46.780   1.350   7.228  0.00  0.00    +0.000 A 
ATOM     28  C   UNL     1      46.126   1.535   8.449  0.00  0.00    +0.000 A 
ENDBRANCH  20  22
ENDBRANCH  15  16
ENDBRANCH   1  15
TORSDOF 5
ENDMDL
MODEL 5
REMARK VINA RESULT:    -7.631      3.556      6.795
REMARK INTER + INTRA:         -10.772
REMARK INTER:                  -9.603
REMARK INTRA:                  -1.170
REMARK UNBOUND:                -0.911
REMARK  Name = 
REMARK  6 active torsions:
REMARK  status: ('A' for Active; 'I' for Inactive)
REMARK    1  A    between atoms: C_1  and  C_2
REMARK    2  A    between atoms: C_4  and  C_5
REMARK    3  A    between atoms: C_10  and  N_11
REMARK    4  A    between atoms: N_11  and  C_12
REMARK    5  A    between atoms: C_12  and  C_13
REMARK    6  A    between atoms: C_17  and  C_18
REMARK                            x       y       z     vdW  Elec       q    Type
REMARK                         _______ _______ _______ _____ _____    ______ ____
ROOT
ATOM      1  N   UNL     1      46.143   5.695  13.958  0.00  0.00    +0.000 N 
ATOM      2  H   UNL     1      45.518   6.299  14.480  0.00  0.00    +0.000 HD
ENDROOT
BRANCH   1   9
ATOM      3  C   UNL     1      45.730   7.179  11.271  0.00  0.00    +0.000 C 
ATOM      4  C   UNL     1      46.995   7.058  12.072  0.00  0.00    +0.000 A 
ATOM      5  C   UNL     1      48.132   7.683  11.527  0.00  0.00    +0.000 A 
ATOM      6  C   UNL     1      49.361   7.638  12.175  0.00  0.00    +0.000 A 
ATOM      7  C   UNL     1      49.396   6.956  13.372  0.00  0.00    +0.000 A 
ATOM      8  N   UNL     1      48.319   6.341  13.931  0.00  0.00    +0.000 NA
ATOM      9  C   UNL     1      47.124   6.379  13.293  0.00  0.00    +0.000 A 
BRANCH   6  10
ATOM     10  C   UNL     1      50.517   8.318  11.542  0.00  0.00    +0.000 C 
ATOM     11  N   UNL     1      51.559   7.570  11.073  0.00  0.00    +0.000 N 
ATOM     12  O   UNL     1      50.550   9.540  11.429  0.00  0.00    +0.000 OA
ATOM     13  H   UNL     1      51.634   6.566  11.109  0.00  0.00    +0.000 HD
ATOM     14  H   UNL     1      52.321   8.085  10.648  0.00  0.00    +0.000 HD
ENDBRANCH   6  10
ENDBRANCH   1   9
BRANCH   1  15
ATOM     15  C   UNL     1      45.846   4.294  13.856  0.00  0.00    +0.000 C 
BRANCH  15  16
ATOM     16  C   UNL     1      45.031   3.950  12.639  0.00  0.00    +0.000 A 
ATOM     17  C   UNL     1      43.643   4.068  12.633  0.00  0.00    +0.000 A 
ATOM     18  C   UNL     1      42.975   3.880  11.435  0.00  0.00    +0.000 A 
ATOM     19  N   UNL     1      43.586   3.569  10.269  0.00  0.00    +0.000 NA
ATOM     20  C   UNL     1      44.934   3.412  10.281  0.00  0.00    +0.000 A 
ATOM     21  C   UNL     1      45.676   3.598  11.447  0.00  0.00    +0.000 A 
BRANCH  20  22
ATOM     22  C   UNL     1      45.567   3.059   8.993  0.00  0.00    +0.000 A 
ATOM     23  C   UNL     1      45.885   4.049   8.042  0.00  0.00    +0.000 A 
ATOM     24  C   UNL     1      46.497   3.719   6.828  0.00  0.00    +0.000 A 
ATOM     25  C   UNL     1      46.796   2.392   6.550  0.00  0.00    +0.000 A 
ATOM     26  F   UNL     1      47.380   2.073   5.388  0.00  0.00    +0.000 F 
ATOM     27  C   UNL     1      46.494   1.390   7.459  0.00  0.00    +0.000 A 
ATOM     28  C   UNL     1      45.882   1.722   8.670  0.00  0.00    +0.000 A 
ENDBRANCH  20  22
ENDBRANCH  15  16
ENDBRANCH   1  15
TORSDOF 5
ENDMDL
MODEL 6
REMARK VINA RESULT:    -7.457      4.107      7.515
REMARK INTER + INTRA:         -10.547
REMARK INTER:                  -9.861
REMARK INTRA:                  -0.686
REMARK UNBOUND:                -0.911
REMARK  Name = 
REMARK  6 active torsions:
REMARK  status: ('A' for Active; 'I' for Inactive)
REMARK    1  A    between atoms: C_1  and  C_2
REMARK    2  A    between atoms: C_4  and  C_5
REMARK    3  A    between atoms: C_10  and  N_11
REMARK    4  A    between atoms: N_11  and  C_12
REMARK    5  A    between atoms: C_12  and  C_13
REMARK    6  A    between atoms: C_17  and  C_18
REMARK                            x       y       z     vdW  Elec       q    Type
REMARK                         _______ _______ _______ _____ _____    ______ ____
ROOT
ATOM      1  N   UNL     1      47.339   6.551  13.029  0.00  0.00    +0.000 N 
ATOM      2  H   UNL     1      48.097   6.486  12.360  0.00  0.00    +0.000 HD
ENDROOT
BRANCH   1   9
ATOM      3  C   UNL     1      46.448   3.637  13.582  0.00  0.00    +0.000 C 
ATOM      4  C   UNL     1      47.197   4.561  14.498  0.00  0.00    +0.000 A 
ATOM      5  C   UNL     1      47.521   4.042  15.766  0.00  0.00    +0.000 A 
ATOM      6  C   UNL     1      48.211   4.803  16.703  0.00  0.00    +0.000 A 
ATOM      7  C   UNL     1      48.560   6.080  16.316  0.00  0.00    +0.000 A 
ATOM      8  N   UNL     1      48.266   6.614  15.100  0.00  0.00    +0.000 NA
ATOM      9  C   UNL     1      47.585   5.873  14.192  0.00  0.00    +0.000 A 
BRANCH   6  10
ATOM     10  C   UNL     1      48.517   4.193  18.019  0.00  0.00    +0.000 C 
ATOM     11  N   UNL     1      47.825   4.602  19.123  0.00  0.00    +0.000 N 
ATOM     12  O   UNL     1      49.378   3.325  18.131  0.00  0.00    +0.000 OA
ATOM     13  H   UNL     1      47.099   5.300  19.146  0.00  0.00    +0.000 HD
ATOM     14  H   UNL     1      48.073   4.151  19.996  0.00  0.00    +0.000 HD
ENDBRANCH   6  10
ENDBRANCH   1   9
BRANCH   1  15
ATOM     15  C   UNL     1      46.104   7.173  12.637  0.00  0.00    +0.000 C 
BRANCH  15  16
ATOM     16  C   UNL     1      45.216   6.266  11.831  0.00  0.00    +0.000 A 
ATOM     17  C   UNL     1      43.827   6.330  11.928  0.00  0.00    +0.000 A 
ATOM     18  C   UNL     1      43.074   5.573  11.047  0.00  0.00    +0.000 A 
ATOM     19  N   UNL     1      43.602   4.757  10.107  0.00  0.00    +0.000 NA
ATOM     20  C   UNL     1      44.954   4.660  10.039  0.00  0.00    +0.000 A 
ATOM     21  C   UNL     1      45.778   5.403  10.884  0.00  0.00    +0.000 A 
BRANCH  20  22
ATOM     22  C   UNL     1      45.498   3.749   9.010  0.00  0.00    +0.000 A 
ATOM     23  C   UNL     1      46.102   4.249   7.839  0.00  0.00    +0.000 A 
ATOM     24  C   UNL     1      46.630   3.390   6.870  0.00  0.00    +0.000 A 
ATOM     25  C   UNL     1      46.556   2.017   7.060  0.00  0.00    +0.000 A 
ATOM     26  F   UNL     1      47.058   1.191   6.132  0.00  0.00    +0.000 F 
ATOM     27  C   UNL     1      45.964   1.487   8.196  0.00  0.00    +0.000 A 
ATOM     28  C   UNL     1      45.437   2.348   9.161  0.00  0.00    +0.000 A 
ENDBRANCH  20  22
ENDBRANCH  15  16
ENDBRANCH   1  15
TORSDOF 5
ENDMDL
MODEL 7
REMARK VINA RESULT:    -7.093      3.877      7.562
REMARK INTER + INTRA:         -10.077
REMARK INTER:                  -9.129
REMARK INTRA:                  -0.948
REMARK UNBOUND:                -0.911
REMARK  Name = 
REMARK  6 active torsions:
REMARK  status: ('A' for Active; 'I' for Inactive)
REMARK    1  A    between atoms: C_1  and  C_2
REMARK    2  A    between atoms: C_4  and  C_5
REMARK    3  A    between atoms: C_10  and  N_11
REMARK    4  A    between atoms: N_11  and  C_12
REMARK    5  A    between atoms: C_12  and  C_13
REMARK    6  A    between atoms: C_17  and  C_18
REMARK                            x       y       z     vdW  Elec       q    Type
REMARK                         _______ _______ _______ _____ _____    ______ ____
ROOT
ATOM      1  N   UNL     1      46.693   4.709  13.820  0.00  0.00    +0.000 N 
ATOM      2  H   UNL     1      47.072   3.778  13.690  0.00  0.00    +0.000 HD
ENDROOT
BRANCH   1   9
ATOM      3  C   UNL     1      47.538   6.926  11.829  0.00  0.00    +0.000 C 
ATOM      4  C   UNL     1      48.080   6.668  13.205  0.00  0.00    +0.000 A 
ATOM      5  C   UNL     1      49.106   7.531  13.634  0.00  0.00    +0.000 A 
ATOM      6  C   UNL     1      49.690   7.391  14.889  0.00  0.00    +0.000 A 
ATOM      7  C   UNL     1      49.204   6.370  15.678  0.00  0.00    +0.000 A 
ATOM      8  N   UNL     1      48.214   5.518  15.298  0.00  0.00    +0.000 NA
ATOM      9  C   UNL     1      47.653   5.652  14.072  0.00  0.00    +0.000 A 
BRANCH   6  10
ATOM     10  C   UNL     1      50.767   8.334  15.275  0.00  0.00    +0.000 C 
ATOM     11  N   UNL     1      50.470   9.397  16.079  0.00  0.00    +0.000 N 
ATOM     12  O   UNL     1      51.920   8.172  14.887  0.00  0.00    +0.000 OA
ATOM     13  H   UNL     1      49.563   9.622  16.457  0.00  0.00    +0.000 HD
ATOM     14  H   UNL     1      51.243  10.008  16.314  0.00  0.00    +0.000 HD
ENDBRANCH   6  10
ENDBRANCH   1   9
BRANCH   1  15
ATOM     15  C   UNL     1      45.269   4.890  13.879  0.00  0.00    +0.000 C 
BRANCH  15  16
ATOM     16  C   UNL     1      44.595   4.708  12.547  0.00  0.00    +0.000 A 
ATOM     17  C   UNL     1      43.331   5.236  12.292  0.00  0.00    +0.000 A 
ATOM     18  C   UNL     1      42.839   5.161  11.000  0.00  0.00    +0.000 A 
ATOM     19  N   UNL     1      43.502   4.587   9.970  0.00  0.00    +0.000 NA
ATOM     20  C   UNL     1      44.715   4.035  10.226  0.00  0.00    +0.000 A 
ATOM     21  C   UNL     1      45.281   4.084  11.500  0.00  0.00    +0.000 A 
BRANCH  20  22
ATOM     22  C   UNL     1      45.406   3.405   9.081  0.00  0.00    +0.000 A 
ATOM     23  C   UNL     1      45.888   4.177   8.005  0.00  0.00    +0.000 A 
ATOM     24  C   UNL     1      46.555   3.585   6.928  0.00  0.00    +0.000 A 
ATOM     25  C   UNL     1      46.744   2.210   6.912  0.00  0.00    +0.000 A 
ATOM     26  F   UNL     1      47.380   1.640   5.880  0.00  0.00    +0.000 F 
ATOM     27  C   UNL     1      46.280   1.416   7.949  0.00  0.00    +0.000 A 
ATOM     28  C   UNL     1      45.614   2.011   9.024  0.00  0.00    +0.000 A 
ENDBRANCH  20  22
ENDBRANCH  15  16
ENDBRANCH   1  15
TORSDOF 5
ENDMDL
MODEL 8
REMARK VINA RESULT:    -6.735      5.469      7.245
REMARK INTER + INTRA:          -9.615
REMARK INTER:                  -9.033
REMARK INTRA:                  -0.582
REMARK UNBOUND:                -0.911
REMARK  Name = 
REMARK  6 active torsions:
REMARK  status: ('A' for Active; 'I' for Inactive)
REMARK    1  A    between atoms: C_1  and  C_2
REMARK    2  A    between atoms: C_4  and  C_5
REMARK    3  A    between atoms: C_10  and  N_11
REMARK    4  A    between atoms: N_11  and  C_12
REMARK    5  A    between atoms: C_12  and  C_13
REMARK    6  A    between atoms: C_17  and  C_18
REMARK                            x       y       z     vdW  Elec       q    Type
REMARK                         _______ _______ _______ _____ _____    ______ ____
ROOT
ATOM      1  N   UNL     1      47.008   5.206  14.805  0.00  0.00    +0.000 N 
ATOM      2  H   UNL     1      47.358   6.154  14.875  0.00  0.00    +0.000 HD
ENDROOT
BRANCH   1   9
ATOM      3  C   UNL     1      46.304   7.367  12.701  0.00  0.00    +0.000 C 
ATOM      4  C   UNL     1      46.007   5.896  12.646  0.00  0.00    +0.000 A 
ATOM      5  C   UNL     1      45.313   5.450  11.505  0.00  0.00    +0.000 A 
ATOM      6  C   UNL     1      44.979   4.111  11.341  0.00  0.00    +0.000 A 
ATOM      7  C   UNL     1      45.369   3.255  12.350  0.00  0.00    +0.000 A 
ATOM      8  N   UNL     1      46.041   3.649  13.465  0.00  0.00    +0.000 NA
ATOM      9  C   UNL     1      46.359   4.957  13.626  0.00  0.00    +0.000 A 
BRANCH   6  10
ATOM     10  C   UNL     1      44.245   3.712  10.116  0.00  0.00    +0.000 C 
ATOM     11  N   UNL     1      44.007   4.641   9.145  0.00  0.00    +0.000 N 
ATOM     12  O   UNL     1      43.854   2.558   9.959  0.00  0.00    +0.000 OA
ATOM     13  H   UNL     1      44.284   5.610   9.168  0.00  0.00    +0.000 HD
ATOM     14  H   UNL     1      43.503   4.315   8.329  0.00  0.00    +0.000 HD
ENDBRANCH   6  10
ENDBRANCH   1   9
BRANCH   1  15
ATOM     15  C   UNL     1      47.088   4.338  15.946  0.00  0.00    +0.000 C 
BRANCH  15  16
ATOM     16  C   UNL     1      48.273   4.628  16.827  0.00  0.00    +0.000 A 
ATOM     17  C   UNL     1      48.300   5.735  17.673  0.00  0.00    +0.000 A 
ATOM     18  C   UNL     1      49.354   5.853  18.562  0.00  0.00    +0.000 A 
ATOM     19  N   UNL     1      50.374   4.969  18.649  0.00  0.00    +0.000 NA
ATOM     20  C   UNL     1      50.372   3.913  17.797  0.00  0.00    +0.000 A 
ATOM     21  C   UNL     1      49.336   3.720  16.883  0.00  0.00    +0.000 A 
BRANCH  20  22
ATOM     22  C   UNL     1      51.507   2.973  17.910  0.00  0.00    +0.000 A 
ATOM     23  C   UNL     1      52.708   3.353  18.542  0.00  0.00    +0.000 A 
ATOM     24  C   UNL     1      53.779   2.462  18.662  0.00  0.00    +0.000 A 
ATOM     25  C   UNL     1      53.662   1.178  18.147  0.00  0.00    +0.000 A 
ATOM     26  F   UNL     1      54.687   0.323  18.258  0.00  0.00    +0.000 F 
ATOM     27  C   UNL     1      52.499   0.769  17.514  0.00  0.00    +0.000 A 
ATOM     28  C   UNL     1      51.431   1.662  17.395  0.00  0.00    +0.000 A 
ENDBRANCH  20  22
ENDBRANCH  15  16
ENDBRANCH   1  15
TORSDOF 5
ENDMDL
MODEL 9
REMARK VINA RESULT:    -6.726      4.782      8.236
REMARK INTER + INTRA:          -9.603
REMARK INTER:                  -8.634
REMARK INTRA:                  -0.969
REMARK UNBOUND:                -0.911
REMARK  Name = 
REMARK  6 active torsions:
REMARK  status: ('A' for Active; 'I' for Inactive)
REMARK    1  A    between atoms: C_1  and  C_2
REMARK    2  A    between atoms: C_4  and  C_5
REMARK    3  A    between atoms: C_10  and  N_11
REMARK    4  A    between atoms: N_11  and  C_12
REMARK    5  A    between atoms: C_12  and  C_13
REMARK    6  A    between atoms: C_17  and  C_18
REMARK                            x       y       z     vdW  Elec       q    Type
REMARK                         _______ _______ _______ _____ _____    ______ ____
ROOT
ATOM      1  N   UNL     1      48.876   6.729  14.326  0.00  0.00    +0.000 N 
ATOM      2  H   UNL     1      49.334   6.059  13.719  0.00  0.00    +0.000 HD
ENDROOT
BRANCH   1   9
ATOM      3  C   UNL     1      47.094   4.280  14.972  0.00  0.00    +0.000 C 
ATOM      4  C   UNL     1      47.846   5.152  15.936  0.00  0.00    +0.000 A 
ATOM      5  C   UNL     1      47.711   4.824  17.298  0.00  0.00    +0.000 A 
ATOM      6  C   UNL     1      48.356   5.560  18.285  0.00  0.00    +0.000 A 
ATOM      7  C   UNL     1      49.131   6.615  17.853  0.00  0.00    +0.000 A 
ATOM      8  N   UNL     1      49.286   6.962  16.547  0.00  0.00    +0.000 NA
ATOM      9  C   UNL     1      48.649   6.248  15.587  0.00  0.00    +0.000 A 
BRANCH   6  10
ATOM     10  C   UNL     1      48.169   5.158  19.700  0.00  0.00    +0.000 C 
ATOM     11  N   UNL     1      48.538   3.905  20.096  0.00  0.00    +0.000 N 
ATOM     12  O   UNL     1      47.691   5.936  20.521  0.00  0.00    +0.000 OA
ATOM     13  H   UNL     1      48.941   3.191  19.510  0.00  0.00    +0.000 HD
ATOM     14  H   UNL     1      48.389   3.684  21.073  0.00  0.00    +0.000 HD
ENDBRANCH   6  10
ENDBRANCH   1   9
BRANCH   1  15
ATOM     15  C   UNL     1      48.405   7.971  13.778  0.00  0.00    +0.000 C 
BRANCH  15  16
ATOM     16  C   UNL     1      47.106   7.832  13.033  0.00  0.00    +0.000 A 
ATOM     17  C   UNL     1      46.220   8.900  12.907  0.00  0.00    +0.000 A 
ATOM     18  C   UNL     1      45.120   8.744  12.082  0.00  0.00    +0.000 A 
ATOM     19  N   UNL     1      44.838   7.609  11.402  0.00  0.00    +0.000 NA
ATOM     20  C   UNL     1      45.677   6.553  11.557  0.00  0.00    +0.000 A 
ATOM     21  C   UNL     1      46.813   6.641  12.361  0.00  0.00    +0.000 A 
BRANCH  20  22
ATOM     22  C   UNL     1      45.334   5.324  10.811  0.00  0.00    +0.000 A 
ATOM     23  C   UNL     1      44.723   4.228  11.453  0.00  0.00    +0.000 A 
ATOM     24  C   UNL     1      44.384   3.069  10.746  0.00  0.00    +0.000 A 
ATOM     25  C   UNL     1      44.657   2.992   9.387  0.00  0.00    +0.000 A 
ATOM     26  F   UNL     1      44.337   1.882   8.709  0.00  0.00    +0.000 F 
ATOM     27  C   UNL     1      45.262   4.047   8.722  0.00  0.00    +0.000 A 
ATOM     28  C   UNL     1      45.599   5.203   9.431  0.00  0.00    +0.000 A 
ENDBRANCH  20  22
ENDBRANCH  15  16
ENDBRANCH   1  15
TORSDOF 5
ENDMDL
