MODEL 1
REMARK VINA RESULT:    -7.800      0.000      0.000
REMARK INTER + INTRA:         -12.710
REMARK INTER:                 -11.448
REMARK INTRA:                  -1.262
REMARK UNBOUND:                -1.262
REMARK  Name = 
REMARK  9 active torsions:
REMARK  status: ('A' for Active; 'I' for Inactive)
REMARK    1  A    between atoms: C_1  and  C_2
REMARK    2  A    between atoms: C_2  and  O_3
REMARK    3  A    between atoms: O_3  and  C_4
REMARK    4  A    between atoms: C_6  and  C_7
REMARK    5  A    between atoms: C_7  and  N_8
REMARK    6  A    between atoms: C_9  and  C_11
REMARK    7  A    between atoms: C_18  and  C_19
REMARK    8  A    between atoms: C_19  and  N_20
REMARK    9  A    between atoms: C_21  and  C_23
REMARK                            x       y       z     vdW  Elec       q    Type
REMARK                         _______ _______ _______ _____ _____    ______ ____
ROOT
ATOM      1  C   UNL     1      45.313   8.198  12.280  0.00  0.00    +0.000 A 
ATOM      2  C   UNL     1      44.563   7.392  11.411  0.00  0.00    +0.000 A 
ATOM      3  C   UNL     1      44.984   6.104  11.057  0.00  0.00    +0.000 A 
ATOM      4  C   UNL     1      46.208   5.638  11.542  0.00  0.00    +0.000 A 
ATOM      5  C   UNL     1      46.961   6.428  12.415  0.00  0.00    +0.000 A 
ATOM      6  C   UNL     1      46.508   7.697  12.823  0.00  0.00    +0.000 A 
ENDROOT
BRANCH   1   7
ATOM      7  O   UNL     1      44.929   9.465  12.652  0.00  0.00    +0.000 OA
BRANCH   7   9
ATOM      8  C   UNL     1      45.984  11.278  11.471  0.00  0.00    +0.000 C 
ATOM      9  C   UNL     1      44.754  10.401  11.584  0.00  0.00    +0.000 C 
ENDBRANCH   7   9
ENDBRANCH   1   7
BRANCH   3  10
ATOM     10  C   UNL     1      44.113   5.272  10.153  0.00  0.00    +0.000 C 
BRANCH  10  11
ATOM     11  N   UNL     1      44.895   4.501   9.225  0.00  0.00    +0.000 N 
ATOM     12  C   UNL     1      44.934   3.123   9.202  0.00  0.00    +0.000 C 
ATOM     13  O   UNL     1      44.284   2.439   9.976  0.00  0.00    +0.000 OA
ATOM     14  H   UNL     1      45.379   4.996   8.487  0.00  0.00    +0.000 HD
BRANCH  12  15
ATOM     15  C   UNL     1      45.827   2.559   8.188  0.00  0.00    +0.000 A 
ATOM     16  C   UNL     1      46.286   1.257   8.102  0.00  0.00    +0.000 A 
ATOM     17  C   UNL     1      47.167   1.054   6.999  0.00  0.00    +0.000 A 
ATOM     18  C   UNL     1      47.354   2.208   6.271  0.00  0.00    +0.000 A 
ATOM     19  S   UNL     1      46.465   3.516   6.910  0.00  0.00    +0.000 S 
ENDBRANCH  12  15
ENDBRANCH  10  11
ENDBRANCH   3  10
BRANCH   6  20
ATOM     20  C   UNL     1      47.318   8.463  13.843  0.00  0.00    +0.000 C 
BRANCH  20  21
ATOM     21  N   UNL     1      47.762   7.635  14.938  0.00  0.00    +0.000 N 
ATOM     22  C   UNL     1      49.043   7.162  15.054  0.00  0.00    +0.000 C 
ATOM     23  O   UNL     1      49.908   7.382  14.212  0.00  0.00    +0.000 OA
ATOM     24  H   UNL     1      47.113   7.548  15.712  0.00  0.00    +0.000 HD
BRANCH  22  25
ATOM     25  C   UNL     1      49.321   6.331  16.233  0.00  0.00    +0.000 A 
ATOM     26  C   UNL     1      50.265   6.737  17.168  0.00  0.00    +0.000 A 
ATOM     27  S   UNL     1      50.404   5.678  18.499  0.00  0.00    +0.000 S 
ATOM     28  C   UNL     1      49.135   4.702  17.920  0.00  0.00    +0.000 A 
ATOM     29  N   UNL     1      48.636   3.681  18.668  0.00  0.00    +0.000 NA
ATOM     30  C   UNL     1      47.645   3.058  18.121  0.00  0.00    +0.000 A 
ATOM     31  N   UNL     1      47.148   3.324  16.871  0.00  0.00    +0.000 N 
ATOM     32  C   UNL     1      47.684   4.284  16.047  0.00  0.00    +0.000 A 
ATOM     33  O   UNL     1      47.332   4.384  14.877  0.00  0.00    +0.000 OA
ATOM     34  C   UNL     1      48.709   5.099  16.667  0.00  0.00    +0.000 A 
ATOM     35  H   UNL     1      46.420   2.753  16.469  0.00  0.00    +0.000 HD
ENDBRANCH  22  25
ENDBRANCH  20  21
ENDBRANCH   6  20
TORSDOF 8
ENDMDL
MODEL 2
REMARK VINA RESULT:    -7.591      1.734      2.905
REMARK INTER + INTRA:         -12.404
REMARK INTER:                 -10.765
REMARK INTRA:                  -1.638
REMARK UNBOUND:                -1.262
REMARK  Name = 
REMARK  9 active torsions:
REMARK  status: ('A' for Active; 'I' for Inactive)
REMARK    1  A    between atoms: C_1  and  C_2
REMARK    2  A    between atoms: C_2  and  O_3
REMARK    3  A    between atoms: O_3  and  C_4
REMARK    4  A    between atoms: C_6  and  C_7
REMARK    5  A    between atoms: C_7  and  N_8
REMARK    6  A    between atoms: C_9  and  C_11
REMARK    7  A    between atoms: C_18  and  C_19
REMARK    8  A    between atoms: C_19  and  N_20
REMARK    9  A    between atoms: C_21  and  C_23
REMARK                            x       y       z     vdW  Elec       q    Type
REMARK                         _______ _______ _______ _____ _____    ______ ____
ROOT
ATOM      1  C   UNL     1      46.744   6.236  13.043  0.00  0.00    +0.000 A 
ATOM      2  C   UNL     1      45.876   5.539  12.191  0.00  0.00    +0.000 A 
ATOM      3  C   UNL     1      44.932   6.205  11.398  0.00  0.00    +0.000 A 
ATOM      4  C   UNL     1      44.823   7.593  11.505  0.00  0.00    +0.000 A 
ATOM      5  C   UNL     1      45.687   8.301  12.345  0.00  0.00    +0.000 A 
ATOM      6  C   UNL     1      46.679   7.639  13.093  0.00  0.00    +0.000 A 
ENDROOT
BRANCH   1   7
ATOM      7  O   UNL     1      47.684   5.616  13.832  0.00  0.00    +0.000 OA
BRANCH   7   9
ATOM      8  C   UNL     1      47.194   4.335  15.810  0.00  0.00    +0.000 C 
ATOM      9  C   UNL     1      47.339   4.309  14.303  0.00  0.00    +0.000 C 
ENDBRANCH   7   9
ENDBRANCH   1   7
BRANCH   3  10
ATOM     10  C   UNL     1      44.057   5.402  10.472  0.00  0.00    +0.000 C 
BRANCH  10  11
ATOM     11  N   UNL     1      44.836   4.622   9.549  0.00  0.00    +0.000 N 
ATOM     12  C   UNL     1      44.723   3.256   9.402  0.00  0.00    +0.000 C 
ATOM     13  O   UNL     1      43.928   2.593  10.049  0.00  0.00    +0.000 OA
ATOM     14  H   UNL     1      45.442   5.114   8.906  0.00  0.00    +0.000 HD
BRANCH  12  15
ATOM     15  C   UNL     1      45.643   2.674   8.422  0.00  0.00    +0.000 A 
ATOM     16  C   UNL     1      46.030   1.350   8.315  0.00  0.00    +0.000 A 
ATOM     17  C   UNL     1      46.964   1.133   7.259  0.00  0.00    +0.000 A 
ATOM     18  C   UNL     1      47.262   2.297   6.588  0.00  0.00    +0.000 A 
ATOM     19  S   UNL     1      46.412   3.634   7.221  0.00  0.00    +0.000 S 
ENDBRANCH  12  15
ENDBRANCH  10  11
ENDBRANCH   3  10
BRANCH   6  20
ATOM     20  C   UNL     1      47.646   8.467  13.907  0.00  0.00    +0.000 C 
BRANCH  20  21
ATOM     21  N   UNL     1      47.860   7.933  15.230  0.00  0.00    +0.000 N 
ATOM     22  C   UNL     1      48.334   8.679  16.277  0.00  0.00    +0.000 C 
ATOM     23  O   UNL     1      48.646   9.860  16.159  0.00  0.00    +0.000 OA
ATOM     24  H   UNL     1      47.488   7.004  15.393  0.00  0.00    +0.000 HD
BRANCH  22  25
ATOM     25  C   UNL     1      48.492   7.973  17.556  0.00  0.00    +0.000 A 
ATOM     26  C   UNL     1      47.816   8.414  18.686  0.00  0.00    +0.000 A 
ATOM     27  S   UNL     1      48.072   7.433  20.059  0.00  0.00    +0.000 S 
ATOM     28  C   UNL     1      49.008   6.332  19.160  0.00  0.00    +0.000 A 
ATOM     29  N   UNL     1      49.430   5.159  19.704  0.00  0.00    +0.000 NA
ATOM     30  C   UNL     1      50.090   4.403  18.891  0.00  0.00    +0.000 A 
ATOM     31  N   UNL     1      50.417   4.739  17.602  0.00  0.00    +0.000 N 
ATOM     32  C   UNL     1      50.090   5.951  17.045  0.00  0.00    +0.000 A 
ATOM     33  O   UNL     1      50.540   6.291  15.956  0.00  0.00    +0.000 OA
ATOM     34  C   UNL     1      49.235   6.778  17.871  0.00  0.00    +0.000 A 
ATOM     35  H   UNL     1      50.999   4.136  17.040  0.00  0.00    +0.000 HD
ENDBRANCH  22  25
ENDBRANCH  20  21
ENDBRANCH   6  20
TORSDOF 8
ENDMDL
MODEL 3
REMARK VINA RESULT:    -7.171      4.518      9.224
REMARK INTER + INTRA:         -11.787
REMARK INTER:                 -10.524
REMARK INTRA:                  -1.263
REMARK UNBOUND:                -1.262
REMARK  Name = 
REMARK  9 active torsions:
REMARK  status: ('A' for Active; 'I' for Inactive)
REMARK    1  A    between atoms: C_1  and  C_2
REMARK    2  A    between atoms: C_2  and  O_3
REMARK    3  A    between atoms: O_3  and  C_4
REMARK    4  A    between atoms: C_6  and  C_7
REMARK    5  A    between atoms: C_7  and  N_8
REMARK    6  A    between atoms: C_9  and  C_11
REMARK    7  A    between atoms: C_18  and  C_19
REMARK    8  A    between atoms: C_19  and  N_20
REMARK    9  A    between atoms: C_21  and  C_23
REMARK                            x       y       z     vdW  Elec       q    Type
REMARK                         _______ _______ _______ _____ _____    ______ ____
ROOT
ATOM      1  C   UNL     1      49.535   4.719  17.836  0.00  0.00    +0.000 A 
ATOM      2  C   UNL     1      50.911   4.503  18.003  0.00  0.00    +0.000 A 
ATOM      3  C   UNL     1      51.497   3.259  17.739  0.00  0.00    +0.000 A 
ATOM      4  C   UNL     1      50.677   2.197  17.353  0.00  0.00    +0.000 A 
ATOM      5  C   UNL     1      49.306   2.400  17.175  0.00  0.00    +0.000 A 
ATOM      6  C   UNL     1      48.725   3.666  17.378  0.00  0.00    +0.000 A 
ENDROOT
BRANCH   1   7
ATOM      7  O   UNL     1      48.927   5.927  18.082  0.00  0.00    +0.000 OA
BRANCH   7   9
ATOM      8  C   UNL     1      48.018   5.761  20.305  0.00  0.00    +0.000 C 
ATOM      9  C   UNL     1      49.050   6.426  19.418  0.00  0.00    +0.000 C 
ENDBRANCH   7   9
ENDBRANCH   1   7
BRANCH   3  10
ATOM     10  C   UNL     1      52.987   3.103  17.898  0.00  0.00    +0.000 C 
BRANCH  10  11
ATOM     11  N   UNL     1      53.429   1.797  17.494  0.00  0.00    +0.000 N 
ATOM     12  C   UNL     1      54.066   0.903  18.329  0.00  0.00    +0.000 C 
ATOM     13  O   UNL     1      54.296   1.153  19.501  0.00  0.00    +0.000 OA
ATOM     14  H   UNL     1      53.182   1.477  16.566  0.00  0.00    +0.000 HD
BRANCH  12  15
ATOM     15  C   UNL     1      54.452  -0.356  17.686  0.00  0.00    +0.000 A 
ATOM     16  C   UNL     1      54.733  -0.565  16.347  0.00  0.00    +0.000 A 
ATOM     17  C   UNL     1      55.050  -1.925  16.057  0.00  0.00    +0.000 A 
ATOM     18  C   UNL     1      55.005  -2.715  17.182  0.00  0.00    +0.000 A 
ATOM     19  S   UNL     1      54.595  -1.820  18.575  0.00  0.00    +0.000 S 
ENDBRANCH  12  15
ENDBRANCH  10  11
ENDBRANCH   3  10
BRANCH   6  20
ATOM     20  C   UNL     1      47.255   3.847  17.076  0.00  0.00    +0.000 C 
BRANCH  20  21
ATOM     21  N   UNL     1      47.023   4.610  15.873  0.00  0.00    +0.000 N 
ATOM     22  C   UNL     1      47.117   4.078  14.614  0.00  0.00    +0.000 C 
ATOM     23  O   UNL     1      47.440   2.912  14.411  0.00  0.00    +0.000 OA
ATOM     24  H   UNL     1      46.627   5.533  16.010  0.00  0.00    +0.000 HD
BRANCH  22  25
ATOM     25  C   UNL     1      46.849   4.999  13.501  0.00  0.00    +0.000 A 
ATOM     26  C   UNL     1      47.550   6.194  13.399  0.00  0.00    +0.000 A 
ATOM     27  S   UNL     1      47.150   7.100  12.009  0.00  0.00    +0.000 S 
ATOM     28  C   UNL     1      46.109   5.876  11.448  0.00  0.00    +0.000 A 
ATOM     29  N   UNL     1      45.539   5.948  10.215  0.00  0.00    +0.000 NA
ATOM     30  C   UNL     1      44.811   4.927   9.906  0.00  0.00    +0.000 A 
ATOM     31  N   UNL     1      44.553   3.869  10.741  0.00  0.00    +0.000 N 
ATOM     32  C   UNL     1      45.033   3.803  12.026  0.00  0.00    +0.000 A 
ATOM     33  O   UNL     1      44.651   2.935  12.803  0.00  0.00    +0.000 OA
ATOM     34  C   UNL     1      45.963   4.858  12.372  0.00  0.00    +0.000 A 
ATOM     35  H   UNL     1      43.916   3.136  10.468  0.00  0.00    +0.000 HD
ENDBRANCH  22  25
ENDBRANCH  20  21
ENDBRANCH   6  20
TORSDOF 8
ENDMDL
MODEL 4
REMARK VINA RESULT:    -6.979      2.648      3.330
REMARK INTER + INTRA:         -11.505
REMARK INTER:                 -10.385
REMARK INTRA:                  -1.120
REMARK UNBOUND:                -1.262
REMARK  Name = 
REMARK  9 active torsions:
REMARK  status: ('A' for Active; 'I' for Inactive)
REMARK    1  A    between atoms: C_1  and  C_2
REMARK    2  A    between atoms: C_2  and  O_3
REMARK    3  A    between atoms: O_3  and  C_4
REMARK    4  A    between atoms: C_6  and  C_7
REMARK    5  A    between atoms: C_7  and  N_8
REMARK    6  A    between atoms: C_9  and  C_11
REMARK    7  A    between atoms: C_18  and  C_19
REMARK    8  A    between atoms: C_19  and  N_20
REMARK    9  A    between atoms: C_21  and  C_23
REMARK                            x       y       z     vdW  Elec       q    Type
REMARK                         _______ _______ _______ _____ _____    ______ ____
ROOT
ATOM      1  C   UNL     1      47.686   6.513  13.659  0.00  0.00    +0.000 A 
ATOM      2  C   UNL     1      46.737   5.835  12.881  0.00  0.00    +0.000 A 
ATOM      3  C   UNL     1      46.095   4.680  13.345  0.00  0.00    +0.000 A 
ATOM      4  C   UNL     1      46.456   4.166  14.593  0.00  0.00    +0.000 A 
ATOM      5  C   UNL     1      47.395   4.836  15.382  0.00  0.00    +0.000 A 
ATOM      6  C   UNL     1      47.992   6.032  14.943  0.00  0.00    +0.000 A 
ENDROOT
BRANCH   1   7
ATOM      7  O   UNL     1      48.332   7.651  13.237  0.00  0.00    +0.000 OA
BRANCH   7   9
ATOM      8  C   UNL     1      48.172   9.563  11.782  0.00  0.00    +0.000 C 
ATOM      9  C   UNL     1      48.064   8.056  11.890  0.00  0.00    +0.000 C 
ENDBRANCH   7   9
ENDBRANCH   1   7
BRANCH   3  10
ATOM     10  C   UNL     1      45.054   4.022  12.479  0.00  0.00    +0.000 C 
BRANCH  10  11
ATOM     11  N   UNL     1      45.524   3.838  11.132  0.00  0.00    +0.000 N 
ATOM     12  C   UNL     1      44.865   3.093  10.178  0.00  0.00    +0.000 C 
ATOM     13  O   UNL     1      43.805   2.532  10.404  0.00  0.00    +0.000 OA
ATOM     14  H   UNL     1      46.342   4.357  10.840  0.00  0.00    +0.000 HD
BRANCH  12  15
ATOM     15  C   UNL     1      45.551   3.023   8.885  0.00  0.00    +0.000 A 
ATOM     16  C   UNL     1      45.851   4.072   8.035  0.00  0.00    +0.000 A 
ATOM     17  C   UNL     1      46.503   3.644   6.840  0.00  0.00    +0.000 A 
ATOM     18  C   UNL     1      46.684   2.279   6.814  0.00  0.00    +0.000 A 
ATOM     19  S   UNL     1      46.082   1.528   8.222  0.00  0.00    +0.000 S 
ENDBRANCH  12  15
ENDBRANCH  10  11
ENDBRANCH   3  10
BRANCH   6  20
ATOM     20  C   UNL     1      48.927   6.762  15.880  0.00  0.00    +0.000 C 
BRANCH  20  21
ATOM     21  N   UNL     1      50.045   5.952  16.296  0.00  0.00    +0.000 N 
ATOM     22  C   UNL     1      50.155   5.405  17.548  0.00  0.00    +0.000 C 
ATOM     23  O   UNL     1      49.320   5.592  18.427  0.00  0.00    +0.000 OA
ATOM     24  H   UNL     1      50.679   5.669  15.558  0.00  0.00    +0.000 HD
BRANCH  22  25
ATOM     25  C   UNL     1      51.362   4.607  17.801  0.00  0.00    +0.000 A 
ATOM     26  C   UNL     1      52.509   5.212  18.299  0.00  0.00    +0.000 A 
ATOM     27  S   UNL     1      53.785   4.116  18.590  0.00  0.00    +0.000 S 
ATOM     28  C   UNL     1      52.810   2.789  18.161  0.00  0.00    +0.000 A 
ATOM     29  N   UNL     1      53.249   1.512  18.328  0.00  0.00    +0.000 NA
ATOM     30  C   UNL     1      52.385   0.607  18.004  0.00  0.00    +0.000 A 
ATOM     31  N   UNL     1      51.147   0.863  17.474  0.00  0.00    +0.000 N 
ATOM     32  C   UNL     1      50.703   2.134  17.204  0.00  0.00    +0.000 A 
ATOM     33  O   UNL     1      49.667   2.325  16.576  0.00  0.00    +0.000 OA
ATOM     34  C   UNL     1      51.580   3.187  17.673  0.00  0.00    +0.000 A 
ATOM     35  H   UNL     1      50.546   0.111  17.172  0.00  0.00    +0.000 HD
ENDBRANCH  22  25
ENDBRANCH  20  21
ENDBRANCH   6  20
TORSDOF 8
ENDMDL
MODEL 5
REMARK VINA RESULT:    -6.898      2.005      2.347
REMARK INTER + INTRA:         -11.386
REMARK INTER:                 -10.280
REMARK INTRA:                  -1.106
REMARK UNBOUND:                -1.262
REMARK  Name = 
REMARK  9 active torsions:
REMARK  status: ('A' for Active; 'I' for Inactive)
REMARK    1  A    between atoms: C_1  and  C_2
REMARK    2  A    between atoms: C_2  and  O_3
REMARK    3  A    between atoms: O_3  and  C_4
REMARK    4  A    between atoms: C_6  and  C_7
REMARK    5  A    between atoms: C_7  and  N_8
REMARK    6  A    between atoms: C_9  and  C_11
REMARK    7  A    between atoms: C_18  and  C_19
REMARK    8  A    between atoms: C_19  and  N_20
REMARK    9  A    between atoms: C_21  and  C_23
REMARK                            x       y       z     vdW  Elec       q    Type
REMARK                         _______ _______ _______ _____ _____    ______ ____
ROOT
ATOM      1  C   UNL     1      46.312   6.927  12.552  0.00  0.00    +0.000 A 
ATOM      2  C   UNL     1      45.531   5.932  11.946  0.00  0.00    +0.000 A 
ATOM      3  C   UNL     1      45.561   4.603  12.386  0.00  0.00    +0.000 A 
ATOM      4  C   UNL     1      46.434   4.256  13.420  0.00  0.00    +0.000 A 
ATOM      5  C   UNL     1      47.213   5.239  14.038  0.00  0.00    +0.000 A 
ATOM      6  C   UNL     1      47.135   6.586  13.639  0.00  0.00    +0.000 A 
ENDROOT
BRANCH   1   7
ATOM      7  O   UNL     1      46.304   8.241  12.149  0.00  0.00    +0.000 OA
BRANCH   7   9
ATOM      8  C   UNL     1      45.096  10.276  11.707  0.00  0.00    +0.000 C 
ATOM      9  C   UNL     1      45.148   8.999  12.520  0.00  0.00    +0.000 C 
ENDBRANCH   7   9
ENDBRANCH   1   7
BRANCH   3  10
ATOM     10  C   UNL     1      44.667   3.591  11.720  0.00  0.00    +0.000 C 
BRANCH  10  11
ATOM     11  N   UNL     1      45.312   2.973  10.593  0.00  0.00    +0.000 N 
ATOM     12  C   UNL     1      45.057   3.303   9.279  0.00  0.00    +0.000 C 
ATOM     13  O   UNL     1      44.256   4.170   8.967  0.00  0.00    +0.000 OA
ATOM     14  H   UNL     1      46.062   2.319  10.775  0.00  0.00    +0.000 HD
BRANCH  12  15
ATOM     15  C   UNL     1      45.812   2.517   8.300  0.00  0.00    +0.000 A 
ATOM     16  C   UNL     1      46.040   1.153   8.314  0.00  0.00    +0.000 A 
ATOM     17  C   UNL     1      46.842   0.717   7.217  0.00  0.00    +0.000 A 
ATOM     18  C   UNL     1      47.201   1.762   6.396  0.00  0.00    +0.000 A 
ATOM     19  S   UNL     1      46.566   3.249   6.939  0.00  0.00    +0.000 S 
ENDBRANCH  12  15
ENDBRANCH  10  11
ENDBRANCH   3  10
BRANCH   6  20
ATOM     20  C   UNL     1      47.927   7.618  14.409  0.00  0.00    +0.000 C 
BRANCH  20  21
ATOM     21  N   UNL     1      49.188   7.107  14.890  0.00  0.00    +0.000 N 
ATOM     22  C   UNL     1      49.470   6.928  16.219  0.00  0.00    +0.000 C 
ATOM     23  O   UNL     1      48.678   7.221  17.109  0.00  0.00    +0.000 OA
ATOM     24  H   UNL     1      49.808   6.731  14.182  0.00  0.00    +0.000 HD
BRANCH  22  25
ATOM     25  C   UNL     1      50.805   6.399  16.532  0.00  0.00    +0.000 A 
ATOM     26  C   UNL     1      51.929   7.199  16.373  0.00  0.00    +0.000 A 
ATOM     27  S   UNL     1      53.380   6.436  16.847  0.00  0.00    +0.000 S 
ATOM     28  C   UNL     1      52.540   5.053  17.375  0.00  0.00    +0.000 A 
ATOM     29  N   UNL     1      53.180   4.051  18.036  0.00  0.00    +0.000 NA
ATOM     30  C   UNL     1      52.407   3.089  18.418  0.00  0.00    +0.000 A 
ATOM     31  N   UNL     1      51.065   3.009  18.147  0.00  0.00    +0.000 N 
ATOM     32  C   UNL     1      50.400   3.954  17.405  0.00  0.00    +0.000 A 
ATOM     33  O   UNL     1      49.245   3.773  17.036  0.00  0.00    +0.000 OA
ATOM     34  C   UNL     1      51.193   5.118  17.068  0.00  0.00    +0.000 A 
ATOM     35  H   UNL     1      50.530   2.195  18.409  0.00  0.00    +0.000 HD
ENDBRANCH  22  25
ENDBRANCH  20  21
ENDBRANCH   6  20
TORSDOF 8
ENDMDL
MODEL 6
REMARK VINA RESULT:    -6.863      2.667      3.667
REMARK INTER + INTRA:         -11.335
REMARK INTER:                 -10.241
REMARK INTRA:                  -1.094
REMARK UNBOUND:                -1.262
REMARK  Name = 
REMARK  9 active torsions:
REMARK  status: ('A' for Active; 'I' for Inactive)
REMARK    1  A    between atoms: C_1  and  C_2
REMARK    2  A    between atoms: C_2  and  O_3
REMARK    3  A    between atoms: O_3  and  C_4
REMARK    4  A    between atoms: C_6  and  C_7
REMARK    5  A    between atoms: C_7  and  N_8
REMARK    6  A    between atoms: C_9  and  C_11
REMARK    7  A    between atoms: C_18  and  C_19
REMARK    8  A    between atoms: C_19  and  N_20
REMARK    9  A    between atoms: C_21  and  C_23
REMARK                            x       y       z     vdW  Elec       q    Type
REMARK                         _______ _______ _______ _____ _____    ______ ____
ROOT
ATOM      1  C   UNL     1      46.766   5.997  13.218  0.00  0.00    +0.000 A 
ATOM      2  C   UNL     1      45.983   5.903  12.059  0.00  0.00    +0.000 A 
ATOM      3  C   UNL     1      45.371   4.702  11.680  0.00  0.00    +0.000 A 
ATOM      4  C   UNL     1      45.595   3.560  12.452  0.00  0.00    +0.000 A 
ATOM      5  C   UNL     1      46.366   3.641  13.615  0.00  0.00    +0.000 A 
ATOM      6  C   UNL     1      46.929   4.862  14.031  0.00  0.00    +0.000 A 
ENDROOT
BRANCH   1   7
ATOM      7  O   UNL     1      47.378   7.160  13.622  0.00  0.00    +0.000 OA
BRANCH   7   9
ATOM      8  C   UNL     1      49.442   7.349  12.397  0.00  0.00    +0.000 C 
ATOM      9  C   UNL     1      48.046   7.901  12.595  0.00  0.00    +0.000 C 
ENDBRANCH   7   9
ENDBRANCH   1   7
BRANCH   3  10
ATOM     10  C   UNL     1      44.508   4.677  10.446  0.00  0.00    +0.000 C 
BRANCH  10  11
ATOM     11  N   UNL     1      45.239   4.214   9.297  0.00  0.00    +0.000 N 
ATOM     12  C   UNL     1      45.237   2.909   8.853  0.00  0.00    +0.000 C 
ATOM     13  O   UNL     1      44.593   2.032   9.406  0.00  0.00    +0.000 OA
ATOM     14  H   UNL     1      45.713   4.903   8.728  0.00  0.00    +0.000 HD
BRANCH  12  15
ATOM     15  C   UNL     1      46.082   2.667   7.681  0.00  0.00    +0.000 A 
ATOM     16  C   UNL     1      46.275   3.505   6.597  0.00  0.00    +0.000 A 
ATOM     17  C   UNL     1      47.145   2.945   5.615  0.00  0.00    +0.000 A 
ATOM     18  C   UNL     1      47.593   1.695   5.978  0.00  0.00    +0.000 A 
ATOM     19  S   UNL     1      46.978   1.212   7.494  0.00  0.00    +0.000 S 
ENDBRANCH  12  15
ENDBRANCH  10  11
ENDBRANCH   3  10
BRANCH   6  20
ATOM     20  C   UNL     1      47.671   4.909  15.347  0.00  0.00    +0.000 C 
BRANCH  20  21
ATOM     21  N   UNL     1      47.944   6.255  15.786  0.00  0.00    +0.000 N 
ATOM     22  C   UNL     1      49.187   6.687  16.167  0.00  0.00    +0.000 C 
ATOM     23  O   UNL     1      50.165   5.945  16.194  0.00  0.00    +0.000 OA
ATOM     24  H   UNL     1      47.193   6.922  15.647  0.00  0.00    +0.000 HD
BRANCH  22  25
ATOM     25  C   UNL     1      49.285   8.091  16.587  0.00  0.00    +0.000 A 
ATOM     26  C   UNL     1      50.067   8.984  15.865  0.00  0.00    +0.000 A 
ATOM     27  S   UNL     1      50.005  10.581  16.465  0.00  0.00    +0.000 S 
ATOM     28  C   UNL     1      48.851  10.149  17.639  0.00  0.00    +0.000 A 
ATOM     29  N   UNL     1      48.249  11.092  18.414  0.00  0.00    +0.000 NA
ATOM     30  C   UNL     1      47.362  10.624  19.227  0.00  0.00    +0.000 A 
ATOM     31  N   UNL     1      47.065   9.293  19.379  0.00  0.00    +0.000 N 
ATOM     32  C   UNL     1      47.714   8.303  18.683  0.00  0.00    +0.000 A 
ATOM     33  O   UNL     1      47.549   7.120  18.960  0.00  0.00    +0.000 OA
ATOM     34  C   UNL     1      48.623   8.786  17.663  0.00  0.00    +0.000 A 
ATOM     35  H   UNL     1      46.413   8.984  20.084  0.00  0.00    +0.000 HD
ENDBRANCH  22  25
ENDBRANCH  20  21
ENDBRANCH   6  20
TORSDOF 8
ENDMDL
MODEL 7
REMARK VINA RESULT:    -6.822      2.598      3.666
REMARK INTER + INTRA:         -11.275
REMARK INTER:                 -10.389
REMARK INTRA:                  -0.886
REMARK UNBOUND:                -1.262
REMARK  Name = 
REMARK  9 active torsions:
REMARK  status: ('A' for Active; 'I' for Inactive)
REMARK    1  A    between atoms: C_1  and  C_2
REMARK    2  A    between atoms: C_2  and  O_3
REMARK    3  A    between atoms: O_3  and  C_4
REMARK    4  A    between atoms: C_6  and  C_7
REMARK    5  A    between atoms: C_7  and  N_8
REMARK    6  A    between atoms: C_9  and  C_11
REMARK    7  A    between atoms: C_18  and  C_19
REMARK    8  A    between atoms: C_19  and  N_20
REMARK    9  A    between atoms: C_21  and  C_23
REMARK                            x       y       z     vdW  Elec       q    Type
REMARK                         _______ _______ _______ _____ _____    ______ ____
ROOT
ATOM      1  C   UNL     1      45.181   4.671  13.213  0.00  0.00    +0.000 A 
ATOM      2  C   UNL     1      45.183   5.145  11.893  0.00  0.00    +0.000 A 
ATOM      3  C   UNL     1      46.248   5.899  11.384  0.00  0.00    +0.000 A 
ATOM      4  C   UNL     1      47.306   6.229  12.234  0.00  0.00    +0.000 A 
ATOM      5  C   UNL     1      47.321   5.756  13.549  0.00  0.00    +0.000 A 
ATOM      6  C   UNL     1      46.282   4.945  14.043  0.00  0.00    +0.000 A 
ENDROOT
BRANCH   1   7
ATOM      7  O   UNL     1      44.155   3.926  13.744  0.00  0.00    +0.000 OA
BRANCH   7   9
ATOM      8  C   UNL     1      43.463   2.434  11.987  0.00  0.00    +0.000 C 
ATOM      9  C   UNL     1      43.081   3.618  12.850  0.00  0.00    +0.000 C 
ENDBRANCH   7   9
ENDBRANCH   1   7
BRANCH   3  10
ATOM     10  C   UNL     1      46.209   6.343   9.945  0.00  0.00    +0.000 C 
BRANCH  10  11
ATOM     11  N   UNL     1      46.558   5.274   9.050  0.00  0.00    +0.000 N 
ATOM     12  C   UNL     1      45.649   4.394   8.503  0.00  0.00    +0.000 C 
ATOM     13  O   UNL     1      44.453   4.464   8.732  0.00  0.00    +0.000 OA
ATOM     14  H   UNL     1      47.518   5.216   8.732  0.00  0.00    +0.000 HD
BRANCH  12  15
ATOM     15  C   UNL     1      46.243   3.367   7.643  0.00  0.00    +0.000 A 
ATOM     16  C   UNL     1      46.839   3.546   6.408  0.00  0.00    +0.000 A 
ATOM     17  C   UNL     1      47.289   2.323   5.830  0.00  0.00    +0.000 A 
ATOM     18  C   UNL     1      47.026   1.243   6.642  0.00  0.00    +0.000 A 
ATOM     19  S   UNL     1      46.254   1.707   8.091  0.00  0.00    +0.000 S 
ENDBRANCH  12  15
ENDBRANCH  10  11
ENDBRANCH   3  10
BRANCH   6  20
ATOM     20  C   UNL     1      46.401   4.384  15.441  0.00  0.00    +0.000 C 
BRANCH  20  21
ATOM     21  N   UNL     1      47.767   4.320  15.901  0.00  0.00    +0.000 N 
ATOM     22  C   UNL     1      48.125   4.447  17.218  0.00  0.00    +0.000 C 
ATOM     23  O   UNL     1      47.308   4.659  18.108  0.00  0.00    +0.000 OA
ATOM     24  H   UNL     1      48.447   4.014  15.214  0.00  0.00    +0.000 HD
BRANCH  22  25
ATOM     25  C   UNL     1      49.562   4.357  17.509  0.00  0.00    +0.000 A 
ATOM     26  C   UNL     1      50.231   5.439  18.067  0.00  0.00    +0.000 A 
ATOM     27  S   UNL     1      51.877   5.127  18.393  0.00  0.00    +0.000 S 
ATOM     28  C   UNL     1      51.720   3.506  17.898  0.00  0.00    +0.000 A 
ATOM     29  N   UNL     1      52.739   2.620  18.060  0.00  0.00    +0.000 NA
ATOM     30  C   UNL     1      52.461   1.416  17.683  0.00  0.00    +0.000 A 
ATOM     31  N   UNL     1      51.279   1.032  17.103  0.00  0.00    +0.000 N 
ATOM     32  C   UNL     1      50.261   1.915  16.838  0.00  0.00    +0.000 A 
ATOM     33  O   UNL     1      49.289   1.580  16.169  0.00  0.00    +0.000 OA
ATOM     34  C   UNL     1      50.472   3.248  17.364  0.00  0.00    +0.000 A 
ATOM     35  H   UNL     1      51.149   0.091  16.762  0.00  0.00    +0.000 HD
ENDBRANCH  22  25
ENDBRANCH  20  21
ENDBRANCH   6  20
TORSDOF 8
ENDMDL
MODEL 8
REMARK VINA RESULT:    -6.679      3.005      4.986
REMARK INTER + INTRA:         -11.065
REMARK INTER:                  -9.496
REMARK INTRA:                  -1.569
REMARK UNBOUND:                -1.262
REMARK  Name = 
REMARK  9 active torsions:
REMARK  status: ('A' for Active; 'I' for Inactive)
REMARK    1  A    between atoms: C_1  and  C_2
REMARK    2  A    between atoms: C_2  and  O_3
REMARK    3  A    between atoms: O_3  and  C_4
REMARK    4  A    between atoms: C_6  and  C_7
REMARK    5  A    between atoms: C_7  and  N_8
REMARK    6  A    between atoms: C_9  and  C_11
REMARK    7  A    between atoms: C_18  and  C_19
REMARK    8  A    between atoms: C_19  and  N_20
REMARK    9  A    between atoms: C_21  and  C_23
REMARK                            x       y       z     vdW  Elec       q    Type
REMARK                         _______ _______ _______ _____ _____    ______ ____
ROOT
ATOM      1  C   UNL     1      48.350   6.001  15.286  0.00  0.00    +0.000 A 
ATOM      2  C   UNL     1      47.899   6.184  13.971  0.00  0.00    +0.000 A 
ATOM      3  C   UNL     1      47.825   7.455  13.389  0.00  0.00    +0.000 A 
ATOM      4  C   UNL     1      48.159   8.569  14.162  0.00  0.00    +0.000 A 
ATOM      5  C   UNL     1      48.618   8.401  15.471  0.00  0.00    +0.000 A 
ATOM      6  C   UNL     1      48.754   7.119  16.036  0.00  0.00    +0.000 A 
ENDROOT
BRANCH   1   7
ATOM      7  O   UNL     1      48.439   4.768  15.888  0.00  0.00    +0.000 OA
BRANCH   7   9
ATOM      8  C   UNL     1      47.092   3.473  17.407  0.00  0.00    +0.000 C 
ATOM      9  C   UNL     1      47.210   4.043  16.008  0.00  0.00    +0.000 C 
ENDBRANCH   7   9
ENDBRANCH   1   7
BRANCH   3  10
ATOM     10  C   UNL     1      47.371   7.580  11.958  0.00  0.00    +0.000 C 
BRANCH  10  11
ATOM     11  N   UNL     1      46.697   6.392  11.510  0.00  0.00    +0.000 N 
ATOM     12  C   UNL     1      45.351   6.327  11.221  0.00  0.00    +0.000 C 
ATOM     13  O   UNL     1      44.615   7.297  11.316  0.00  0.00    +0.000 OA
ATOM     14  H   UNL     1      47.260   5.575  11.309  0.00  0.00    +0.000 HD
BRANCH  12  15
ATOM     15  C   UNL     1      44.882   5.001  10.811  0.00  0.00    +0.000 A 
ATOM     16  C   UNL     1      44.222   4.066  11.588  0.00  0.00    +0.000 A 
ATOM     17  C   UNL     1      43.933   2.864  10.877  0.00  0.00    +0.000 A 
ATOM     18  C   UNL     1      44.380   2.916   9.576  0.00  0.00    +0.000 A 
ATOM     19  S   UNL     1      45.128   4.407   9.217  0.00  0.00    +0.000 S 
ENDBRANCH  12  15
ENDBRANCH  10  11
ENDBRANCH   3  10
BRANCH   6  20
ATOM     20  C   UNL     1      49.347   6.995  17.420  0.00  0.00    +0.000 C 
BRANCH  20  21
ATOM     21  N   UNL     1      50.531   6.172  17.448  0.00  0.00    +0.000 N 
ATOM     22  C   UNL     1      50.699   5.121  18.311  0.00  0.00    +0.000 C 
ATOM     23  O   UNL     1      49.861   4.819  19.155  0.00  0.00    +0.000 OA
ATOM     24  H   UNL     1      51.178   6.310  16.679  0.00  0.00    +0.000 HD
BRANCH  22  25
ATOM     25  C   UNL     1      51.968   4.391  18.202  0.00  0.00    +0.000 A 
ATOM     26  C   UNL     1      53.160   5.000  18.575  0.00  0.00    +0.000 A 
ATOM     27  S   UNL     1      54.519   3.976  18.441  0.00  0.00    +0.000 S 
ATOM     28  C   UNL     1      53.544   2.658  17.982  0.00  0.00    +0.000 A 
ATOM     29  N   UNL     1      54.067   1.409  17.850  0.00  0.00    +0.000 NA
ATOM     30  C   UNL     1      53.201   0.501  17.544  0.00  0.00    +0.000 A 
ATOM     31  N   UNL     1      51.873   0.738  17.299  0.00  0.00    +0.000 N 
ATOM     32  C   UNL     1      51.324   1.996  17.331  0.00  0.00    +0.000 A 
ATOM     33  O   UNL     1      50.179   2.200  16.944  0.00  0.00    +0.000 OA
ATOM     34  C   UNL     1      52.225   3.030  17.801  0.00  0.00    +0.000 A 
ATOM     35  H   UNL     1      51.261  -0.003  16.992  0.00  0.00    +0.000 HD
ENDBRANCH  22  25
ENDBRANCH  20  21
ENDBRANCH   6  20
TORSDOF 8
ENDMDL
MODEL 9
REMARK VINA RESULT:    -6.392      3.152      4.396
REMARK INTER + INTRA:         -10.644
REMARK INTER:                  -9.129
REMARK INTRA:                  -1.515
REMARK UNBOUND:                -1.262
REMARK  Name = 
REMARK  9 active torsions:
REMARK  status: ('A' for Active; 'I' for Inactive)
REMARK    1  A    between atoms: C_1  and  C_2
REMARK    2  A    between atoms: C_2  and  O_3
REMARK    3  A    between atoms: O_3  and  C_4
REMARK    4  A    between atoms: C_6  and  C_7
REMARK    5  A    between atoms: C_7  and  N_8
REMARK    6  A    between atoms: C_9  and  C_11
REMARK    7  A    between atoms: C_18  and  C_19
REMARK    8  A    between atoms: C_19  and  N_20
REMARK    9  A    between atoms: C_21  and  C_23
REMARK                            x       y       z     vdW  Elec       q    Type
REMARK                         _______ _______ _______ _____ _____    ______ ____
ROOT
ATOM      1  C   UNL     1      45.430   7.937  12.600  0.00  0.00    +0.000 A 
ATOM      2  C   UNL     1      44.696   6.934  11.952  0.00  0.00    +0.000 A 
ATOM      3  C   UNL     1      45.140   5.607  11.912  0.00  0.00    +0.000 A 
ATOM      4  C   UNL     1      46.372   5.292  12.488  0.00  0.00    +0.000 A 
ATOM      5  C   UNL     1      47.111   6.280  13.145  0.00  0.00    +0.000 A 
ATOM      6  C   UNL     1      46.635   7.601  13.242  0.00  0.00    +0.000 A 
ENDROOT
BRANCH   1   7
ATOM      7  O   UNL     1      45.022   9.249  12.663  0.00  0.00    +0.000 OA
BRANCH   7   9
ATOM      8  C   UNL     1      45.858  11.109  11.384  0.00  0.00    +0.000 C 
ATOM      9  C   UNL     1      44.912   9.927  11.407  0.00  0.00    +0.000 C 
ENDBRANCH   7   9
ENDBRANCH   1   7
BRANCH   3  10
ATOM     10  C   UNL     1      44.284   4.568  11.235  0.00  0.00    +0.000 C 
BRANCH  10  11
ATOM     11  N   UNL     1      45.058   3.735  10.355  0.00  0.00    +0.000 N 
ATOM     12  C   UNL     1      44.890   3.687   8.987  0.00  0.00    +0.000 C 
ATOM     13  O   UNL     1      44.063   4.371   8.407  0.00  0.00    +0.000 OA
ATOM     14  H   UNL     1      45.832   3.217  10.751  0.00  0.00    +0.000 HD
BRANCH  12  15
ATOM     15  C   UNL     1      45.773   2.740   8.302  0.00  0.00    +0.000 A 
ATOM     16  C   UNL     1      45.828   1.368   8.472  0.00  0.00    +0.000 A 
ATOM     17  C   UNL     1      46.827   0.752   7.661  0.00  0.00    +0.000 A 
ATOM     18  C   UNL     1      47.505   1.672   6.892  0.00  0.00    +0.000 A 
ATOM     19  S   UNL     1      46.931   3.259   7.142  0.00  0.00    +0.000 S 
ENDBRANCH  12  15
ENDBRANCH  10  11
ENDBRANCH   3  10
BRANCH   6  20
ATOM     20  C   UNL     1      47.430   8.602  14.048  0.00  0.00    +0.000 C 
BRANCH  20  21
ATOM     21  N   UNL     1      48.736   8.854  13.490  0.00  0.00    +0.000 N 
ATOM     22  C   UNL     1      49.904   8.581  14.153  0.00  0.00    +0.000 C 
ATOM     23  O   UNL     1      49.927   8.127  15.293  0.00  0.00    +0.000 OA
ATOM     24  H   UNL     1      48.753   9.100  12.507  0.00  0.00    +0.000 HD
BRANCH  22  25
ATOM     25  C   UNL     1      51.145   8.902  13.436  0.00  0.00    +0.000 A 
ATOM     26  C   UNL     1      52.133   9.660  14.053  0.00  0.00    +0.000 A 
ATOM     27  S   UNL     1      53.526   9.875  13.091  0.00  0.00    +0.000 S 
ATOM     28  C   UNL     1      52.896   8.876  11.865  0.00  0.00    +0.000 A 
ATOM     29  N   UNL     1      53.653   8.514  10.794  0.00  0.00    +0.000 NA
ATOM     30  C   UNL     1      53.060   7.716   9.970  0.00  0.00    +0.000 A 
ATOM     31  N   UNL     1      51.759   7.296  10.088  0.00  0.00    +0.000 N 
ATOM     32  C   UNL     1      50.933   7.712  11.103  0.00  0.00    +0.000 A 
ATOM     33  O   UNL     1      49.734   7.458  11.090  0.00  0.00    +0.000 OA
ATOM     34  C   UNL     1      51.591   8.500  12.125  0.00  0.00    +0.000 A 
ATOM     35  H   UNL     1      51.329   6.731   9.371  0.00  0.00    +0.000 HD
ENDBRANCH  22  25
ENDBRANCH  20  21
ENDBRANCH   6  20
TORSDOF 8
ENDMDL
