MODEL 1
REMARK VINA RESULT:    -8.368      0.000      0.000
REMARK INTER + INTRA:         -12.368
REMARK INTER:                 -11.303
REMARK INTRA:                  -1.065
REMARK UNBOUND:                -1.065
REMARK  Name = 
REMARK  7 active torsions:
REMARK  status: ('A' for Active; 'I' for Inactive)
REMARK    1  A    between atoms: C_1  and  C_2
REMARK    2  A    between atoms: C_6  and  N_7
REMARK    3  A    between atoms: N_7  and  C_8
REMARK    4  A    between atoms: C_8  and  C_9
REMARK    5  A    between atoms: C_12  and  C_13
REMARK    6  A    between atoms: C_13  and  N_14
REMARK    7  A    between atoms: C_15  and  C_17
REMARK                            x       y       z     vdW  Elec       q    Type
REMARK                         _______ _______ _______ _____ _____    ______ ____
ROOT
ATOM      1  C   UNL     1      44.553   5.384  11.065  0.00  0.00    +0.000 A 
ATOM      2  C   UNL     1      44.281   6.750  11.188  0.00  0.00    +0.000 A 
ATOM      3  C   UNL     1      45.136   7.566  11.928  0.00  0.00    +0.000 A 
ATOM      4  C   UNL     1      46.235   6.994  12.562  0.00  0.00    +0.000 A 
ATOM      5  N   UNL     1      46.522   5.671  12.458  0.00  0.00    +0.000 NA
ATOM      6  C   UNL     1      45.680   4.905  11.722  0.00  0.00    +0.000 A 
ENDROOT
BRANCH   1   7
ATOM      7  C   UNL     1      43.693   4.473  10.234  0.00  0.00    +0.000 C 
BRANCH   7   8
ATOM      8  N   UNL     1      44.150   4.396   8.869  0.00  0.00    +0.000 N 
ATOM      9  H   UNL     1      43.878   5.095   8.190  0.00  0.00    +0.000 HD
BRANCH   8  15
ATOM     10  C   UNL     1      47.175   3.222   5.422  0.00  0.00    +0.000 C 
ATOM     11  C   UNL     1      46.483   2.826   6.692  0.00  0.00    +0.000 A 
ATOM     12  C   UNL     1      46.689   1.569   7.242  0.00  0.00    +0.000 A 
ATOM     13  C   UNL     1      46.002   1.241   8.401  0.00  0.00    +0.000 A 
ATOM     14  C   UNL     1      45.134   2.172   8.965  0.00  0.00    +0.000 A 
ATOM     15  C   UNL     1      44.979   3.421   8.375  0.00  0.00    +0.000 A 
ATOM     16  N   UNL     1      45.650   3.745   7.250  0.00  0.00    +0.000 NA
ENDBRANCH   8  15
ENDBRANCH   7   8
ENDBRANCH   1   7
BRANCH   4  17
ATOM     17  C   UNL     1      47.162   7.843  13.399  0.00  0.00    +0.000 C 
BRANCH  17  18
ATOM     18  N   UNL     1      47.580   7.181  14.614  0.00  0.00    +0.000 N 
ATOM     19  C   UNL     1      48.872   6.790  14.840  0.00  0.00    +0.000 C 
ATOM     20  O   UNL     1      49.762   6.962  14.010  0.00  0.00    +0.000 OA
ATOM     21  H   UNL     1      46.831   6.820  15.197  0.00  0.00    +0.000 HD
BRANCH  19  22
ATOM     22  C   UNL     1      49.157   6.218  16.161  0.00  0.00    +0.000 A 
ATOM     23  C   UNL     1      50.122   6.803  16.973  0.00  0.00    +0.000 A 
ATOM     24  S   UNL     1      50.303   6.033  18.484  0.00  0.00    +0.000 S 
ATOM     25  C   UNL     1      49.129   4.866  18.094  0.00  0.00    +0.000 A 
ATOM     26  N   UNL     1      48.815   3.867  18.964  0.00  0.00    +0.000 NA
ATOM     27  C   UNL     1      47.929   3.040  18.525  0.00  0.00    +0.000 A 
ATOM     28  N   UNL     1      47.315   3.121  17.304  0.00  0.00    +0.000 N 
ATOM     29  C   UNL     1      47.566   4.138  16.413  0.00  0.00    +0.000 A 
ATOM     30  O   UNL     1      46.938   4.225  15.365  0.00  0.00    +0.000 OA
ATOM     31  C   UNL     1      48.584   5.078  16.837  0.00  0.00    +0.000 A 
ATOM     32  H   UNL     1      46.610   2.454  17.033  0.00  0.00    +0.000 HD
ENDBRANCH  19  22
ENDBRANCH  17  18
ENDBRANCH   4  17
TORSDOF 6
ENDMDL
MODEL 2
REMARK VINA RESULT:    -8.269      1.416      1.712
REMARK INTER + INTRA:         -12.234
REMARK INTER:                 -11.401
REMARK INTRA:                  -0.834
REMARK UNBOUND:                -1.065
REMARK  Name = 
REMARK  7 active torsions:
REMARK  status: ('A' for Active; 'I' for Inactive)
REMARK    1  A    between atoms: C_1  and  C_2
REMARK    2  A    between atoms: C_6  and  N_7
REMARK    3  A    between atoms: N_7  and  C_8
REMARK    4  A    between atoms: C_8  and  C_9
REMARK    5  A    between atoms: C_12  and  C_13
REMARK    6  A    between atoms: C_13  and  N_14
REMARK    7  A    between atoms: C_15  and  C_17
REMARK                            x       y       z     vdW  Elec       q    Type
REMARK                         _______ _______ _______ _____ _____    ______ ____
ROOT
ATOM      1  C   UNL     1      44.968   5.032  11.177  0.00  0.00    +0.000 A 
ATOM      2  C   UNL     1      45.276   4.543  12.450  0.00  0.00    +0.000 A 
ATOM      3  C   UNL     1      46.321   5.109  13.179  0.00  0.00    +0.000 A 
ATOM      4  C   UNL     1      47.062   6.140  12.609  0.00  0.00    +0.000 A 
ATOM      5  N   UNL     1      46.783   6.634  11.375  0.00  0.00    +0.000 NA
ATOM      6  C   UNL     1      45.755   6.072  10.695  0.00  0.00    +0.000 A 
ENDROOT
BRANCH   1   7
ATOM      7  C   UNL     1      43.818   4.492  10.374  0.00  0.00    +0.000 C 
BRANCH   7   8
ATOM      8  N   UNL     1      44.148   4.365   8.977  0.00  0.00    +0.000 N 
ATOM      9  H   UNL     1      43.785   5.017   8.295  0.00  0.00    +0.000 HD
BRANCH   8  15
ATOM     10  C   UNL     1      47.143   3.265   5.478  0.00  0.00    +0.000 C 
ATOM     11  C   UNL     1      46.457   2.840   6.742  0.00  0.00    +0.000 A 
ATOM     12  C   UNL     1      46.659   1.567   7.256  0.00  0.00    +0.000 A 
ATOM     13  C   UNL     1      45.979   1.212   8.411  0.00  0.00    +0.000 A 
ATOM     14  C   UNL     1      45.120   2.133   9.006  0.00  0.00    +0.000 A 
ATOM     15  C   UNL     1      44.968   3.399   8.450  0.00  0.00    +0.000 A 
ATOM     16  N   UNL     1      45.633   3.748   7.330  0.00  0.00    +0.000 NA
ENDBRANCH   8  15
ENDBRANCH   7   8
ENDBRANCH   1   7
BRANCH   4  17
ATOM     17  C   UNL     1      48.221   6.754  13.358  0.00  0.00    +0.000 C 
BRANCH  17  18
ATOM     18  N   UNL     1      48.034   6.728  14.792  0.00  0.00    +0.000 N 
ATOM     19  C   UNL     1      49.078   6.707  15.676  0.00  0.00    +0.000 C 
ATOM     20  O   UNL     1      50.249   6.689  15.305  0.00  0.00    +0.000 OA
ATOM     21  H   UNL     1      47.095   6.503  15.107  0.00  0.00    +0.000 HD
BRANCH  19  22
ATOM     22  C   UNL     1      48.726   6.780  17.099  0.00  0.00    +0.000 A 
ATOM     23  C   UNL     1      48.280   7.981  17.639  0.00  0.00    +0.000 A 
ATOM     24  S   UNL     1      47.885   7.882  19.295  0.00  0.00    +0.000 S 
ATOM     25  C   UNL     1      48.333   6.243  19.362  0.00  0.00    +0.000 A 
ATOM     26  N   UNL     1      48.265   5.543  20.528  0.00  0.00    +0.000 NA
ATOM     27  C   UNL     1      48.662   4.320  20.437  0.00  0.00    +0.000 A 
ATOM     28  N   UNL     1      49.110   3.723  19.289  0.00  0.00    +0.000 N 
ATOM     29  C   UNL     1      49.151   4.377  18.080  0.00  0.00    +0.000 A 
ATOM     30  O   UNL     1      49.479   3.787  17.057  0.00  0.00    +0.000 OA
ATOM     31  C   UNL     1      48.753   5.769  18.130  0.00  0.00    +0.000 A 
ATOM     32  H   UNL     1      49.381   2.753  19.281  0.00  0.00    +0.000 HD
ENDBRANCH  19  22
ENDBRANCH  17  18
ENDBRANCH   4  17
TORSDOF 6
ENDMDL
MODEL 3
REMARK VINA RESULT:    -8.045      1.872      2.277
REMARK INTER + INTRA:         -11.932
REMARK INTER:                 -11.086
REMARK INTRA:                  -0.845
REMARK UNBOUND:                -1.065
REMARK  Name = 
REMARK  7 active torsions:
REMARK  status: ('A' for Active; 'I' for Inactive)
REMARK    1  A    between atoms: C_1  and  C_2
REMARK    2  A    between atoms: C_6  and  N_7
REMARK    3  A    between atoms: N_7  and  C_8
REMARK    4  A    between atoms: C_8  and  C_9
REMARK    5  A    between atoms: C_12  and  C_13
REMARK    6  A    between atoms: C_13  and  N_14
REMARK    7  A    between atoms: C_15  and  C_17
REMARK                            x       y       z     vdW  Elec       q    Type
REMARK                         _______ _______ _______ _____ _____    ______ ____
ROOT
ATOM      1  C   UNL     1      44.865   5.065  11.203  0.00  0.00    +0.000 A 
ATOM      2  C   UNL     1      45.603   6.154  10.731  0.00  0.00    +0.000 A 
ATOM      3  C   UNL     1      46.622   6.696  11.514  0.00  0.00    +0.000 A 
ATOM      4  C   UNL     1      46.867   6.155  12.773  0.00  0.00    +0.000 A 
ATOM      5  N   UNL     1      46.165   5.097  13.254  0.00  0.00    +0.000 NA
ATOM      6  C   UNL     1      45.189   4.584  12.467  0.00  0.00    +0.000 A 
ENDROOT
BRANCH   1   7
ATOM      7  C   UNL     1      43.794   4.411  10.375  0.00  0.00    +0.000 C 
BRANCH   7   8
ATOM      8  N   UNL     1      44.160   4.330   8.984  0.00  0.00    +0.000 N 
ATOM      9  H   UNL     1      43.823   5.011   8.316  0.00  0.00    +0.000 HD
BRANCH   8  15
ATOM     10  C   UNL     1      47.125   3.269   5.448  0.00  0.00    +0.000 C 
ATOM     11  C   UNL     1      46.458   2.834   6.718  0.00  0.00    +0.000 A 
ATOM     12  C   UNL     1      46.677   1.561   7.226  0.00  0.00    +0.000 A 
ATOM     13  C   UNL     1      46.013   1.196   8.388  0.00  0.00    +0.000 A 
ATOM     14  C   UNL     1      45.153   2.107   8.995  0.00  0.00    +0.000 A 
ATOM     15  C   UNL     1      44.983   3.373   8.445  0.00  0.00    +0.000 A 
ATOM     16  N   UNL     1      45.633   3.732   7.318  0.00  0.00    +0.000 NA
ENDBRANCH   8  15
ENDBRANCH   7   8
ENDBRANCH   1   7
BRANCH   4  17
ATOM     17  C   UNL     1      47.941   6.739  13.660  0.00  0.00    +0.000 C 
BRANCH  17  18
ATOM     18  N   UNL     1      47.889   6.226  15.010  0.00  0.00    +0.000 N 
ATOM     19  C   UNL     1      48.973   6.220  15.844  0.00  0.00    +0.000 C 
ATOM     20  O   UNL     1      50.073   6.637  15.490  0.00  0.00    +0.000 OA
ATOM     21  H   UNL     1      47.071   5.667  15.236  0.00  0.00    +0.000 HD
BRANCH  19  22
ATOM     22  C   UNL     1      48.737   5.755  17.216  0.00  0.00    +0.000 A 
ATOM     23  C   UNL     1      48.929   4.415  17.534  0.00  0.00    +0.000 A 
ATOM     24  S   UNL     1      48.641   4.052  19.175  0.00  0.00    +0.000 S 
ATOM     25  C   UNL     1      48.212   5.662  19.514  0.00  0.00    +0.000 A 
ATOM     26  N   UNL     1      47.820   6.037  20.763  0.00  0.00    +0.000 NA
ATOM     27  C   UNL     1      47.497   7.281  20.867  0.00  0.00    +0.000 A 
ATOM     28  N   UNL     1      47.539   8.192  19.846  0.00  0.00    +0.000 N 
ATOM     29  C   UNL     1      47.973   7.869  18.581  0.00  0.00    +0.000 A 
ATOM     30  O   UNL     1      48.077   8.728  17.715  0.00  0.00    +0.000 OA
ATOM     31  C   UNL     1      48.312   6.473  18.395  0.00  0.00    +0.000 A 
ATOM     32  H   UNL     1      47.298   9.157  20.003  0.00  0.00    +0.000 HD
ENDBRANCH  19  22
ENDBRANCH  17  18
ENDBRANCH   4  17
TORSDOF 6
ENDMDL
MODEL 4
REMARK VINA RESULT:    -7.105      1.673      2.082
REMARK INTER + INTRA:         -10.662
REMARK INTER:                  -9.802
REMARK INTRA:                  -0.860
REMARK UNBOUND:                -1.065
REMARK  Name = 
REMARK  7 active torsions:
REMARK  status: ('A' for Active; 'I' for Inactive)
REMARK    1  A    between atoms: C_1  and  C_2
REMARK    2  A    between atoms: C_6  and  N_7
REMARK    3  A    between atoms: N_7  and  C_8
REMARK    4  A    between atoms: C_8  and  C_9
REMARK    5  A    between atoms: C_12  and  C_13
REMARK    6  A    between atoms: C_13  and  N_14
REMARK    7  A    between atoms: C_15  and  C_17
REMARK                            x       y       z     vdW  Elec       q    Type
REMARK                         _______ _______ _______ _____ _____    ______ ____
ROOT
ATOM      1  C   UNL     1      46.162   6.432  12.020  0.00  0.00    +0.000 A 
ATOM      2  C   UNL     1      46.690   7.720  11.890  0.00  0.00    +0.000 A 
ATOM      3  C   UNL     1      47.888   8.048  12.523  0.00  0.00    +0.000 A 
ATOM      4  C   UNL     1      48.524   7.088  13.304  0.00  0.00    +0.000 A 
ATOM      5  N   UNL     1      48.033   5.830  13.446  0.00  0.00    +0.000 NA
ATOM      6  C   UNL     1      46.874   5.536  12.809  0.00  0.00    +0.000 A 
ENDROOT
BRANCH   1   7
ATOM      7  C   UNL     1      44.902   6.013  11.313  0.00  0.00    +0.000 C 
BRANCH   7   8
ATOM      8  N   UNL     1      45.127   5.764   9.911  0.00  0.00    +0.000 N 
ATOM      9  H   UNL     1      45.179   6.527   9.249  0.00  0.00    +0.000 HD
BRANCH   8  15
ATOM     10  C   UNL     1      46.767   3.354   6.180  0.00  0.00    +0.000 C 
ATOM     11  C   UNL     1      46.118   3.314   7.532  0.00  0.00    +0.000 A 
ATOM     12  C   UNL     1      45.736   2.102   8.092  0.00  0.00    +0.000 A 
ATOM     13  C   UNL     1      45.113   2.121   9.330  0.00  0.00    +0.000 A 
ATOM     14  C   UNL     1      44.888   3.343   9.961  0.00  0.00    +0.000 A 
ATOM     15  C   UNL     1      45.305   4.523   9.355  0.00  0.00    +0.000 A 
ATOM     16  N   UNL     1      45.917   4.506   8.152  0.00  0.00    +0.000 NA
ENDBRANCH   8  15
ENDBRANCH   7   8
ENDBRANCH   1   7
BRANCH   4  17
ATOM     17  C   UNL     1      49.806   7.420  14.031  0.00  0.00    +0.000 C 
BRANCH  17  18
ATOM     18  N   UNL     1      49.721   7.173  15.453  0.00  0.00    +0.000 N 
ATOM     19  C   UNL     1      48.988   7.958  16.300  0.00  0.00    +0.000 C 
ATOM     20  O   UNL     1      48.366   8.941  15.907  0.00  0.00    +0.000 OA
ATOM     21  H   UNL     1      50.407   6.524  15.826  0.00  0.00    +0.000 HD
BRANCH  19  22
ATOM     22  C   UNL     1      48.924   7.520  17.700  0.00  0.00    +0.000 A 
ATOM     23  C   UNL     1      48.963   8.464  18.720  0.00  0.00    +0.000 A 
ATOM     24  S   UNL     1      48.845   7.789  20.282  0.00  0.00    +0.000 S 
ATOM     25  C   UNL     1      48.778   6.209  19.655  0.00  0.00    +0.000 A 
ATOM     26  N   UNL     1      48.700   5.129  20.480  0.00  0.00    +0.000 NA
ATOM     27  C   UNL     1      48.684   3.994  19.868  0.00  0.00    +0.000 A 
ATOM     28  N   UNL     1      48.727   3.833  18.509  0.00  0.00    +0.000 N 
ATOM     29  C   UNL     1      48.758   4.896  17.637  0.00  0.00    +0.000 A 
ATOM     30  O   UNL     1      48.712   4.717  16.426  0.00  0.00    +0.000 OA
ATOM     31  C   UNL     1      48.817   6.198  18.270  0.00  0.00    +0.000 A 
ATOM     32  H   UNL     1      48.685   2.916  18.094  0.00  0.00    +0.000 HD
ENDBRANCH  19  22
ENDBRANCH  17  18
ENDBRANCH   4  17
TORSDOF 6
ENDMDL
MODEL 5
REMARK VINA RESULT:    -7.054      4.093      5.366
REMARK INTER + INTRA:         -10.593
REMARK INTER:                  -9.682
REMARK INTRA:                  -0.911
REMARK UNBOUND:                -1.065
REMARK  Name = 
REMARK  7 active torsions:
REMARK  status: ('A' for Active; 'I' for Inactive)
REMARK    1  A    between atoms: C_1  and  C_2
REMARK    2  A    between atoms: C_6  and  N_7
REMARK    3  A    between atoms: N_7  and  C_8
REMARK    4  A    between atoms: C_8  and  C_9
REMARK    5  A    between atoms: C_12  and  C_13
REMARK    6  A    between atoms: C_13  and  N_14
REMARK    7  A    between atoms: C_15  and  C_17
REMARK                            x       y       z     vdW  Elec       q    Type
REMARK                         _______ _______ _______ _____ _____    ______ ____
ROOT
ATOM      1  C   UNL     1      44.841   4.790  11.812  0.00  0.00    +0.000 A 
ATOM      2  C   UNL     1      46.023   5.030  12.518  0.00  0.00    +0.000 A 
ATOM      3  C   UNL     1      46.382   6.335  12.852  0.00  0.00    +0.000 A 
ATOM      4  C   UNL     1      45.563   7.385  12.446  0.00  0.00    +0.000 A 
ATOM      5  N   UNL     1      44.410   7.179  11.760  0.00  0.00    +0.000 NA
ATOM      6  C   UNL     1      44.082   5.899  11.460  0.00  0.00    +0.000 A 
ENDROOT
BRANCH   1   7
ATOM      7  C   UNL     1      44.384   3.397  11.476  0.00  0.00    +0.000 C 
BRANCH   7   8
ATOM      8  N   UNL     1      44.093   3.249  10.072  0.00  0.00    +0.000 N 
ATOM      9  H   UNL     1      43.139   3.256   9.735  0.00  0.00    +0.000 HD
BRANCH   8  15
ATOM     10  C   UNL     1      46.792   0.198   7.660  0.00  0.00    +0.000 C 
ATOM     11  C   UNL     1      46.367   1.619   7.877  0.00  0.00    +0.000 A 
ATOM     12  C   UNL     1      46.938   2.644   7.135  0.00  0.00    +0.000 A 
ATOM     13  C   UNL     1      46.533   3.944   7.394  0.00  0.00    +0.000 A 
ATOM     14  C   UNL     1      45.582   4.177   8.385  0.00  0.00    +0.000 A 
ATOM     15  C   UNL     1      45.037   3.107   9.087  0.00  0.00    +0.000 A 
ATOM     16  N   UNL     1      45.426   1.840   8.832  0.00  0.00    +0.000 NA
ENDBRANCH   8  15
ENDBRANCH   7   8
ENDBRANCH   1   7
BRANCH   4  17
ATOM     17  C   UNL     1      45.939   8.814  12.762  0.00  0.00    +0.000 C 
BRANCH  17  18
ATOM     18  N   UNL     1      47.111   9.255  12.041  0.00  0.00    +0.000 N 
ATOM     19  C   UNL     1      48.144   9.921  12.641  0.00  0.00    +0.000 C 
ATOM     20  O   UNL     1      48.134  10.206  13.836  0.00  0.00    +0.000 OA
ATOM     21  H   UNL     1      47.033   9.244  11.029  0.00  0.00    +0.000 HD
BRANCH  19  22
ATOM     22  C   UNL     1      49.307  10.217  11.794  0.00  0.00    +0.000 A 
ATOM     23  C   UNL     1      49.267  11.297  10.919  0.00  0.00    +0.000 A 
ATOM     24  S   UNL     1      50.709  11.516  10.036  0.00  0.00    +0.000 S 
ATOM     25  C   UNL     1      51.426  10.154  10.760  0.00  0.00    +0.000 A 
ATOM     26  N   UNL     1      52.682   9.756  10.418  0.00  0.00    +0.000 NA
ATOM     27  C   UNL     1      53.086   8.692  11.025  0.00  0.00    +0.000 A 
ATOM     28  N   UNL     1      52.360   7.994  11.952  0.00  0.00    +0.000 N 
ATOM     29  C   UNL     1      51.107   8.386  12.363  0.00  0.00    +0.000 A 
ATOM     30  O   UNL     1      50.522   7.785  13.255  0.00  0.00    +0.000 OA
ATOM     31  C   UNL     1      50.586   9.555  11.684  0.00  0.00    +0.000 A 
ATOM     32  H   UNL     1      52.747   7.184  12.410  0.00  0.00    +0.000 HD
ENDBRANCH  19  22
ENDBRANCH  17  18
ENDBRANCH   4  17
TORSDOF 6
ENDMDL
MODEL 6
REMARK VINA RESULT:    -6.929      3.190      7.958
REMARK INTER + INTRA:         -10.424
REMARK INTER:                  -9.197
REMARK INTRA:                  -1.227
REMARK UNBOUND:                -1.065
REMARK  Name = 
REMARK  7 active torsions:
REMARK  status: ('A' for Active; 'I' for Inactive)
REMARK    1  A    between atoms: C_1  and  C_2
REMARK    2  A    between atoms: C_6  and  N_7
REMARK    3  A    between atoms: N_7  and  C_8
REMARK    4  A    between atoms: C_8  and  C_9
REMARK    5  A    between atoms: C_12  and  C_13
REMARK    6  A    between atoms: C_13  and  N_14
REMARK    7  A    between atoms: C_15  and  C_17
REMARK                            x       y       z     vdW  Elec       q    Type
REMARK                         _______ _______ _______ _____ _____    ______ ____
ROOT
ATOM      1  C   UNL     1      49.444   7.591  16.360  0.00  0.00    +0.000 A 
ATOM      2  C   UNL     1      50.238   7.110  15.315  0.00  0.00    +0.000 A 
ATOM      3  C   UNL     1      49.875   7.362  13.992  0.00  0.00    +0.000 A 
ATOM      4  C   UNL     1      48.703   8.068  13.736  0.00  0.00    +0.000 A 
ATOM      5  N   UNL     1      47.914   8.546  14.733  0.00  0.00    +0.000 NA
ATOM      6  C   UNL     1      48.298   8.296  16.008  0.00  0.00    +0.000 A 
ENDROOT
BRANCH   1   7
ATOM      7  C   UNL     1      49.821   7.392  17.802  0.00  0.00    +0.000 C 
BRANCH   7   8
ATOM      8  N   UNL     1      48.962   6.439  18.458  0.00  0.00    +0.000 N 
ATOM      9  H   UNL     1      48.493   6.670  19.324  0.00  0.00    +0.000 HD
BRANCH   8  15
ATOM     10  C   UNL     1      50.784   2.237  17.254  0.00  0.00    +0.000 C 
ATOM     11  C   UNL     1      49.563   3.096  17.402  0.00  0.00    +0.000 A 
ATOM     12  C   UNL     1      48.313   2.606  17.052  0.00  0.00    +0.000 A 
ATOM     13  C   UNL     1      47.220   3.449  17.178  0.00  0.00    +0.000 A 
ATOM     14  C   UNL     1      47.412   4.749  17.642  0.00  0.00    +0.000 A 
ATOM     15  C   UNL     1      48.688   5.179  17.989  0.00  0.00    +0.000 A 
ATOM     16  N   UNL     1      49.753   4.358  17.872  0.00  0.00    +0.000 NA
ENDBRANCH   8  15
ENDBRANCH   7   8
ENDBRANCH   1   7
BRANCH   4  17
ATOM     17  C   UNL     1      48.263   8.330  12.315  0.00  0.00    +0.000 C 
BRANCH  17  18
ATOM     18  N   UNL     1      47.583   7.199  11.724  0.00  0.00    +0.000 N 
ATOM     19  C   UNL     1      46.227   7.034  11.786  0.00  0.00    +0.000 C 
ATOM     20  O   UNL     1      45.496   7.832  12.368  0.00  0.00    +0.000 OA
ATOM     21  H   UNL     1      48.179   6.422  11.455  0.00  0.00    +0.000 HD
BRANCH  19  22
ATOM     22  C   UNL     1      45.678   5.885  11.055  0.00  0.00    +0.000 A 
ATOM     23  C   UNL     1      45.932   5.747   9.695  0.00  0.00    +0.000 A 
ATOM     24  S   UNL     1      45.248   4.343   9.010  0.00  0.00    +0.000 S 
ATOM     25  C   UNL     1      44.554   3.889  10.495  0.00  0.00    +0.000 A 
ATOM     26  N   UNL     1      43.792   2.766  10.599  0.00  0.00    +0.000 NA
ATOM     27  C   UNL     1      43.308   2.560  11.776  0.00  0.00    +0.000 A 
ATOM     28  N   UNL     1      43.522   3.362  12.865  0.00  0.00    +0.000 N 
ATOM     29  C   UNL     1      44.323   4.479  12.817  0.00  0.00    +0.000 A 
ATOM     30  O   UNL     1      44.560   5.127  13.829  0.00  0.00    +0.000 OA
ATOM     31  C   UNL     1      44.863   4.782  11.507  0.00  0.00    +0.000 A 
ATOM     32  H   UNL     1      43.134   3.129  13.765  0.00  0.00    +0.000 HD
ENDBRANCH  19  22
ENDBRANCH  17  18
ENDBRANCH   4  17
TORSDOF 6
ENDMDL
MODEL 7
REMARK VINA RESULT:    -6.894      2.800      8.421
REMARK INTER + INTRA:         -10.378
REMARK INTER:                  -9.103
REMARK INTRA:                  -1.275
REMARK UNBOUND:                -1.065
REMARK  Name = 
REMARK  7 active torsions:
REMARK  status: ('A' for Active; 'I' for Inactive)
REMARK    1  A    between atoms: C_1  and  C_2
REMARK    2  A    between atoms: C_6  and  N_7
REMARK    3  A    between atoms: N_7  and  C_8
REMARK    4  A    between atoms: C_8  and  C_9
REMARK    5  A    between atoms: C_12  and  C_13
REMARK    6  A    between atoms: C_13  and  N_14
REMARK    7  A    between atoms: C_15  and  C_17
REMARK                            x       y       z     vdW  Elec       q    Type
REMARK                         _______ _______ _______ _____ _____    ______ ____
ROOT
ATOM      1  C   UNL     1      49.771   7.957  15.796  0.00  0.00    +0.000 A 
ATOM      2  C   UNL     1      50.380   7.402  14.667  0.00  0.00    +0.000 A 
ATOM      3  C   UNL     1      49.702   7.384  13.449  0.00  0.00    +0.000 A 
ATOM      4  C   UNL     1      48.409   7.898  13.388  0.00  0.00    +0.000 A 
ATOM      5  N   UNL     1      47.796   8.443  14.469  0.00  0.00    +0.000 NA
ATOM      6  C   UNL     1      48.484   8.457  15.637  0.00  0.00    +0.000 A 
ENDROOT
BRANCH   1   7
ATOM      7  C   UNL     1      50.481   8.048  17.119  0.00  0.00    +0.000 C 
BRANCH   7   8
ATOM      8  N   UNL     1      49.987   7.080  18.065  0.00  0.00    +0.000 N 
ATOM      9  H   UNL     1      49.594   7.371  18.951  0.00  0.00    +0.000 HD
BRANCH   8  15
ATOM     10  C   UNL     1      47.291   3.242  17.414  0.00  0.00    +0.000 C 
ATOM     11  C   UNL     1      48.670   3.820  17.530  0.00  0.00    +0.000 A 
ATOM     12  C   UNL     1      49.785   2.995  17.460  0.00  0.00    +0.000 A 
ATOM     13  C   UNL     1      51.036   3.574  17.603  0.00  0.00    +0.000 A 
ATOM     14  C   UNL     1      51.132   4.947  17.816  0.00  0.00    +0.000 A 
ATOM     15  C   UNL     1      49.979   5.723  17.865  0.00  0.00    +0.000 A 
ATOM     16  N   UNL     1      48.760   5.163  17.720  0.00  0.00    +0.000 NA
ENDBRANCH   8  15
ENDBRANCH   7   8
ENDBRANCH   1   7
BRANCH   4  17
ATOM     17  C   UNL     1      47.634   7.865  12.092  0.00  0.00    +0.000 C 
BRANCH  17  18
ATOM     18  N   UNL     1      46.911   6.627  11.906  0.00  0.00    +0.000 N 
ATOM     19  C   UNL     1      45.570   6.508  12.146  0.00  0.00    +0.000 C 
ATOM     20  O   UNL     1      44.892   7.448  12.555  0.00  0.00    +0.000 OA
ATOM     21  H   UNL     1      47.485   5.796  11.803  0.00  0.00    +0.000 HD
BRANCH  19  22
ATOM     22  C   UNL     1      44.963   5.212  11.817  0.00  0.00    +0.000 A 
ATOM     23  C   UNL     1      44.249   4.518  12.788  0.00  0.00    +0.000 A 
ATOM     24  S   UNL     1      43.585   3.050  12.231  0.00  0.00    +0.000 S 
ATOM     25  C   UNL     1      44.258   3.267  10.685  0.00  0.00    +0.000 A 
ATOM     26  N   UNL     1      44.090   2.333   9.708  0.00  0.00    +0.000 NA
ATOM     27  C   UNL     1      44.679   2.616   8.596  0.00  0.00    +0.000 A 
ATOM     28  N   UNL     1      45.410   3.749   8.360  0.00  0.00    +0.000 N 
ATOM     29  C   UNL     1      45.567   4.740   9.301  0.00  0.00    +0.000 A 
ATOM     30  O   UNL     1      46.157   5.778   9.029  0.00  0.00    +0.000 OA
ATOM     31  C   UNL     1      44.958   4.458  10.586  0.00  0.00    +0.000 A 
ATOM     32  H   UNL     1      45.823   3.921   7.458  0.00  0.00    +0.000 HD
ENDBRANCH  19  22
ENDBRANCH  17  18
ENDBRANCH   4  17
TORSDOF 6
ENDMDL
MODEL 8
REMARK VINA RESULT:    -6.775      3.908      5.366
REMARK INTER + INTRA:         -10.217
REMARK INTER:                  -9.068
REMARK INTRA:                  -1.149
REMARK UNBOUND:                -1.065
REMARK  Name = 
REMARK  7 active torsions:
REMARK  status: ('A' for Active; 'I' for Inactive)
REMARK    1  A    between atoms: C_1  and  C_2
REMARK    2  A    between atoms: C_6  and  N_7
REMARK    3  A    between atoms: N_7  and  C_8
REMARK    4  A    between atoms: C_8  and  C_9
REMARK    5  A    between atoms: C_12  and  C_13
REMARK    6  A    between atoms: C_13  and  N_14
REMARK    7  A    between atoms: C_15  and  C_17
REMARK                            x       y       z     vdW  Elec       q    Type
REMARK                         _______ _______ _______ _____ _____    ______ ____
ROOT
ATOM      1  C   UNL     1      45.897   6.503  12.347  0.00  0.00    +0.000 A 
ATOM      2  C   UNL     1      46.190   7.811  12.741  0.00  0.00    +0.000 A 
ATOM      3  C   UNL     1      47.320   8.067  13.518  0.00  0.00    +0.000 A 
ATOM      4  C   UNL     1      48.123   7.001  13.913  0.00  0.00    +0.000 A 
ATOM      5  N   UNL     1      47.861   5.722  13.543  0.00  0.00    +0.000 NA
ATOM      6  C   UNL     1      46.763   5.505  12.778  0.00  0.00    +0.000 A 
ENDROOT
BRANCH   1   7
ATOM      7  C   UNL     1      44.722   6.183  11.465  0.00  0.00    +0.000 C 
BRANCH   7   8
ATOM      8  N   UNL     1      45.122   5.921  10.105  0.00  0.00    +0.000 N 
ATOM      9  H   UNL     1      45.369   6.678   9.481  0.00  0.00    +0.000 HD
BRANCH   8  15
ATOM     10  C   UNL     1      46.703   3.414   6.413  0.00  0.00    +0.000 C 
ATOM     11  C   UNL     1      46.007   3.416   7.742  0.00  0.00    +0.000 A 
ATOM     12  C   UNL     1      45.515   2.234   8.278  0.00  0.00    +0.000 A 
ATOM     13  C   UNL     1      44.852   2.293   9.494  0.00  0.00    +0.000 A 
ATOM     14  C   UNL     1      44.698   3.524  10.127  0.00  0.00    +0.000 A 
ATOM     15  C   UNL     1      45.224   4.673   9.546  0.00  0.00    +0.000 A 
ATOM     16  N   UNL     1      45.875   4.617   8.364  0.00  0.00    +0.000 NA
ENDBRANCH   8  15
ENDBRANCH   7   8
ENDBRANCH   1   7
BRANCH   4  17
ATOM     17  C   UNL     1      49.336   7.239  14.782  0.00  0.00    +0.000 C 
BRANCH  17  18
ATOM     18  N   UNL     1      50.536   7.474  14.012  0.00  0.00    +0.000 N 
ATOM     19  C   UNL     1      51.046   8.725  13.795  0.00  0.00    +0.000 C 
ATOM     20  O   UNL     1      50.501   9.737  14.228  0.00  0.00    +0.000 OA
ATOM     21  H   UNL     1      50.860   6.689  13.454  0.00  0.00    +0.000 HD
BRANCH  19  22
ATOM     22  C   UNL     1      52.323   8.791  13.075  0.00  0.00    +0.000 A 
ATOM     23  C   UNL     1      53.438   9.342  13.697  0.00  0.00    +0.000 A 
ATOM     24  S   UNL     1      54.845   9.311  12.733  0.00  0.00    +0.000 S 
ATOM     25  C   UNL     1      54.009   8.596  11.436  0.00  0.00    +0.000 A 
ATOM     26  N   UNL     1      54.638   8.322  10.260  0.00  0.00    +0.000 NA
ATOM     27  C   UNL     1      53.875   7.807   9.357  0.00  0.00    +0.000 A 
ATOM     28  N   UNL     1      52.545   7.528   9.519  0.00  0.00    +0.000 N 
ATOM     29  C   UNL     1      51.880   7.744  10.703  0.00  0.00    +0.000 A 
ATOM     30  O   UNL     1      50.710   7.405  10.838  0.00  0.00    +0.000 OA
ATOM     31  C   UNL     1      52.679   8.359  11.744  0.00  0.00    +0.000 A 
ATOM     32  H   UNL     1      52.012   7.100   8.779  0.00  0.00    +0.000 HD
ENDBRANCH  19  22
ENDBRANCH  17  18
ENDBRANCH   4  17
TORSDOF 6
ENDMDL
MODEL 9
REMARK VINA RESULT:    -6.763      2.433      3.437
REMARK INTER + INTRA:         -10.200
REMARK INTER:                  -9.406
REMARK INTRA:                  -0.794
REMARK UNBOUND:                -1.065
REMARK  Name = 
REMARK  7 active torsions:
REMARK  status: ('A' for Active; 'I' for Inactive)
REMARK    1  A    between atoms: C_1  and  C_2
REMARK    2  A    between atoms: C_6  and  N_7
REMARK    3  A    between atoms: N_7  and  C_8
REMARK    4  A    between atoms: C_8  and  C_9
REMARK    5  A    between atoms: C_12  and  C_13
REMARK    6  A    between atoms: C_13  and  N_14
REMARK    7  A    between atoms: C_15  and  C_17
REMARK                            x       y       z     vdW  Elec       q    Type
REMARK                         _______ _______ _______ _____ _____    ______ ____
ROOT
ATOM      1  C   UNL     1      45.355   4.833  11.235  0.00  0.00    +0.000 A 
ATOM      2  C   UNL     1      45.135   3.677  11.989  0.00  0.00    +0.000 A 
ATOM      3  C   UNL     1      45.697   3.557  13.260  0.00  0.00    +0.000 A 
ATOM      4  C   UNL     1      46.497   4.589  13.744  0.00  0.00    +0.000 A 
ATOM      5  N   UNL     1      46.725   5.722  13.032  0.00  0.00    +0.000 NA
ATOM      6  C   UNL     1      46.157   5.814  11.806  0.00  0.00    +0.000 A 
ENDROOT
BRANCH   1   7
ATOM      7  C   UNL     1      44.727   5.032   9.883  0.00  0.00    +0.000 C 
BRANCH   7   8
ATOM      8  N   UNL     1      44.599   3.792   9.160  0.00  0.00    +0.000 N 
ATOM      9  H   UNL     1      43.750   3.245   9.212  0.00  0.00    +0.000 HD
BRANCH   8  15
ATOM     10  C   UNL     1      46.725  -0.184   7.714  0.00  0.00    +0.000 C 
ATOM     11  C   UNL     1      46.618   1.308   7.609  0.00  0.00    +0.000 A 
ATOM     12  C   UNL     1      47.467   2.016   6.769  0.00  0.00    +0.000 A 
ATOM     13  C   UNL     1      47.348   3.397   6.731  0.00  0.00    +0.000 A 
ATOM     14  C   UNL     1      46.396   4.021   7.533  0.00  0.00    +0.000 A 
ATOM     15  C   UNL     1      45.565   3.257   8.345  0.00  0.00    +0.000 A 
ATOM     16  N   UNL     1      45.675   1.912   8.380  0.00  0.00    +0.000 NA
ENDBRANCH   8  15
ENDBRANCH   7   8
ENDBRANCH   1   7
BRANCH   4  17
ATOM     17  C   UNL     1      47.147   4.478  15.103  0.00  0.00    +0.000 C 
BRANCH  17  18
ATOM     18  N   UNL     1      47.734   5.724  15.544  0.00  0.00    +0.000 N 
ATOM     19  C   UNL     1      48.854   5.780  16.326  0.00  0.00    +0.000 C 
ATOM     20  O   UNL     1      49.428   4.768  16.722  0.00  0.00    +0.000 OA
ATOM     21  H   UNL     1      47.150   6.547  15.431  0.00  0.00    +0.000 HD
BRANCH  19  22
ATOM     22  C   UNL     1      49.382   7.120  16.610  0.00  0.00    +0.000 A 
ATOM     23  C   UNL     1      49.854   7.911  15.568  0.00  0.00    +0.000 A 
ATOM     24  S   UNL     1      50.401   9.447  16.068  0.00  0.00    +0.000 S 
ATOM     25  C   UNL     1      50.065   9.098  17.698  0.00  0.00    +0.000 A 
ATOM     26  N   UNL     1      50.335  10.003  18.680  0.00  0.00    +0.000 NA
ATOM     27  C   UNL     1      50.055   9.593  19.870  0.00  0.00    +0.000 A 
ATOM     28  N   UNL     1      49.520   8.370  20.175  0.00  0.00    +0.000 N 
ATOM     29  C   UNL     1      49.188   7.445  19.212  0.00  0.00    +0.000 A 
ATOM     30  O   UNL     1      48.634   6.395  19.515  0.00  0.00    +0.000 OA
ATOM     31  C   UNL     1      49.517   7.836  17.857  0.00  0.00    +0.000 A 
ATOM     32  H   UNL     1      49.301   8.123  21.126  0.00  0.00    +0.000 HD
ENDBRANCH  19  22
ENDBRANCH  17  18
ENDBRANCH   4  17
TORSDOF 6
ENDMDL
