MODEL 1
REMARK VINA RESULT:    -7.404      0.000      0.000
REMARK INTER + INTRA:         -10.478
REMARK INTER:                  -9.785
REMARK INTRA:                  -0.693
REMARK UNBOUND:                -0.693
REMARK  Name = 
REMARK  6 active torsions:
REMARK  status: ('A' for Active; 'I' for Inactive)
REMARK    1  A    between atoms: C_2  and  C_18
REMARK    2  A    between atoms: N_3  and  C_4
REMARK    3  A    between atoms: C_4  and  C_5
REMARK    4  A    between atoms: C_8  and  C_9
REMARK    5  A    between atoms: C_9  and  N_10
REMARK    6  A    between atoms: C_13  and  O_14
REMARK                            x       y       z     vdW  Elec       q    Type
REMARK                         _______ _______ _______ _____ _____    ______ ____
ROOT
ATOM      1  O   UNL     1      48.047   7.189  12.930  0.00  0.00    +0.000 OA
ATOM      2  C   UNL     1      47.541   6.644  13.908  0.00  0.00    +0.000 C 
ATOM      3  N   UNL     1      46.227   6.255  13.941  0.00  0.00    +0.000 N 
ATOM      4  H   UNL     1      45.821   5.958  14.823  0.00  0.00    +0.000 HD
ENDROOT
BRANCH   2   5
ATOM      5  C   UNL     1      48.329   6.334  15.109  0.00  0.00    +0.000 A 
ATOM      6  C   UNL     1      49.229   7.265  15.607  0.00  0.00    +0.000 A 
ATOM      7  S   UNL     1      50.064   6.737  16.998  0.00  0.00    +0.000 S 
ATOM      8  C   UNL     1      49.218   5.261  17.012  0.00  0.00    +0.000 A 
ATOM      9  N   UNL     1      49.437   4.338  17.987  0.00  0.00    +0.000 NA
ATOM     10  C   UNL     1      48.694   3.285  17.903  0.00  0.00    +0.000 A 
ATOM     11  N   UNL     1      47.760   3.063  16.925  0.00  0.00    +0.000 N 
ATOM     12  C   UNL     1      47.563   3.930  15.877  0.00  0.00    +0.000 A 
ATOM     13  O   UNL     1      46.823   3.636  14.942  0.00  0.00    +0.000 OA
ATOM     14  C   UNL     1      48.332   5.159  15.953  0.00  0.00    +0.000 A 
ATOM     15  H   UNL     1      47.235   2.203  16.894  0.00  0.00    +0.000 HD
ENDBRANCH   2   5
BRANCH   3  16
ATOM     16  C   UNL     1      45.288   6.584  12.899  0.00  0.00    +0.000 C 
BRANCH  16  17
ATOM     17  C   UNL     1      45.279   5.546  11.819  0.00  0.00    +0.000 A 
ATOM     18  C   UNL     1      44.937   4.220  12.094  0.00  0.00    +0.000 A 
ATOM     19  C   UNL     1      44.915   3.281  11.068  0.00  0.00    +0.000 A 
ATOM     20  C   UNL     1      45.261   3.681   9.782  0.00  0.00    +0.000 A 
ATOM     21  N   UNL     1      45.629   4.960   9.492  0.00  0.00    +0.000 NA
ATOM     22  C   UNL     1      45.633   5.852  10.511  0.00  0.00    +0.000 A 
BRANCH  20  23
ATOM     23  C   UNL     1      45.240   2.685   8.633  0.00  0.00    +0.000 C 
BRANCH  23  24
ATOM     24  N   UNL     1      46.464   2.663   7.799  0.00  0.00    +0.000 NA
ATOM     25  C   UNL     1      46.297   3.520   6.613  0.00  0.00    +0.000 C 
ATOM     26  C   UNL     1      46.750   2.722   5.395  0.00  0.00    +0.000 C 
ATOM     27  C   UNL     1      47.440   1.499   5.963  0.00  0.00    +0.000 C 
ATOM     28  C   UNL     1      46.769   1.300   7.318  0.00  0.00    +0.000 C 
BRANCH  27  29
ATOM     29  O   UNL     1      48.834   1.757   6.105  0.00  0.00    +0.000 OA
ATOM     30  H   UNL     1      48.972   2.681   5.814  0.00  0.00    +0.000 HD
ENDBRANCH  27  29
ENDBRANCH  23  24
ENDBRANCH  20  23
ENDBRANCH  16  17
ENDBRANCH   3  16
TORSDOF 6
ENDMDL
MODEL 2
REMARK VINA RESULT:    -7.344      1.905      3.085
REMARK INTER + INTRA:         -10.399
REMARK INTER:                  -9.662
REMARK INTRA:                  -0.737
REMARK UNBOUND:                -0.693
REMARK  Name = 
REMARK  6 active torsions:
REMARK  status: ('A' for Active; 'I' for Inactive)
REMARK    1  A    between atoms: C_2  and  C_18
REMARK    2  A    between atoms: N_3  and  C_4
REMARK    3  A    between atoms: C_4  and  C_5
REMARK    4  A    between atoms: C_8  and  C_9
REMARK    5  A    between atoms: C_9  and  N_10
REMARK    6  A    between atoms: C_13  and  O_14
REMARK                            x       y       z     vdW  Elec       q    Type
REMARK                         _______ _______ _______ _____ _____    ______ ____
ROOT
ATOM      1  O   UNL     1      46.619   4.179  14.336  0.00  0.00    +0.000 OA
ATOM      2  C   UNL     1      46.692   5.388  14.136  0.00  0.00    +0.000 C 
ATOM      3  N   UNL     1      45.631   6.130  13.685  0.00  0.00    +0.000 N 
ATOM      4  H   UNL     1      45.788   7.087  13.386  0.00  0.00    +0.000 HD
ENDROOT
BRANCH   2   5
ATOM      5  C   UNL     1      47.926   6.139  14.405  0.00  0.00    +0.000 A 
ATOM      6  C   UNL     1      48.512   6.083  15.662  0.00  0.00    +0.000 A 
ATOM      7  S   UNL     1      49.930   7.021  15.802  0.00  0.00    +0.000 S 
ATOM      8  C   UNL     1      49.839   7.501  14.172  0.00  0.00    +0.000 A 
ATOM      9  N   UNL     1      50.790   8.304  13.624  0.00  0.00    +0.000 NA
ATOM     10  C   UNL     1      50.622   8.551  12.367  0.00  0.00    +0.000 A 
ATOM     11  N   UNL     1      49.582   8.079  11.610  0.00  0.00    +0.000 N 
ATOM     12  C   UNL     1      48.558   7.333  12.139  0.00  0.00    +0.000 A 
ATOM     13  O   UNL     1      47.570   7.047  11.468  0.00  0.00    +0.000 OA
ATOM     14  C   UNL     1      48.725   6.977  13.537  0.00  0.00    +0.000 A 
ATOM     15  H   UNL     1      49.488   8.338  10.640  0.00  0.00    +0.000 HD
ENDBRANCH   2   5
BRANCH   3  16
ATOM     16  C   UNL     1      44.387   5.538  13.264  0.00  0.00    +0.000 C 
BRANCH  16  17
ATOM     17  C   UNL     1      44.551   4.758  11.995  0.00  0.00    +0.000 A 
ATOM     18  C   UNL     1      44.156   3.421  11.912  0.00  0.00    +0.000 A 
ATOM     19  C   UNL     1      44.299   2.728  10.713  0.00  0.00    +0.000 A 
ATOM     20  C   UNL     1      44.860   3.381   9.621  0.00  0.00    +0.000 A 
ATOM     21  N   UNL     1      45.282   4.674   9.684  0.00  0.00    +0.000 NA
ATOM     22  C   UNL     1      45.122   5.324  10.862  0.00  0.00    +0.000 A 
BRANCH  20  23
ATOM     23  C   UNL     1      45.024   2.659   8.293  0.00  0.00    +0.000 C 
BRANCH  23  24
ATOM     24  N   UNL     1      46.328   2.867   7.622  0.00  0.00    +0.000 NA
ATOM     25  C   UNL     1      46.139   3.512   6.312  0.00  0.00    +0.000 C 
ATOM     26  C   UNL     1      46.954   2.731   5.287  0.00  0.00    +0.000 C 
ATOM     27  C   UNL     1      47.828   1.803   6.106  0.00  0.00    +0.000 C 
ATOM     28  C   UNL     1      47.028   1.587   7.386  0.00  0.00    +0.000 C 
BRANCH  27  29
ATOM     29  O   UNL     1      49.078   2.434   6.374  0.00  0.00    +0.000 OA
ATOM     30  H   UNL     1      49.579   1.816   6.942  0.00  0.00    +0.000 HD
ENDBRANCH  27  29
ENDBRANCH  23  24
ENDBRANCH  20  23
ENDBRANCH  16  17
ENDBRANCH   3  16
TORSDOF 6
ENDMDL
MODEL 3
REMARK VINA RESULT:    -7.288      4.196      9.080
REMARK INTER + INTRA:         -10.324
REMARK INTER:                  -9.776
REMARK INTRA:                  -0.549
REMARK UNBOUND:                -0.693
REMARK  Name = 
REMARK  6 active torsions:
REMARK  status: ('A' for Active; 'I' for Inactive)
REMARK    1  A    between atoms: C_2  and  C_18
REMARK    2  A    between atoms: N_3  and  C_4
REMARK    3  A    between atoms: C_4  and  C_5
REMARK    4  A    between atoms: C_8  and  C_9
REMARK    5  A    between atoms: C_9  and  N_10
REMARK    6  A    between atoms: C_13  and  O_14
REMARK                            x       y       z     vdW  Elec       q    Type
REMARK                         _______ _______ _______ _____ _____    ______ ____
ROOT
ATOM      1  O   UNL     1      47.200   3.037  14.062  0.00  0.00    +0.000 OA
ATOM      2  C   UNL     1      46.818   4.112  14.517  0.00  0.00    +0.000 C 
ATOM      3  N   UNL     1      46.822   4.391  15.859  0.00  0.00    +0.000 N 
ATOM      4  H   UNL     1      46.350   5.227  16.192  0.00  0.00    +0.000 HD
ENDROOT
BRANCH   2   5
ATOM      5  C   UNL     1      46.361   5.199  13.640  0.00  0.00    +0.000 A 
ATOM      6  C   UNL     1      47.197   6.275  13.377  0.00  0.00    +0.000 A 
ATOM      7  S   UNL     1      46.504   7.449  12.352  0.00  0.00    +0.000 S 
ATOM      8  C   UNL     1      45.077   6.539  12.183  0.00  0.00    +0.000 A 
ATOM      9  N   UNL     1      44.059   6.972  11.391  0.00  0.00    +0.000 NA
ATOM     10  C   UNL     1      43.056   6.161  11.319  0.00  0.00    +0.000 A 
ATOM     11  N   UNL     1      42.971   4.961  11.976  0.00  0.00    +0.000 N 
ATOM     12  C   UNL     1      43.938   4.523  12.848  0.00  0.00    +0.000 A 
ATOM     13  O   UNL     1      43.767   3.516  13.529  0.00  0.00    +0.000 OA
ATOM     14  C   UNL     1      45.115   5.369  12.924  0.00  0.00    +0.000 A 
ATOM     15  H   UNL     1      42.144   4.389  11.905  0.00  0.00    +0.000 HD
ENDBRANCH   2   5
BRANCH   3  16
ATOM     16  C   UNL     1      47.128   3.404  16.862  0.00  0.00    +0.000 C 
BRANCH  16  17
ATOM     17  C   UNL     1      48.606   3.273  17.071  0.00  0.00    +0.000 A 
ATOM     18  C   UNL     1      49.361   4.333  17.577  0.00  0.00    +0.000 A 
ATOM     19  C   UNL     1      50.728   4.175  17.782  0.00  0.00    +0.000 A 
ATOM     20  C   UNL     1      51.324   2.963  17.453  0.00  0.00    +0.000 A 
ATOM     21  N   UNL     1      50.616   1.924  16.928  0.00  0.00    +0.000 NA
ATOM     22  C   UNL     1      49.286   2.105  16.748  0.00  0.00    +0.000 A 
BRANCH  20  23
ATOM     23  C   UNL     1      52.813   2.751  17.671  0.00  0.00    +0.000 C 
BRANCH  23  24
ATOM     24  N   UNL     1      53.164   1.587  18.518  0.00  0.00    +0.000 NA
ATOM     25  C   UNL     1      54.343   1.887  19.346  0.00  0.00    +0.000 C 
ATOM     26  C   UNL     1      55.315   0.719  19.214  0.00  0.00    +0.000 C 
ATOM     27  C   UNL     1      54.526  -0.369  18.514  0.00  0.00    +0.000 C 
ATOM     28  C   UNL     1      53.491   0.400  17.700  0.00  0.00    +0.000 C 
BRANCH  27  29
ATOM     29  O   UNL     1      53.906  -1.210  19.484  0.00  0.00    +0.000 OA
ATOM     30  H   UNL     1      53.902  -2.110  19.101  0.00  0.00    +0.000 HD
ENDBRANCH  27  29
ENDBRANCH  23  24
ENDBRANCH  20  23
ENDBRANCH  16  17
ENDBRANCH   3  16
TORSDOF 6
ENDMDL
MODEL 4
REMARK VINA RESULT:    -7.147      1.493      2.213
REMARK INTER + INTRA:         -10.137
REMARK INTER:                  -9.617
REMARK INTRA:                  -0.521
REMARK UNBOUND:                -0.693
REMARK  Name = 
REMARK  6 active torsions:
REMARK  status: ('A' for Active; 'I' for Inactive)
REMARK    1  A    between atoms: C_2  and  C_18
REMARK    2  A    between atoms: N_3  and  C_4
REMARK    3  A    between atoms: C_4  and  C_5
REMARK    4  A    between atoms: C_8  and  C_9
REMARK    5  A    between atoms: C_9  and  N_10
REMARK    6  A    between atoms: C_13  and  O_14
REMARK                            x       y       z     vdW  Elec       q    Type
REMARK                         _______ _______ _______ _____ _____    ______ ____
ROOT
ATOM      1  O   UNL     1      48.124   5.778  13.539  0.00  0.00    +0.000 OA
ATOM      2  C   UNL     1      47.324   5.390  14.385  0.00  0.00    +0.000 C 
ATOM      3  N   UNL     1      45.966   5.471  14.212  0.00  0.00    +0.000 N 
ATOM      4  H   UNL     1      45.355   5.286  15.002  0.00  0.00    +0.000 HD
ENDROOT
BRANCH   2   5
ATOM      5  C   UNL     1      47.771   4.770  15.640  0.00  0.00    +0.000 A 
ATOM      6  C   UNL     1      47.482   3.436  15.895  0.00  0.00    +0.000 A 
ATOM      7  S   UNL     1      48.065   2.883  17.400  0.00  0.00    +0.000 S 
ATOM      8  C   UNL     1      48.767   4.394  17.745  0.00  0.00    +0.000 A 
ATOM      9  N   UNL     1      49.467   4.595  18.894  0.00  0.00    +0.000 NA
ATOM     10  C   UNL     1      49.985   5.773  19.006  0.00  0.00    +0.000 A 
ATOM     11  N   UNL     1      49.856   6.775  18.079  0.00  0.00    +0.000 N 
ATOM     12  C   UNL     1      49.093   6.642  16.944  0.00  0.00    +0.000 A 
ATOM     13  O   UNL     1      48.881   7.601  16.208  0.00  0.00    +0.000 OA
ATOM     14  C   UNL     1      48.534   5.318  16.740  0.00  0.00    +0.000 A 
ATOM     15  H   UNL     1      50.256   7.686  18.241  0.00  0.00    +0.000 HD
ENDBRANCH   2   5
BRANCH   3  16
ATOM     16  C   UNL     1      45.360   6.153  13.097  0.00  0.00    +0.000 C 
BRANCH  16  17
ATOM     17  C   UNL     1      45.328   5.287  11.875  0.00  0.00    +0.000 A 
ATOM     18  C   UNL     1      45.606   5.811  10.611  0.00  0.00    +0.000 A 
ATOM     19  C   UNL     1      45.592   4.979   9.496  0.00  0.00    +0.000 A 
ATOM     20  C   UNL     1      45.274   3.635   9.662  0.00  0.00    +0.000 A 
ATOM     21  N   UNL     1      44.968   3.105  10.879  0.00  0.00    +0.000 NA
ATOM     22  C   UNL     1      44.998   3.939  11.945  0.00  0.00    +0.000 A 
BRANCH  20  23
ATOM     23  C   UNL     1      45.257   2.694   8.468  0.00  0.00    +0.000 C 
BRANCH  23  24
ATOM     24  N   UNL     1      46.494   2.691   7.653  0.00  0.00    +0.000 NA
ATOM     25  C   UNL     1      46.324   3.526   6.453  0.00  0.00    +0.000 C 
ATOM     26  C   UNL     1      46.815   2.723   5.254  0.00  0.00    +0.000 C 
ATOM     27  C   UNL     1      47.526   1.525   5.849  0.00  0.00    +0.000 C 
ATOM     28  C   UNL     1      46.840   1.329   7.197  0.00  0.00    +0.000 C 
BRANCH  27  29
ATOM     29  O   UNL     1      48.911   1.821   6.008  0.00  0.00    +0.000 OA
ATOM     30  H   UNL     1      48.983   2.368   6.815  0.00  0.00    +0.000 HD
ENDBRANCH  27  29
ENDBRANCH  23  24
ENDBRANCH  20  23
ENDBRANCH  16  17
ENDBRANCH   3  16
TORSDOF 6
ENDMDL
MODEL 5
REMARK VINA RESULT:    -7.117      1.595      2.038
REMARK INTER + INTRA:         -10.098
REMARK INTER:                  -9.452
REMARK INTRA:                  -0.646
REMARK UNBOUND:                -0.693
REMARK  Name = 
REMARK  6 active torsions:
REMARK  status: ('A' for Active; 'I' for Inactive)
REMARK    1  A    between atoms: C_2  and  C_18
REMARK    2  A    between atoms: N_3  and  C_4
REMARK    3  A    between atoms: C_4  and  C_5
REMARK    4  A    between atoms: C_8  and  C_9
REMARK    5  A    between atoms: C_9  and  N_10
REMARK    6  A    between atoms: C_13  and  O_14
REMARK                            x       y       z     vdW  Elec       q    Type
REMARK                         _______ _______ _______ _____ _____    ______ ____
ROOT
ATOM      1  O   UNL     1      46.922   3.781  14.009  0.00  0.00    +0.000 OA
ATOM      2  C   UNL     1      46.784   5.000  13.999  0.00  0.00    +0.000 C 
ATOM      3  N   UNL     1      45.586   5.607  13.723  0.00  0.00    +0.000 N 
ATOM      4  H   UNL     1      45.563   6.611  13.572  0.00  0.00    +0.000 HD
ENDROOT
BRANCH   2   5
ATOM      5  C   UNL     1      47.897   5.904  14.324  0.00  0.00    +0.000 A 
ATOM      6  C   UNL     1      48.436   6.721  13.340  0.00  0.00    +0.000 A 
ATOM      7  S   UNL     1      49.725   7.696  13.887  0.00  0.00    +0.000 S 
ATOM      8  C   UNL     1      49.578   7.096  15.472  0.00  0.00    +0.000 A 
ATOM      9  N   UNL     1      50.381   7.552  16.471  0.00  0.00    +0.000 NA
ATOM     10  C   UNL     1      50.130   7.045  17.633  0.00  0.00    +0.000 A 
ATOM     11  N   UNL     1      49.157   6.114  17.885  0.00  0.00    +0.000 N 
ATOM     12  C   UNL     1      48.378   5.567  16.895  0.00  0.00    +0.000 A 
ATOM     13  O   UNL     1      47.617   4.633  17.131  0.00  0.00    +0.000 OA
ATOM     14  C   UNL     1      48.580   6.142  15.577  0.00  0.00    +0.000 A 
ATOM     15  H   UNL     1      49.034   5.731  18.810  0.00  0.00    +0.000 HD
ENDBRANCH   2   5
BRANCH   3  16
ATOM     16  C   UNL     1      44.427   4.880  13.274  0.00  0.00    +0.000 C 
BRANCH  16  17
ATOM     17  C   UNL     1      44.562   4.460  11.842  0.00  0.00    +0.000 A 
ATOM     18  C   UNL     1      44.078   3.226  11.402  0.00  0.00    +0.000 A 
ATOM     19  C   UNL     1      44.197   2.871  10.062  0.00  0.00    +0.000 A 
ATOM     20  C   UNL     1      44.824   3.750   9.185  0.00  0.00    +0.000 A 
ATOM     21  N   UNL     1      45.334   4.945   9.595  0.00  0.00    +0.000 NA
ATOM     22  C   UNL     1      45.195   5.265  10.903  0.00  0.00    +0.000 A 
BRANCH  20  23
ATOM     23  C   UNL     1      44.966   3.401   7.713  0.00  0.00    +0.000 C 
BRANCH  23  24
ATOM     24  N   UNL     1      46.357   3.377   7.204  0.00  0.00    +0.000 NA
ATOM     25  C   UNL     1      46.378   3.590   5.747  0.00  0.00    +0.000 C 
ATOM     26  C   UNL     1      47.277   2.522   5.134  0.00  0.00    +0.000 C 
ATOM     27  C   UNL     1      47.982   1.880   6.311  0.00  0.00    +0.000 C 
ATOM     28  C   UNL     1      47.009   2.078   7.469  0.00  0.00    +0.000 C 
BRANCH  27  29
ATOM     29  O   UNL     1      49.219   2.547   6.550  0.00  0.00    +0.000 OA
ATOM     30  H   UNL     1      49.074   3.484   6.311  0.00  0.00    +0.000 HD
ENDBRANCH  27  29
ENDBRANCH  23  24
ENDBRANCH  20  23
ENDBRANCH  16  17
ENDBRANCH   3  16
TORSDOF 6
ENDMDL
MODEL 6
REMARK VINA RESULT:    -7.021      3.342      4.087
REMARK INTER + INTRA:          -9.972
REMARK INTER:                  -9.118
REMARK INTRA:                  -0.854
REMARK UNBOUND:                -0.693
REMARK  Name = 
REMARK  6 active torsions:
REMARK  status: ('A' for Active; 'I' for Inactive)
REMARK    1  A    between atoms: C_2  and  C_18
REMARK    2  A    between atoms: N_3  and  C_4
REMARK    3  A    between atoms: C_4  and  C_5
REMARK    4  A    between atoms: C_8  and  C_9
REMARK    5  A    between atoms: C_9  and  N_10
REMARK    6  A    between atoms: C_13  and  O_14
REMARK                            x       y       z     vdW  Elec       q    Type
REMARK                         _______ _______ _______ _____ _____    ______ ____
ROOT
ATOM      1  O   UNL     1      48.484   8.615  15.745  0.00  0.00    +0.000 OA
ATOM      2  C   UNL     1      48.849   7.491  15.414  0.00  0.00    +0.000 C 
ATOM      3  N   UNL     1      49.018   7.122  14.104  0.00  0.00    +0.000 N 
ATOM      4  H   UNL     1      49.165   6.143  13.881  0.00  0.00    +0.000 HD
ENDROOT
BRANCH   2   5
ATOM      5  C   UNL     1      49.171   6.461  16.412  0.00  0.00    +0.000 A 
ATOM      6  C   UNL     1      50.177   6.688  17.341  0.00  0.00    +0.000 A 
ATOM      7  S   UNL     1      50.425   5.386  18.416  0.00  0.00    +0.000 S 
ATOM      8  C   UNL     1      49.164   4.490  17.708  0.00  0.00    +0.000 A 
ATOM      9  N   UNL     1      48.821   3.264  18.187  0.00  0.00    +0.000 NA
ATOM     10  C   UNL     1      47.817   2.716  17.586  0.00  0.00    +0.000 A 
ATOM     11  N   UNL     1      47.132   3.277  16.540  0.00  0.00    +0.000 N 
ATOM     12  C   UNL     1      47.493   4.474  15.973  0.00  0.00    +0.000 A 
ATOM     13  O   UNL     1      46.951   4.879  14.949  0.00  0.00    +0.000 OA
ATOM     14  C   UNL     1      48.581   5.161  16.646  0.00  0.00    +0.000 A 
ATOM     15  H   UNL     1      46.377   2.782  16.091  0.00  0.00    +0.000 HD
ENDBRANCH   2   5
BRANCH   3  16
ATOM     16  C   UNL     1      48.639   7.967  13.000  0.00  0.00    +0.000 C 
BRANCH  16  17
ATOM     17  C   UNL     1      47.285   7.604  12.469  0.00  0.00    +0.000 A 
ATOM     18  C   UNL     1      47.136   6.639  11.471  0.00  0.00    +0.000 A 
ATOM     19  C   UNL     1      45.865   6.306  11.013  0.00  0.00    +0.000 A 
ATOM     20  C   UNL     1      44.762   6.964  11.546  0.00  0.00    +0.000 A 
ATOM     21  N   UNL     1      44.882   7.931  12.498  0.00  0.00    +0.000 NA
ATOM     22  C   UNL     1      46.132   8.227  12.929  0.00  0.00    +0.000 A 
BRANCH  20  23
ATOM     23  C   UNL     1      43.358   6.621  11.077  0.00  0.00    +0.000 C 
BRANCH  23  24
ATOM     24  N   UNL     1      42.906   5.247  11.400  0.00  0.00    +0.000 NA
ATOM     25  C   UNL     1      43.028   4.989  12.844  0.00  0.00    +0.000 C 
ATOM     26  C   UNL     1      43.726   3.645  13.019  0.00  0.00    +0.000 C 
ATOM     27  C   UNL     1      43.736   3.026  11.637  0.00  0.00    +0.000 C 
ATOM     28  C   UNL     1      43.717   4.230  10.700  0.00  0.00    +0.000 C 
BRANCH  27  29
ATOM     29  O   UNL     1      42.577   2.215  11.465  0.00  0.00    +0.000 OA
ATOM     30  H   UNL     1      41.998   2.401  12.231  0.00  0.00    +0.000 HD
ENDBRANCH  27  29
ENDBRANCH  23  24
ENDBRANCH  20  23
ENDBRANCH  16  17
ENDBRANCH   3  16
TORSDOF 6
ENDMDL
MODEL 7
REMARK VINA RESULT:    -6.977      1.630      2.247
REMARK INTER + INTRA:          -9.913
REMARK INTER:                  -9.422
REMARK INTRA:                  -0.491
REMARK UNBOUND:                -0.693
REMARK  Name = 
REMARK  6 active torsions:
REMARK  status: ('A' for Active; 'I' for Inactive)
REMARK    1  A    between atoms: C_2  and  C_18
REMARK    2  A    between atoms: N_3  and  C_4
REMARK    3  A    between atoms: C_4  and  C_5
REMARK    4  A    between atoms: C_8  and  C_9
REMARK    5  A    between atoms: C_9  and  N_10
REMARK    6  A    between atoms: C_13  and  O_14
REMARK                            x       y       z     vdW  Elec       q    Type
REMARK                         _______ _______ _______ _____ _____    ______ ____
ROOT
ATOM      1  O   UNL     1      49.695   7.015  13.882  0.00  0.00    +0.000 OA
ATOM      2  C   UNL     1      48.847   6.943  14.767  0.00  0.00    +0.000 C 
ATOM      3  N   UNL     1      47.529   7.258  14.556  0.00  0.00    +0.000 N 
ATOM      4  H   UNL     1      46.906   7.335  15.354  0.00  0.00    +0.000 HD
ENDROOT
BRANCH   2   5
ATOM      5  C   UNL     1      49.182   6.473  16.119  0.00  0.00    +0.000 A 
ATOM      6  C   UNL     1      49.978   7.253  16.946  0.00  0.00    +0.000 A 
ATOM      7  S   UNL     1      50.276   6.552  18.472  0.00  0.00    +0.000 S 
ATOM      8  C   UNL     1      49.312   5.201  18.100  0.00  0.00    +0.000 A 
ATOM      9  N   UNL     1      49.115   4.209  19.011  0.00  0.00    +0.000 NA
ATOM     10  C   UNL     1      48.325   3.268  18.613  0.00  0.00    +0.000 A 
ATOM     11  N   UNL     1      47.724   3.219  17.382  0.00  0.00    +0.000 N 
ATOM     12  C   UNL     1      47.958   4.155  16.405  0.00  0.00    +0.000 A 
ATOM     13  O   UNL     1      47.519   4.007  15.268  0.00  0.00    +0.000 OA
ATOM     14  C   UNL     1      48.795   5.267  16.818  0.00  0.00    +0.000 A 
ATOM     15  H   UNL     1      47.144   2.437  17.119  0.00  0.00    +0.000 HD
ENDBRANCH   2   5
BRANCH   3  16
ATOM     16  C   UNL     1      47.052   7.842  13.329  0.00  0.00    +0.000 C 
BRANCH  16  17
ATOM     17  C   UNL     1      46.161   6.898  12.581  0.00  0.00    +0.000 A 
ATOM     18  C   UNL     1      45.051   7.362  11.871  0.00  0.00    +0.000 A 
ATOM     19  C   UNL     1      44.254   6.465  11.166  0.00  0.00    +0.000 A 
ATOM     20  C   UNL     1      44.566   5.111  11.205  0.00  0.00    +0.000 A 
ATOM     21  N   UNL     1      45.623   4.629  11.916  0.00  0.00    +0.000 NA
ATOM     22  C   UNL     1      46.385   5.527  12.584  0.00  0.00    +0.000 A 
BRANCH  20  23
ATOM     23  C   UNL     1      43.723   4.103  10.441  0.00  0.00    +0.000 C 
BRANCH  23  24
ATOM     24  N   UNL     1      44.251   3.723   9.110  0.00  0.00    +0.000 NA
ATOM     25  C   UNL     1      44.544   2.281   9.062  0.00  0.00    +0.000 C 
ATOM     26  C   UNL     1      45.939   2.110   8.471  0.00  0.00    +0.000 C 
ATOM     27  C   UNL     1      46.306   3.476   7.929  0.00  0.00    +0.000 C 
ATOM     28  C   UNL     1      45.506   4.439   8.800  0.00  0.00    +0.000 C 
BRANCH  27  29
ATOM     29  O   UNL     1      45.918   3.567   6.560  0.00  0.00    +0.000 OA
ATOM     30  H   UNL     1      45.149   2.973   6.454  0.00  0.00    +0.000 HD
ENDBRANCH  27  29
ENDBRANCH  23  24
ENDBRANCH  20  23
ENDBRANCH  16  17
ENDBRANCH   3  16
TORSDOF 6
ENDMDL
MODEL 8
REMARK VINA RESULT:    -6.757      3.757      8.798
REMARK INTER + INTRA:          -9.622
REMARK INTER:                  -8.856
REMARK INTRA:                  -0.766
REMARK UNBOUND:                -0.693
REMARK  Name = 
REMARK  6 active torsions:
REMARK  status: ('A' for Active; 'I' for Inactive)
REMARK    1  A    between atoms: C_2  and  C_18
REMARK    2  A    between atoms: N_3  and  C_4
REMARK    3  A    between atoms: C_4  and  C_5
REMARK    4  A    between atoms: C_8  and  C_9
REMARK    5  A    between atoms: C_9  and  N_10
REMARK    6  A    between atoms: C_13  and  O_14
REMARK                            x       y       z     vdW  Elec       q    Type
REMARK                         _______ _______ _______ _____ _____    ______ ____
ROOT
ATOM      1  O   UNL     1      45.099   8.001  11.604  0.00  0.00    +0.000 OA
ATOM      2  C   UNL     1      45.848   7.033  11.502  0.00  0.00    +0.000 C 
ATOM      3  N   UNL     1      47.114   7.017  12.030  0.00  0.00    +0.000 N 
ATOM      4  H   UNL     1      47.744   6.261  11.782  0.00  0.00    +0.000 HD
ENDROOT
BRANCH   2   5
ATOM      5  C   UNL     1      45.422   5.797  10.832  0.00  0.00    +0.000 A 
ATOM      6  C   UNL     1      45.778   5.566   9.510  0.00  0.00    +0.000 A 
ATOM      7  S   UNL     1      45.191   4.090   8.889  0.00  0.00    +0.000 S 
ATOM      8  C   UNL     1      44.478   3.683  10.378  0.00  0.00    +0.000 A 
ATOM      9  N   UNL     1      43.825   2.501  10.543  0.00  0.00    +0.000 NA
ATOM     10  C   UNL     1      43.373   2.301  11.736  0.00  0.00    +0.000 A 
ATOM     11  N   UNL     1      43.502   3.181  12.779  0.00  0.00    +0.000 N 
ATOM     12  C   UNL     1      44.082   4.418  12.638  0.00  0.00    +0.000 A 
ATOM     13  O   UNL     1      44.053   5.239  13.550  0.00  0.00    +0.000 OA
ATOM     14  C   UNL     1      44.658   4.673  11.330  0.00  0.00    +0.000 A 
ATOM     15  H   UNL     1      43.096   2.981  13.680  0.00  0.00    +0.000 HD
ENDBRANCH   2   5
BRANCH   3  16
ATOM     16  C   UNL     1      47.730   8.180  12.616  0.00  0.00    +0.000 C 
BRANCH  16  17
ATOM     17  C   UNL     1      48.247   7.894  13.993  0.00  0.00    +0.000 A 
ATOM     18  C   UNL     1      48.263   8.883  14.978  0.00  0.00    +0.000 A 
ATOM     19  C   UNL     1      48.728   8.582  16.255  0.00  0.00    +0.000 A 
ATOM     20  C   UNL     1      49.194   7.299  16.518  0.00  0.00    +0.000 A 
ATOM     21  N   UNL     1      49.219   6.325  15.566  0.00  0.00    +0.000 NA
ATOM     22  C   UNL     1      48.752   6.646  14.336  0.00  0.00    +0.000 A 
BRANCH  20  23
ATOM     23  C   UNL     1      49.701   6.931  17.903  0.00  0.00    +0.000 C 
BRANCH  23  24
ATOM     24  N   UNL     1      48.998   5.798  18.549  0.00  0.00    +0.000 NA
ATOM     25  C   UNL     1      47.650   6.203  18.979  0.00  0.00    +0.000 C 
ATOM     26  C   UNL     1      47.462   5.738  20.419  0.00  0.00    +0.000 C 
ATOM     27  C   UNL     1      48.632   4.816  20.689  0.00  0.00    +0.000 C 
ATOM     28  C   UNL     1      49.719   5.324  19.748  0.00  0.00    +0.000 C 
BRANCH  27  29
ATOM     29  O   UNL     1      48.265   3.473  20.383  0.00  0.00    +0.000 OA
ATOM     30  H   UNL     1      48.980   3.117  19.819  0.00  0.00    +0.000 HD
ENDBRANCH  27  29
ENDBRANCH  23  24
ENDBRANCH  20  23
ENDBRANCH  16  17
ENDBRANCH   3  16
TORSDOF 6
ENDMDL
MODEL 9
REMARK VINA RESULT:    -6.631      3.841      8.208
REMARK INTER + INTRA:          -9.456
REMARK INTER:                  -8.811
REMARK INTRA:                  -0.645
REMARK UNBOUND:                -0.693
REMARK  Name = 
REMARK  6 active torsions:
REMARK  status: ('A' for Active; 'I' for Inactive)
REMARK    1  A    between atoms: C_2  and  C_18
REMARK    2  A    between atoms: N_3  and  C_4
REMARK    3  A    between atoms: C_4  and  C_5
REMARK    4  A    between atoms: C_8  and  C_9
REMARK    5  A    between atoms: C_9  and  N_10
REMARK    6  A    between atoms: C_13  and  O_14
REMARK                            x       y       z     vdW  Elec       q    Type
REMARK                         _______ _______ _______ _____ _____    ______ ____
ROOT
ATOM      1  O   UNL     1      48.637   6.139  12.820  0.00  0.00    +0.000 OA
ATOM      2  C   UNL     1      47.585   6.571  13.283  0.00  0.00    +0.000 C 
ATOM      3  N   UNL     1      47.543   7.428  14.352  0.00  0.00    +0.000 N 
ATOM      4  H   UNL     1      46.649   7.627  14.792  0.00  0.00    +0.000 HD
ENDROOT
BRANCH   2   5
ATOM      5  C   UNL     1      46.285   6.224  12.692  0.00  0.00    +0.000 A 
ATOM      6  C   UNL     1      45.500   7.213  12.114  0.00  0.00    +0.000 A 
ATOM      7  S   UNL     1      44.022   6.637  11.488  0.00  0.00    +0.000 S 
ATOM      8  C   UNL     1      44.397   5.037  11.925  0.00  0.00    +0.000 A 
ATOM      9  N   UNL     1      43.545   4.015  11.638  0.00  0.00    +0.000 NA
ATOM     10  C   UNL     1      43.976   2.847  11.984  0.00  0.00    +0.000 A 
ATOM     11  N   UNL     1      45.175   2.608  12.603  0.00  0.00    +0.000 N 
ATOM     12  C   UNL     1      46.028   3.615  12.983  0.00  0.00    +0.000 A 
ATOM     13  O   UNL     1      47.024   3.380  13.661  0.00  0.00    +0.000 OA
ATOM     14  C   UNL     1      45.620   4.945  12.567  0.00  0.00    +0.000 A 
ATOM     15  H   UNL     1      45.439   1.675  12.879  0.00  0.00    +0.000 HD
ENDBRANCH   2   5
BRANCH   3  16
ATOM     16  C   UNL     1      48.711   7.778  15.119  0.00  0.00    +0.000 C 
BRANCH  16  17
ATOM     17  C   UNL     1      49.203   6.619  15.931  0.00  0.00    +0.000 A 
ATOM     18  C   UNL     1      48.319   5.666  16.441  0.00  0.00    +0.000 A 
ATOM     19  C   UNL     1      48.806   4.588  17.172  0.00  0.00    +0.000 A 
ATOM     20  C   UNL     1      50.174   4.494  17.404  0.00  0.00    +0.000 A 
ATOM     21  N   UNL     1      51.055   5.426  16.946  0.00  0.00    +0.000 NA
ATOM     22  C   UNL     1      50.550   6.460  16.230  0.00  0.00    +0.000 A 
BRANCH  20  23
ATOM     23  C   UNL     1      50.744   3.325  18.191  0.00  0.00    +0.000 C 
BRANCH  23  24
ATOM     24  N   UNL     1      51.921   2.669  17.577  0.00  0.00    +0.000 NA
ATOM     25  C   UNL     1      51.673   1.229  17.395  0.00  0.00    +0.000 C 
ATOM     26  C   UNL     1      52.885   0.477  17.935  0.00  0.00    +0.000 C 
ATOM     27  C   UNL     1      53.937   1.542  18.164  0.00  0.00    +0.000 C 
ATOM     28  C   UNL     1      53.124   2.806  18.424  0.00  0.00    +0.000 C 
BRANCH  27  29
ATOM     29  O   UNL     1      54.747   1.675  16.998  0.00  0.00    +0.000 OA
ATOM     30  H   UNL     1      54.765   0.793  16.577  0.00  0.00    +0.000 HD
ENDBRANCH  27  29
ENDBRANCH  23  24
ENDBRANCH  20  23
ENDBRANCH  16  17
ENDBRANCH   3  16
TORSDOF 6
ENDMDL
