MODEL 1
REMARK VINA RESULT:    -8.403      0.000      0.000
REMARK INTER + INTRA:         -12.283
REMARK INTER:                 -11.351
REMARK INTRA:                  -0.932
REMARK UNBOUND:                -0.932
REMARK  Name = 
REMARK  6 active torsions:
REMARK  status: ('A' for Active; 'I' for Inactive)
REMARK    1  A    between atoms: C_2  and  C_3
REMARK    2  A    between atoms: C_6  and  O_7
REMARK    3  A    between atoms: O_7  and  C_8
REMARK    4  A    between atoms: C_8  and  C_9
REMARK    5  A    between atoms: C_9  and  C_12
REMARK    6  A    between atoms: C_16  and  C_17
REMARK                            x       y       z     vdW  Elec       q    Type
REMARK                         _______ _______ _______ _____ _____    ______ ____
ROOT
ATOM      1  C   UNL     1      43.584   5.629  11.557  0.00  0.00    +0.000 C 
ATOM      2  F   UNL     1      43.031   6.872  11.422  0.00  0.00    +0.000 F 
ATOM      3  F   UNL     1      42.759   4.984  12.446  0.00  0.00    +0.000 F 
ENDROOT
BRANCH   1   4
ATOM      4  C   UNL     1      45.003   5.691  12.086  0.00  0.00    +0.000 A 
ATOM      5  C   UNL     1      45.892   6.658  11.593  0.00  0.00    +0.000 A 
ATOM      6  C   UNL     1      47.181   6.770  12.113  0.00  0.00    +0.000 A 
ATOM      7  C   UNL     1      47.585   5.937  13.156  0.00  0.00    +0.000 A 
ATOM      8  C   UNL     1      46.708   4.978  13.677  0.00  0.00    +0.000 A 
ATOM      9  C   UNL     1      45.433   4.829  13.113  0.00  0.00    +0.000 A 
BRANCH   8  10
ATOM     10  C   UNL     1      47.158   4.184  14.853  0.00  0.00    +0.000 C 
ATOM     11  N   UNL     1      47.167   4.806  16.072  0.00  0.00    +0.000 N 
ATOM     12  O   UNL     1      47.562   3.034  14.735  0.00  0.00    +0.000 OA
ATOM     13  H   UNL     1      47.035   5.799  16.193  0.00  0.00    +0.000 HD
ATOM     14  H   UNL     1      47.616   4.300  16.826  0.00  0.00    +0.000 HD
ENDBRANCH   8  10
ENDBRANCH   1   4
BRANCH   1  15
ATOM     15  C   UNL     1      43.453   4.888  10.220  0.00  0.00    +0.000 C 
BRANCH  15  16
ATOM     16  O   UNL     1      43.840   3.512  10.313  0.00  0.00    +0.000 OA
BRANCH  16  20
ATOM     17  C   UNL     1      46.652   2.451   7.413  0.00  0.00    +0.000 A 
ATOM     18  C   UNL     1      46.051   1.435   8.164  0.00  0.00    +0.000 A 
ATOM     19  C   UNL     1      45.105   1.749   9.148  0.00  0.00    +0.000 A 
ATOM     20  C   UNL     1      44.754   3.079   9.388  0.00  0.00    +0.000 A 
ATOM     21  C   UNL     1      45.365   4.091   8.642  0.00  0.00    +0.000 A 
ATOM     22  C   UNL     1      46.313   3.781   7.661  0.00  0.00    +0.000 A 
BRANCH  17  24
ATOM     23  N   UNL     1      48.397   1.847   5.595  0.00  0.00    +0.000 NA
ATOM     24  C   UNL     1      47.612   2.121   6.406  0.00  0.00    +0.000 C 
ENDBRANCH  17  24
ENDBRANCH  16  20
ENDBRANCH  15  16
ENDBRANCH   1  15
TORSDOF 6
ENDMDL
MODEL 2
REMARK VINA RESULT:    -8.070      2.307      2.966
REMARK INTER + INTRA:         -11.833
REMARK INTER:                 -11.085
REMARK INTRA:                  -0.748
REMARK UNBOUND:                -0.932
REMARK  Name = 
REMARK  6 active torsions:
REMARK  status: ('A' for Active; 'I' for Inactive)
REMARK    1  A    between atoms: C_2  and  C_3
REMARK    2  A    between atoms: C_6  and  O_7
REMARK    3  A    between atoms: O_7  and  C_8
REMARK    4  A    between atoms: C_8  and  C_9
REMARK    5  A    between atoms: C_9  and  C_12
REMARK    6  A    between atoms: C_16  and  C_17
REMARK                            x       y       z     vdW  Elec       q    Type
REMARK                         _______ _______ _______ _____ _____    ______ ____
ROOT
ATOM      1  C   UNL     1      43.913   4.457  12.448  0.00  0.00    +0.000 C 
ATOM      2  F   UNL     1      42.811   4.588  13.247  0.00  0.00    +0.000 F 
ATOM      3  F   UNL     1      44.324   3.161  12.646  0.00  0.00    +0.000 F 
ENDROOT
BRANCH   1   4
ATOM      4  C   UNL     1      45.009   5.434  12.823  0.00  0.00    +0.000 A 
ATOM      5  C   UNL     1      46.220   4.958  13.347  0.00  0.00    +0.000 A 
ATOM      6  C   UNL     1      47.263   5.837  13.638  0.00  0.00    +0.000 A 
ATOM      7  C   UNL     1      47.118   7.200  13.376  0.00  0.00    +0.000 A 
ATOM      8  C   UNL     1      45.925   7.693  12.834  0.00  0.00    +0.000 A 
ATOM      9  C   UNL     1      44.858   6.815  12.597  0.00  0.00    +0.000 A 
BRANCH   8  10
ATOM     10  C   UNL     1      45.861   9.139  12.484  0.00  0.00    +0.000 C 
ATOM     11  N   UNL     1      44.675   9.789  12.692  0.00  0.00    +0.000 N 
ATOM     12  O   UNL     1      46.811   9.720  11.975  0.00  0.00    +0.000 OA
ATOM     13  H   UNL     1      43.812   9.317  12.920  0.00  0.00    +0.000 HD
ATOM     14  H   UNL     1      44.607  10.724  12.310  0.00  0.00    +0.000 HD
ENDBRANCH   8  10
ENDBRANCH   1   4
BRANCH   1  15
ATOM     15  C   UNL     1      43.469   4.555  10.983  0.00  0.00    +0.000 C 
BRANCH  15  16
ATOM     16  O   UNL     1      43.467   3.285  10.321  0.00  0.00    +0.000 OA
BRANCH  16  20
ATOM     17  C   UNL     1      46.482   2.414   7.567  0.00  0.00    +0.000 A 
ATOM     18  C   UNL     1      46.097   3.748   7.736  0.00  0.00    +0.000 A 
ATOM     19  C   UNL     1      45.088   4.082   8.647  0.00  0.00    +0.000 A 
ATOM     20  C   UNL     1      44.457   3.086   9.395  0.00  0.00    +0.000 A 
ATOM     21  C   UNL     1      44.840   1.754   9.216  0.00  0.00    +0.000 A 
ATOM     22  C   UNL     1      45.845   1.417   8.303  0.00  0.00    +0.000 A 
BRANCH  17  24
ATOM     23  N   UNL     1      48.368   1.811   5.894  0.00  0.00    +0.000 NA
ATOM     24  C   UNL     1      47.519   2.083   6.639  0.00  0.00    +0.000 C 
ENDBRANCH  17  24
ENDBRANCH  16  20
ENDBRANCH  15  16
ENDBRANCH   1  15
TORSDOF 6
ENDMDL
MODEL 3
REMARK VINA RESULT:    -7.834      2.476      6.101
REMARK INTER + INTRA:         -11.514
REMARK INTER:                 -10.422
REMARK INTRA:                  -1.092
REMARK UNBOUND:                -0.932
REMARK  Name = 
REMARK  6 active torsions:
REMARK  status: ('A' for Active; 'I' for Inactive)
REMARK    1  A    between atoms: C_2  and  C_3
REMARK    2  A    between atoms: C_6  and  O_7
REMARK    3  A    between atoms: O_7  and  C_8
REMARK    4  A    between atoms: C_8  and  C_9
REMARK    5  A    between atoms: C_9  and  C_12
REMARK    6  A    between atoms: C_16  and  C_17
REMARK                            x       y       z     vdW  Elec       q    Type
REMARK                         _______ _______ _______ _____ _____    ______ ____
ROOT
ATOM      1  C   UNL     1      44.056   3.057  10.868  0.00  0.00    +0.000 C 
ATOM      2  F   UNL     1      43.427   1.844  10.927  0.00  0.00    +0.000 F 
ATOM      3  F   UNL     1      43.031   3.972  10.863  0.00  0.00    +0.000 F 
ENDROOT
BRANCH   1   4
ATOM      4  C   UNL     1      44.910   3.196   9.624  0.00  0.00    +0.000 A 
ATOM      5  C   UNL     1      45.206   4.471   9.119  0.00  0.00    +0.000 A 
ATOM      6  C   UNL     1      46.042   4.621   8.013  0.00  0.00    +0.000 A 
ATOM      7  C   UNL     1      46.619   3.498   7.420  0.00  0.00    +0.000 A 
ATOM      8  C   UNL     1      46.353   2.218   7.921  0.00  0.00    +0.000 A 
ATOM      9  C   UNL     1      45.467   2.067   8.996  0.00  0.00    +0.000 A 
BRANCH   8  10
ATOM     10  C   UNL     1      47.072   1.065   7.311  0.00  0.00    +0.000 C 
ATOM     11  N   UNL     1      46.717  -0.192   7.720  0.00  0.00    +0.000 N 
ATOM     12  O   UNL     1      47.989   1.227   6.516  0.00  0.00    +0.000 OA
ATOM     13  H   UNL     1      46.113  -0.372   8.509  0.00  0.00    +0.000 HD
ATOM     14  H   UNL     1      47.315  -0.946   7.409  0.00  0.00    +0.000 HD
ENDBRANCH   8  10
ENDBRANCH   1   4
BRANCH   1  15
ATOM     15  C   UNL     1      44.827   3.272  12.178  0.00  0.00    +0.000 C 
BRANCH  15  16
ATOM     16  O   UNL     1      44.481   4.502  12.825  0.00  0.00    +0.000 OA
BRANCH  16  20
ATOM     17  C   UNL     1      47.231   7.584  12.207  0.00  0.00    +0.000 A 
ATOM     18  C   UNL     1      45.882   7.827  11.930  0.00  0.00    +0.000 A 
ATOM     19  C   UNL     1      44.928   6.820  12.122  0.00  0.00    +0.000 A 
ATOM     20  C   UNL     1      45.317   5.563  12.589  0.00  0.00    +0.000 A 
ATOM     21  C   UNL     1      46.667   5.322  12.855  0.00  0.00    +0.000 A 
ATOM     22  C   UNL     1      47.623   6.325  12.661  0.00  0.00    +0.000 A 
BRANCH  17  24
ATOM     23  N   UNL     1      48.980   9.467  11.871  0.00  0.00    +0.000 NA
ATOM     24  C   UNL     1      48.197   8.621  12.015  0.00  0.00    +0.000 C 
ENDBRANCH  17  24
ENDBRANCH  16  20
ENDBRANCH  15  16
ENDBRANCH   1  15
TORSDOF 6
ENDMDL
MODEL 4
REMARK VINA RESULT:    -7.495      1.502      1.710
REMARK INTER + INTRA:         -11.056
REMARK INTER:                 -10.239
REMARK INTRA:                  -0.817
REMARK UNBOUND:                -0.932
REMARK  Name = 
REMARK  6 active torsions:
REMARK  status: ('A' for Active; 'I' for Inactive)
REMARK    1  A    between atoms: C_2  and  C_3
REMARK    2  A    between atoms: C_6  and  O_7
REMARK    3  A    between atoms: O_7  and  C_8
REMARK    4  A    between atoms: C_8  and  C_9
REMARK    5  A    between atoms: C_9  and  C_12
REMARK    6  A    between atoms: C_16  and  C_17
REMARK                            x       y       z     vdW  Elec       q    Type
REMARK                         _______ _______ _______ _____ _____    ______ ____
ROOT
ATOM      1  C   UNL     1      44.965   5.152  12.261  0.00  0.00    +0.000 C 
ATOM      2  F   UNL     1      44.032   5.547  13.180  0.00  0.00    +0.000 F 
ATOM      3  F   UNL     1      45.079   3.797  12.454  0.00  0.00    +0.000 F 
ENDROOT
BRANCH   1   4
ATOM      4  C   UNL     1      46.299   5.841  12.469  0.00  0.00    +0.000 A 
ATOM      5  C   UNL     1      46.823   6.668  11.465  0.00  0.00    +0.000 A 
ATOM      6  C   UNL     1      48.017   7.359  11.665  0.00  0.00    +0.000 A 
ATOM      7  C   UNL     1      48.684   7.257  12.885  0.00  0.00    +0.000 A 
ATOM      8  C   UNL     1      48.168   6.453  13.909  0.00  0.00    +0.000 A 
ATOM      9  C   UNL     1      46.998   5.714  13.684  0.00  0.00    +0.000 A 
BRANCH   8  10
ATOM     10  C   UNL     1      48.869   6.458  15.223  0.00  0.00    +0.000 C 
ATOM     11  N   UNL     1      49.691   7.517  15.499  0.00  0.00    +0.000 N 
ATOM     12  O   UNL     1      48.766   5.525  16.009  0.00  0.00    +0.000 OA
ATOM     13  H   UNL     1      49.963   8.206  14.812  0.00  0.00    +0.000 HD
ATOM     14  H   UNL     1      50.270   7.427  16.324  0.00  0.00    +0.000 HD
ENDBRANCH   8  10
ENDBRANCH   1   4
BRANCH   1  15
ATOM     15  C   UNL     1      44.379   5.346  10.856  0.00  0.00    +0.000 C 
BRANCH  15  16
ATOM     16  O   UNL     1      43.945   4.116  10.265  0.00  0.00    +0.000 OA
BRANCH  16  20
ATOM     17  C   UNL     1      46.648   2.573   7.482  0.00  0.00    +0.000 A 
ATOM     18  C   UNL     1      45.961   1.680   8.311  0.00  0.00    +0.000 A 
ATOM     19  C   UNL     1      45.048   2.157   9.259  0.00  0.00    +0.000 A 
ATOM     20  C   UNL     1      44.816   3.528   9.386  0.00  0.00    +0.000 A 
ATOM     21  C   UNL     1      45.512   4.416   8.561  0.00  0.00    +0.000 A 
ATOM     22  C   UNL     1      46.428   3.943   7.615  0.00  0.00    +0.000 A 
BRANCH  17  24
ATOM     23  N   UNL     1      48.333   1.683   5.724  0.00  0.00    +0.000 NA
ATOM     24  C   UNL     1      47.574   2.077   6.511  0.00  0.00    +0.000 C 
ENDBRANCH  17  24
ENDBRANCH  16  20
ENDBRANCH  15  16
ENDBRANCH   1  15
TORSDOF 6
ENDMDL
MODEL 5
REMARK VINA RESULT:    -7.125      1.815      2.393
REMARK INTER + INTRA:         -10.556
REMARK INTER:                  -9.881
REMARK INTRA:                  -0.675
REMARK UNBOUND:                -0.932
REMARK  Name = 
REMARK  6 active torsions:
REMARK  status: ('A' for Active; 'I' for Inactive)
REMARK    1  A    between atoms: C_2  and  C_3
REMARK    2  A    between atoms: C_6  and  O_7
REMARK    3  A    between atoms: O_7  and  C_8
REMARK    4  A    between atoms: C_8  and  C_9
REMARK    5  A    between atoms: C_9  and  C_12
REMARK    6  A    between atoms: C_16  and  C_17
REMARK                            x       y       z     vdW  Elec       q    Type
REMARK                         _______ _______ _______ _____ _____    ______ ____
ROOT
ATOM      1  C   UNL     1      44.190   5.265  12.081  0.00  0.00    +0.000 C 
ATOM      2  F   UNL     1      43.196   5.179  13.016  0.00  0.00    +0.000 F 
ATOM      3  F   UNL     1      44.975   4.163  12.316  0.00  0.00    +0.000 F 
ENDROOT
BRANCH   1   4
ATOM      4  C   UNL     1      44.996   6.541  12.222  0.00  0.00    +0.000 A 
ATOM      5  C   UNL     1      44.546   7.723  11.615  0.00  0.00    +0.000 A 
ATOM      6  C   UNL     1      45.241   8.919  11.787  0.00  0.00    +0.000 A 
ATOM      7  C   UNL     1      46.377   8.954  12.596  0.00  0.00    +0.000 A 
ATOM      8  C   UNL     1      46.832   7.790  13.228  0.00  0.00    +0.000 A 
ATOM      9  C   UNL     1      46.164   6.578  13.006  0.00  0.00    +0.000 A 
BRANCH   8  10
ATOM     10  C   UNL     1      47.990   7.906  14.157  0.00  0.00    +0.000 C 
ATOM     11  N   UNL     1      48.640   9.109  14.213  0.00  0.00    +0.000 N 
ATOM     12  O   UNL     1      48.391   6.948  14.806  0.00  0.00    +0.000 OA
ATOM     13  H   UNL     1      48.477   9.862  13.560  0.00  0.00    +0.000 HD
ATOM     14  H   UNL     1      49.509   9.121  14.731  0.00  0.00    +0.000 HD
ENDBRANCH   8  10
ENDBRANCH   1   4
BRANCH   1  15
ATOM     15  C   UNL     1      43.571   5.074  10.690  0.00  0.00    +0.000 C 
BRANCH  15  16
ATOM     16  O   UNL     1      43.599   3.708  10.259  0.00  0.00    +0.000 OA
BRANCH  16  20
ATOM     17  C   UNL     1      46.555   2.457   7.588  0.00  0.00    +0.000 A 
ATOM     18  C   UNL     1      46.245   3.820   7.651  0.00  0.00    +0.000 A 
ATOM     19  C   UNL     1      45.259   4.280   8.531  0.00  0.00    +0.000 A 
ATOM     20  C   UNL     1      44.574   3.382   9.353  0.00  0.00    +0.000 A 
ATOM     21  C   UNL     1      44.882   2.021   9.280  0.00  0.00    +0.000 A 
ATOM     22  C   UNL     1      45.864   1.557   8.397  0.00  0.00    +0.000 A 
BRANCH  17  24
ATOM     23  N   UNL     1      48.385   1.615   5.957  0.00  0.00    +0.000 NA
ATOM     24  C   UNL     1      47.569   1.997   6.690  0.00  0.00    +0.000 C 
ENDBRANCH  17  24
ENDBRANCH  16  20
ENDBRANCH  15  16
ENDBRANCH   1  15
TORSDOF 6
ENDMDL
MODEL 6
REMARK VINA RESULT:    -7.055      1.884      2.314
REMARK INTER + INTRA:         -10.462
REMARK INTER:                 -10.018
REMARK INTRA:                  -0.445
REMARK UNBOUND:                -0.932
REMARK  Name = 
REMARK  6 active torsions:
REMARK  status: ('A' for Active; 'I' for Inactive)
REMARK    1  A    between atoms: C_2  and  C_3
REMARK    2  A    between atoms: C_6  and  O_7
REMARK    3  A    between atoms: O_7  and  C_8
REMARK    4  A    between atoms: C_8  and  C_9
REMARK    5  A    between atoms: C_9  and  C_12
REMARK    6  A    between atoms: C_16  and  C_17
REMARK                            x       y       z     vdW  Elec       q    Type
REMARK                         _______ _______ _______ _____ _____    ______ ____
ROOT
ATOM      1  C   UNL     1      44.508   5.222  11.638  0.00  0.00    +0.000 C 
ATOM      2  F   UNL     1      44.693   5.867  10.447  0.00  0.00    +0.000 F 
ATOM      3  F   UNL     1      43.341   5.749  12.134  0.00  0.00    +0.000 F 
ENDROOT
BRANCH   1   4
ATOM      4  C   UNL     1      45.657   5.457  12.598  0.00  0.00    +0.000 A 
ATOM      5  C   UNL     1      45.826   4.614  13.706  0.00  0.00    +0.000 A 
ATOM      6  C   UNL     1      46.913   4.777  14.565  0.00  0.00    +0.000 A 
ATOM      7  C   UNL     1      47.863   5.765  14.304  0.00  0.00    +0.000 A 
ATOM      8  C   UNL     1      47.724   6.604  13.193  0.00  0.00    +0.000 A 
ATOM      9  C   UNL     1      46.600   6.476  12.366  0.00  0.00    +0.000 A 
BRANCH   8  10
ATOM     10  C   UNL     1      48.817   7.576  12.909  0.00  0.00    +0.000 C 
ATOM     11  N   UNL     1      50.051   7.314  13.439  0.00  0.00    +0.000 N 
ATOM     12  O   UNL     1      48.614   8.604  12.276  0.00  0.00    +0.000 OA
ATOM     13  H   UNL     1      50.222   6.593  14.125  0.00  0.00    +0.000 HD
ATOM     14  H   UNL     1      50.734   8.057  13.363  0.00  0.00    +0.000 HD
ENDBRANCH   8  10
ENDBRANCH   1   4
BRANCH   1  15
ATOM     15  C   UNL     1      44.232   3.739  11.353  0.00  0.00    +0.000 C 
BRANCH  15  16
ATOM     16  O   UNL     1      43.791   3.510  10.010  0.00  0.00    +0.000 OA
BRANCH  16  20
ATOM     17  C   UNL     1      46.689   2.404   7.214  0.00  0.00    +0.000 A 
ATOM     18  C   UNL     1      46.212   1.433   8.100  0.00  0.00    +0.000 A 
ATOM     19  C   UNL     1      45.242   1.763   9.055  0.00  0.00    +0.000 A 
ATOM     20  C   UNL     1      44.744   3.066   9.130  0.00  0.00    +0.000 A 
ATOM     21  C   UNL     1      45.231   4.035   8.248  0.00  0.00    +0.000 A 
ATOM     22  C   UNL     1      46.204   3.708   7.297  0.00  0.00    +0.000 A 
BRANCH  17  24
ATOM     23  N   UNL     1      48.471   1.762   5.445  0.00  0.00    +0.000 NA
ATOM     24  C   UNL     1      47.675   2.056   6.238  0.00  0.00    +0.000 C 
ENDBRANCH  17  24
ENDBRANCH  16  20
ENDBRANCH  15  16
ENDBRANCH   1  15
TORSDOF 6
ENDMDL
MODEL 7
REMARK VINA RESULT:    -6.048      4.554      6.718
REMARK INTER + INTRA:          -9.102
REMARK INTER:                  -8.528
REMARK INTRA:                  -0.574
REMARK UNBOUND:                -0.932
REMARK  Name = 
REMARK  6 active torsions:
REMARK  status: ('A' for Active; 'I' for Inactive)
REMARK    1  A    between atoms: C_2  and  C_3
REMARK    2  A    between atoms: C_6  and  O_7
REMARK    3  A    between atoms: O_7  and  C_8
REMARK    4  A    between atoms: C_8  and  C_9
REMARK    5  A    between atoms: C_9  and  C_12
REMARK    6  A    between atoms: C_16  and  C_17
REMARK                            x       y       z     vdW  Elec       q    Type
REMARK                         _______ _______ _______ _____ _____    ______ ____
ROOT
ATOM      1  C   UNL     1      47.977   3.099  16.787  0.00  0.00    +0.000 C 
ATOM      2  F   UNL     1      47.153   2.587  17.751  0.00  0.00    +0.000 F 
ATOM      3  F   UNL     1      47.950   2.162  15.783  0.00  0.00    +0.000 F 
ENDROOT
BRANCH   1   4
ATOM      4  C   UNL     1      49.390   3.304  17.295  0.00  0.00    +0.000 A 
ATOM      5  C   UNL     1      49.731   4.496  17.952  0.00  0.00    +0.000 A 
ATOM      6  C   UNL     1      51.008   4.676  18.482  0.00  0.00    +0.000 A 
ATOM      7  C   UNL     1      51.950   3.651  18.388  0.00  0.00    +0.000 A 
ATOM      8  C   UNL     1      51.625   2.446  17.755  0.00  0.00    +0.000 A 
ATOM      9  C   UNL     1      50.359   2.291  17.172  0.00  0.00    +0.000 A 
BRANCH   8  10
ATOM     10  C   UNL     1      52.636   1.353  17.770  0.00  0.00    +0.000 C 
ATOM     11  N   UNL     1      52.242   0.133  18.249  0.00  0.00    +0.000 N 
ATOM     12  O   UNL     1      53.795   1.544  17.424  0.00  0.00    +0.000 OA
ATOM     13  H   UNL     1      51.366  -0.023  18.726  0.00  0.00    +0.000 HD
ATOM     14  H   UNL     1      52.978  -0.548  18.392  0.00  0.00    +0.000 HD
ENDBRANCH   8  10
ENDBRANCH   1   4
BRANCH   1  15
ATOM     15  C   UNL     1      47.332   4.370  16.218  0.00  0.00    +0.000 C 
BRANCH  15  16
ATOM     16  O   UNL     1      47.893   4.754  14.957  0.00  0.00    +0.000 OA
BRANCH  16  20
ATOM     17  C   UNL     1      45.199   4.763  11.766  0.00  0.00    +0.000 A 
ATOM     18  C   UNL     1      45.738   5.983  12.188  0.00  0.00    +0.000 A 
ATOM     19  C   UNL     1      46.643   6.024  13.255  0.00  0.00    +0.000 A 
ATOM     20  C   UNL     1      47.014   4.846  13.909  0.00  0.00    +0.000 A 
ATOM     21  C   UNL     1      46.465   3.632  13.489  0.00  0.00    +0.000 A 
ATOM     22  C   UNL     1      45.557   3.588  12.425  0.00  0.00    +0.000 A 
BRANCH  17  24
ATOM     23  N   UNL     1      43.541   4.693   9.775  0.00  0.00    +0.000 NA
ATOM     24  C   UNL     1      44.281   4.730  10.669  0.00  0.00    +0.000 C 
ENDBRANCH  17  24
ENDBRANCH  16  20
ENDBRANCH  15  16
ENDBRANCH   1  15
TORSDOF 6
ENDMDL
MODEL 8
REMARK VINA RESULT:    -6.024      2.076      7.038
REMARK INTER + INTRA:          -9.070
REMARK INTER:                  -8.466
REMARK INTRA:                  -0.604
REMARK UNBOUND:                -0.932
REMARK  Name = 
REMARK  6 active torsions:
REMARK  status: ('A' for Active; 'I' for Inactive)
REMARK    1  A    between atoms: C_2  and  C_3
REMARK    2  A    between atoms: C_6  and  O_7
REMARK    3  A    between atoms: O_7  and  C_8
REMARK    4  A    between atoms: C_8  and  C_9
REMARK    5  A    between atoms: C_9  and  C_12
REMARK    6  A    between atoms: C_16  and  C_17
REMARK                            x       y       z     vdW  Elec       q    Type
REMARK                         _______ _______ _______ _____ _____    ______ ____
ROOT
ATOM      1  C   UNL     1      44.647   5.913  11.259  0.00  0.00    +0.000 C 
ATOM      2  F   UNL     1      43.349   6.342  11.299  0.00  0.00    +0.000 F 
ATOM      3  F   UNL     1      45.322   6.927  10.625  0.00  0.00    +0.000 F 
ENDROOT
BRANCH   1   4
ATOM      4  C   UNL     1      44.793   4.610  10.499  0.00  0.00    +0.000 A 
ATOM      5  C   UNL     1      44.048   3.487  10.887  0.00  0.00    +0.000 A 
ATOM      6  C   UNL     1      44.123   2.298  10.161  0.00  0.00    +0.000 A 
ATOM      7  C   UNL     1      44.919   2.231   9.018  0.00  0.00    +0.000 A 
ATOM      8  C   UNL     1      45.655   3.346   8.601  0.00  0.00    +0.000 A 
ATOM      9  C   UNL     1      45.623   4.520   9.366  0.00  0.00    +0.000 A 
BRANCH   8  10
ATOM     10  C   UNL     1      46.410   3.248   7.321  0.00  0.00    +0.000 C 
ATOM     11  N   UNL     1      47.078   2.081   7.068  0.00  0.00    +0.000 N 
ATOM     12  O   UNL     1      46.484   4.191   6.544  0.00  0.00    +0.000 OA
ATOM     13  H   UNL     1      47.212   1.354   7.756  0.00  0.00    +0.000 HD
ATOM     14  H   UNL     1      47.703   2.090   6.271  0.00  0.00    +0.000 HD
ENDBRANCH   8  10
ENDBRANCH   1   4
BRANCH   1  15
ATOM     15  C   UNL     1      45.187   5.857  12.695  0.00  0.00    +0.000 C 
BRANCH  15  16
ATOM     16  O   UNL     1      46.605   6.050  12.757  0.00  0.00    +0.000 OA
BRANCH  16  20
ATOM     17  C   UNL     1      48.243   4.998  16.451  0.00  0.00    +0.000 A 
ATOM     18  C   UNL     1      48.715   6.151  15.816  0.00  0.00    +0.000 A 
ATOM     19  C   UNL     1      48.194   6.537  14.575  0.00  0.00    +0.000 A 
ATOM     20  C   UNL     1      47.199   5.773  13.961  0.00  0.00    +0.000 A 
ATOM     21  C   UNL     1      46.737   4.618  14.596  0.00  0.00    +0.000 A 
ATOM     22  C   UNL     1      47.259   4.227  15.834  0.00  0.00    +0.000 A 
BRANCH  17  24
ATOM     23  N   UNL     1      49.218   4.301  18.749  0.00  0.00    +0.000 NA
ATOM     24  C   UNL     1      48.776   4.616  17.722  0.00  0.00    +0.000 C 
ENDBRANCH  17  24
ENDBRANCH  16  20
ENDBRANCH  15  16
ENDBRANCH   1  15
TORSDOF 6
ENDMDL
MODEL 9
REMARK VINA RESULT:    -5.829      2.733      7.414
REMARK INTER + INTRA:          -8.806
REMARK INTER:                  -8.182
REMARK INTRA:                  -0.624
REMARK UNBOUND:                -0.932
REMARK  Name = 
REMARK  6 active torsions:
REMARK  status: ('A' for Active; 'I' for Inactive)
REMARK    1  A    between atoms: C_2  and  C_3
REMARK    2  A    between atoms: C_6  and  O_7
REMARK    3  A    between atoms: O_7  and  C_8
REMARK    4  A    between atoms: C_8  and  C_9
REMARK    5  A    between atoms: C_9  and  C_12
REMARK    6  A    between atoms: C_16  and  C_17
REMARK                            x       y       z     vdW  Elec       q    Type
REMARK                         _______ _______ _______ _____ _____    ______ ____
ROOT
ATOM      1  C   UNL     1      46.633   6.984  12.275  0.00  0.00    +0.000 C 
ATOM      2  F   UNL     1      46.156   8.266  12.253  0.00  0.00    +0.000 F 
ATOM      3  F   UNL     1      47.549   6.944  11.252  0.00  0.00    +0.000 F 
ENDROOT
BRANCH   1   4
ATOM      4  C   UNL     1      45.534   5.964  12.055  0.00  0.00    +0.000 A 
ATOM      5  C   UNL     1      44.445   5.908  12.938  0.00  0.00    +0.000 A 
ATOM      6  C   UNL     1      43.394   5.019  12.716  0.00  0.00    +0.000 A 
ATOM      7  C   UNL     1      43.404   4.198  11.588  0.00  0.00    +0.000 A 
ATOM      8  C   UNL     1      44.471   4.252  10.683  0.00  0.00    +0.000 A 
ATOM      9  C   UNL     1      45.553   5.105  10.941  0.00  0.00    +0.000 A 
BRANCH   8  10
ATOM     10  C   UNL     1      44.383   3.425   9.448  0.00  0.00    +0.000 C 
ATOM     11  N   UNL     1      44.154   4.074   8.265  0.00  0.00    +0.000 N 
ATOM     12  O   UNL     1      44.454   2.203   9.487  0.00  0.00    +0.000 OA
ATOM     13  H   UNL     1      43.893   5.048   8.205  0.00  0.00    +0.000 HD
ATOM     14  H   UNL     1      43.948   3.486   7.468  0.00  0.00    +0.000 HD
ENDBRANCH   8  10
ENDBRANCH   1   4
BRANCH   1  15
ATOM     15  C   UNL     1      47.420   6.777  13.576  0.00  0.00    +0.000 C 
BRANCH  15  16
ATOM     16  O   UNL     1      47.588   5.393  13.903  0.00  0.00    +0.000 OA
BRANCH  16  20
ATOM     17  C   UNL     1      48.257   4.722  17.970  0.00  0.00    +0.000 A 
ATOM     18  C   UNL     1      47.460   3.814  17.266  0.00  0.00    +0.000 A 
ATOM     19  C   UNL     1      47.209   4.004  15.901  0.00  0.00    +0.000 A 
ATOM     20  C   UNL     1      47.752   5.103  15.232  0.00  0.00    +0.000 A 
ATOM     21  C   UNL     1      48.540   6.012  15.943  0.00  0.00    +0.000 A 
ATOM     22  C   UNL     1      48.789   5.827  17.308  0.00  0.00    +0.000 A 
BRANCH  17  24
ATOM     23  N   UNL     1      48.712   4.354  20.495  0.00  0.00    +0.000 NA
ATOM     24  C   UNL     1      48.513   4.516  19.362  0.00  0.00    +0.000 C 
ENDBRANCH  17  24
ENDBRANCH  16  20
ENDBRANCH  15  16
ENDBRANCH   1  15
TORSDOF 6
ENDMDL
