MODEL 1
REMARK VINA RESULT:    -8.046      0.000      0.000
REMARK INTER + INTRA:         -12.336
REMARK INTER:                 -11.339
REMARK INTRA:                  -0.997
REMARK UNBOUND:                -0.997
REMARK  Name = 
REMARK  8 active torsions:
REMARK  status: ('A' for Active; 'I' for Inactive)
REMARK    1  A    between atoms: C_1  and  C_2
REMARK    2  A    between atoms: C_2  and  C_3
REMARK    3  A    between atoms: C_3  and  N_4
REMARK    4  A    between atoms: C_3  and  C_17
REMARK    5  A    between atoms: C_5  and  C_7
REMARK    6  A    between atoms: C_20  and  C_21
REMARK    7  A    between atoms: C_21  and  N_22
REMARK    8  A    between atoms: C_23  and  C_25
REMARK                            x       y       z     vdW  Elec       q    Type
REMARK                         _______ _______ _______ _____ _____    ______ ____
ROOT
ATOM      1  C   UNL     1      47.995   7.383  13.638  0.00  0.00    +0.000 C 
ENDROOT
BRANCH   1   2
ATOM      2  C   UNL     1      46.917   6.489  13.029  0.00  0.00    +0.000 A 
ATOM      3  C   UNL     1      46.070   6.919  11.993  0.00  0.00    +0.000 A 
ATOM      4  C   UNL     1      45.171   6.033  11.383  0.00  0.00    +0.000 A 
ATOM      5  C   UNL     1      45.121   4.685  11.763  0.00  0.00    +0.000 A 
ATOM      6  C   UNL     1      45.939   4.260  12.816  0.00  0.00    +0.000 A 
ATOM      7  C   UNL     1      46.809   5.154  13.439  0.00  0.00    +0.000 A 
ATOM      8  F   UNL     1      47.607   4.692  14.412  0.00  0.00    +0.000 F 
BRANCH   5   9
ATOM      9  C   UNL     1      44.233   3.711  11.037  0.00  0.00    +0.000 C 
BRANCH   9  10
ATOM     10  N   UNL     1      44.961   2.857  10.141  0.00  0.00    +0.000 N 
ATOM     11  C   UNL     1      45.259   3.257   8.855  0.00  0.00    +0.000 C 
ATOM     12  O   UNL     1      44.914   4.342   8.391  0.00  0.00    +0.000 OA
ATOM     13  H   UNL     1      45.350   1.968  10.440  0.00  0.00    +0.000 HD
BRANCH  11  14
ATOM     14  C   UNL     1      46.026   2.270   8.084  0.00  0.00    +0.000 A 
ATOM     15  C   UNL     1      46.828   2.523   6.940  0.00  0.00    +0.000 A 
ATOM     16  C   UNL     1      47.325   1.299   6.563  0.00  0.00    +0.000 A 
ATOM     17  N   UNL     1      46.824   0.403   7.457  0.00  0.00    +0.000 N 
ATOM     18  N   UNL     1      46.038   0.956   8.398  0.00  0.00    +0.000 NA
ATOM     19  H   UNL     1      46.975  -0.601   7.485  0.00  0.00    +0.000 HD
ENDBRANCH  11  14
ENDBRANCH   9  10
ENDBRANCH   5   9
ENDBRANCH   1   2
BRANCH   1  20
ATOM     20  N   UNL     1      47.934   7.325  15.100  0.00  0.00    +0.000 N 
ATOM     21  C   UNL     1      48.989   6.976  15.906  0.00  0.00    +0.000 C 
ATOM     22  O   UNL     1      50.114   6.735  15.478  0.00  0.00    +0.000 OA
ATOM     23  H   UNL     1      47.006   7.187  15.484  0.00  0.00    +0.000 HD
BRANCH  21  24
ATOM     24  C   UNL     1      48.714   6.967  17.351  0.00  0.00    +0.000 A 
ATOM     25  C   UNL     1      48.356   8.142  17.999  0.00  0.00    +0.000 A 
ATOM     26  S   UNL     1      48.057   7.938  19.667  0.00  0.00    +0.000 S 
ATOM     27  C   UNL     1      48.438   6.281  19.588  0.00  0.00    +0.000 A 
ATOM     28  N   UNL     1      48.415   5.501  20.703  0.00  0.00    +0.000 NA
ATOM     29  C   UNL     1      48.757   4.272  20.501  0.00  0.00    +0.000 A 
ATOM     30  N   UNL     1      49.107   3.748  19.284  0.00  0.00    +0.000 N 
ATOM     31  C   UNL     1      49.101   4.486  18.128  0.00  0.00    +0.000 A 
ATOM     32  O   UNL     1      49.343   3.968  17.043  0.00  0.00    +0.000 OA
ATOM     33  C   UNL     1      48.758   5.883  18.304  0.00  0.00    +0.000 A 
ATOM     34  H   UNL     1      49.343   2.771  19.188  0.00  0.00    +0.000 HD
ENDBRANCH  21  24
ENDBRANCH   1  20
BRANCH   1  36
ATOM     35  C   UNL     1      48.895   9.254  12.096  0.00  0.00    +0.000 C 
ATOM     36  C   UNL     1      47.852   8.835  13.125  0.00  0.00    +0.000 C 
ENDBRANCH   1  36
TORSDOF 7
ENDMDL
MODEL 2
REMARK VINA RESULT:    -7.929      1.286      1.885
REMARK INTER + INTRA:         -12.171
REMARK INTER:                 -11.107
REMARK INTRA:                  -1.063
REMARK UNBOUND:                -0.997
REMARK  Name = 
REMARK  8 active torsions:
REMARK  status: ('A' for Active; 'I' for Inactive)
REMARK    1  A    between atoms: C_1  and  C_2
REMARK    2  A    between atoms: C_2  and  C_3
REMARK    3  A    between atoms: C_3  and  N_4
REMARK    4  A    between atoms: C_3  and  C_17
REMARK    5  A    between atoms: C_5  and  C_7
REMARK    6  A    between atoms: C_20  and  C_21
REMARK    7  A    between atoms: C_21  and  N_22
REMARK    8  A    between atoms: C_23  and  C_25
REMARK                            x       y       z     vdW  Elec       q    Type
REMARK                         _______ _______ _______ _____ _____    ______ ____
ROOT
ATOM      1  C   UNL     1      47.821   7.298  13.767  0.00  0.00    +0.000 C 
ENDROOT
BRANCH   1   2
ATOM      2  C   UNL     1      46.735   6.570  12.977  0.00  0.00    +0.000 A 
ATOM      3  C   UNL     1      45.918   7.219  12.034  0.00  0.00    +0.000 A 
ATOM      4  C   UNL     1      45.011   6.495  11.247  0.00  0.00    +0.000 A 
ATOM      5  C   UNL     1      44.924   5.100  11.352  0.00  0.00    +0.000 A 
ATOM      6  C   UNL     1      45.711   4.454  12.311  0.00  0.00    +0.000 A 
ATOM      7  C   UNL     1      46.589   5.185  13.112  0.00  0.00    +0.000 A 
ATOM      8  F   UNL     1      47.358   4.518  13.985  0.00  0.00    +0.000 F 
BRANCH   5   9
ATOM      9  C   UNL     1      44.029   4.312  10.435  0.00  0.00    +0.000 C 
BRANCH   9  10
ATOM     10  N   UNL     1      44.739   3.311   9.691  0.00  0.00    +0.000 N 
ATOM     11  C   UNL     1      45.488   3.640   8.581  0.00  0.00    +0.000 C 
ATOM     12  O   UNL     1      45.584   4.788   8.150  0.00  0.00    +0.000 OA
ATOM     13  H   UNL     1      44.782   2.342   9.995  0.00  0.00    +0.000 HD
BRANCH  11  14
ATOM     14  C   UNL     1      46.164   2.496   7.953  0.00  0.00    +0.000 A 
ATOM     15  C   UNL     1      47.012   2.530   6.815  0.00  0.00    +0.000 A 
ATOM     16  C   UNL     1      47.387   1.227   6.598  0.00  0.00    +0.000 A 
ATOM     17  N   UNL     1      46.777   0.498   7.573  0.00  0.00    +0.000 N 
ATOM     18  N   UNL     1      46.033   1.234   8.418  0.00  0.00    +0.000 NA
ATOM     19  H   UNL     1      46.822  -0.506   7.721  0.00  0.00    +0.000 HD
ENDBRANCH  11  14
ENDBRANCH   9  10
ENDBRANCH   5   9
ENDBRANCH   1   2
BRANCH   1  20
ATOM     20  N   UNL     1      47.873   6.792  15.139  0.00  0.00    +0.000 N 
ATOM     21  C   UNL     1      49.031   6.456  15.797  0.00  0.00    +0.000 C 
ATOM     22  O   UNL     1      50.149   6.607  15.314  0.00  0.00    +0.000 OA
ATOM     23  H   UNL     1      47.023   6.344  15.463  0.00  0.00    +0.000 HD
BRANCH  21  24
ATOM     24  C   UNL     1      48.863   5.953  17.169  0.00  0.00    +0.000 A 
ATOM     25  C   UNL     1      49.189   4.637  17.473  0.00  0.00    +0.000 A 
ATOM     26  S   UNL     1      48.949   4.236  19.114  0.00  0.00    +0.000 S 
ATOM     27  C   UNL     1      48.359   5.793  19.465  0.00  0.00    +0.000 A 
ATOM     28  N   UNL     1      47.932   6.117  20.716  0.00  0.00    +0.000 NA
ATOM     29  C   UNL     1      47.482   7.322  20.830  0.00  0.00    +0.000 A 
ATOM     30  N   UNL     1      47.429   8.237  19.811  0.00  0.00    +0.000 N 
ATOM     31  C   UNL     1      47.889   7.968  18.547  0.00  0.00    +0.000 A 
ATOM     32  O   UNL     1      47.901   8.834  17.678  0.00  0.00    +0.000 OA
ATOM     33  C   UNL     1      48.375   6.616  18.355  0.00  0.00    +0.000 A 
ATOM     34  H   UNL     1      47.086   9.172  19.971  0.00  0.00    +0.000 HD
ENDBRANCH  21  24
ENDBRANCH   1  20
BRANCH   1  36
ATOM     35  C   UNL     1      48.830   9.671  13.970  0.00  0.00    +0.000 C 
ATOM     36  C   UNL     1      47.582   8.826  13.739  0.00  0.00    +0.000 C 
ENDBRANCH   1  36
TORSDOF 7
ENDMDL
MODEL 3
REMARK VINA RESULT:    -7.329      3.503      8.408
REMARK INTER + INTRA:         -11.326
REMARK INTER:                 -10.175
REMARK INTRA:                  -1.151
REMARK UNBOUND:                -0.997
REMARK  Name = 
REMARK  8 active torsions:
REMARK  status: ('A' for Active; 'I' for Inactive)
REMARK    1  A    between atoms: C_1  and  C_2
REMARK    2  A    between atoms: C_2  and  C_3
REMARK    3  A    between atoms: C_3  and  N_4
REMARK    4  A    between atoms: C_3  and  C_17
REMARK    5  A    between atoms: C_5  and  C_7
REMARK    6  A    between atoms: C_20  and  C_21
REMARK    7  A    between atoms: C_21  and  N_22
REMARK    8  A    between atoms: C_23  and  C_25
REMARK                            x       y       z     vdW  Elec       q    Type
REMARK                         _______ _______ _______ _____ _____    ______ ____
ROOT
ATOM      1  C   UNL     1      48.007   7.107  13.361  0.00  0.00    +0.000 C 
ENDROOT
BRANCH   1   2
ATOM      2  C   UNL     1      48.196   6.463  14.733  0.00  0.00    +0.000 A 
ATOM      3  C   UNL     1      47.711   5.181  15.045  0.00  0.00    +0.000 A 
ATOM      4  C   UNL     1      48.003   4.579  16.276  0.00  0.00    +0.000 A 
ATOM      5  C   UNL     1      48.821   5.224  17.214  0.00  0.00    +0.000 A 
ATOM      6  C   UNL     1      49.280   6.514  16.923  0.00  0.00    +0.000 A 
ATOM      7  C   UNL     1      48.959   7.119  15.707  0.00  0.00    +0.000 A 
ATOM      8  F   UNL     1      49.460   8.336  15.451  0.00  0.00    +0.000 F 
BRANCH   5   9
ATOM      9  C   UNL     1      49.223   4.536  18.491  0.00  0.00    +0.000 C 
BRANCH   9  10
ATOM     10  N   UNL     1      50.058   3.390  18.265  0.00  0.00    +0.000 N 
ATOM     11  C   UNL     1      51.418   3.521  18.076  0.00  0.00    +0.000 C 
ATOM     12  O   UNL     1      51.995   4.607  18.073  0.00  0.00    +0.000 OA
ATOM     13  H   UNL     1      49.697   2.442  18.313  0.00  0.00    +0.000 HD
BRANCH  11  14
ATOM     14  C   UNL     1      52.121   2.246  17.880  0.00  0.00    +0.000 A 
ATOM     15  C   UNL     1      53.508   2.004  18.060  0.00  0.00    +0.000 A 
ATOM     16  C   UNL     1      53.693   0.681  17.743  0.00  0.00    +0.000 A 
ATOM     17  N   UNL     1      52.464   0.205  17.401  0.00  0.00    +0.000 N 
ATOM     18  N   UNL     1      51.485   1.123  17.480  0.00  0.00    +0.000 NA
ATOM     19  H   UNL     1      52.220  -0.735  17.104  0.00  0.00    +0.000 HD
ENDBRANCH  11  14
ENDBRANCH   9  10
ENDBRANCH   5   9
ENDBRANCH   1   2
BRANCH   1  20
ATOM     20  N   UNL     1      47.282   6.198  12.472  0.00  0.00    +0.000 N 
ATOM     21  C   UNL     1      46.215   6.567  11.689  0.00  0.00    +0.000 C 
ATOM     22  O   UNL     1      45.802   7.720  11.613  0.00  0.00    +0.000 OA
ATOM     23  H   UNL     1      47.341   5.217  12.721  0.00  0.00    +0.000 HD
BRANCH  21  24
ATOM     24  C   UNL     1      45.618   5.496  10.877  0.00  0.00    +0.000 A 
ATOM     25  C   UNL     1      45.700   5.544   9.492  0.00  0.00    +0.000 A 
ATOM     26  S   UNL     1      44.969   4.212   8.717  0.00  0.00    +0.000 S 
ATOM     27  C   UNL     1      44.479   3.546  10.205  0.00  0.00    +0.000 A 
ATOM     28  N   UNL     1      43.758   2.393  10.255  0.00  0.00    +0.000 NA
ATOM     29  C   UNL     1      43.429   2.022  11.448  0.00  0.00    +0.000 A 
ATOM     30  N   UNL     1      43.764   2.692  12.596  0.00  0.00    +0.000 N 
ATOM     31  C   UNL     1      44.525   3.833  12.594  0.00  0.00    +0.000 A 
ATOM     32  O   UNL     1      44.874   4.365  13.643  0.00  0.00    +0.000 OA
ATOM     33  C   UNL     1      44.894   4.313  11.277  0.00  0.00    +0.000 A 
ATOM     34  H   UNL     1      43.494   2.337  13.501  0.00  0.00    +0.000 HD
ENDBRANCH  21  24
ENDBRANCH   1  20
BRANCH   1  36
ATOM     35  C   UNL     1      49.284   8.422  11.537  0.00  0.00    +0.000 C 
ATOM     36  C   UNL     1      49.372   7.514  12.758  0.00  0.00    +0.000 C 
ENDBRANCH   1  36
TORSDOF 7
ENDMDL
MODEL 4
REMARK VINA RESULT:    -7.309      2.537      4.643
REMARK INTER + INTRA:         -11.298
REMARK INTER:                  -9.711
REMARK INTRA:                  -1.587
REMARK UNBOUND:                -0.997
REMARK  Name = 
REMARK  8 active torsions:
REMARK  status: ('A' for Active; 'I' for Inactive)
REMARK    1  A    between atoms: C_1  and  C_2
REMARK    2  A    between atoms: C_2  and  C_3
REMARK    3  A    between atoms: C_3  and  N_4
REMARK    4  A    between atoms: C_3  and  C_17
REMARK    5  A    between atoms: C_5  and  C_7
REMARK    6  A    between atoms: C_20  and  C_21
REMARK    7  A    between atoms: C_21  and  N_22
REMARK    8  A    between atoms: C_23  and  C_25
REMARK                            x       y       z     vdW  Elec       q    Type
REMARK                         _______ _______ _______ _____ _____    ______ ____
ROOT
ATOM      1  C   UNL     1      47.221   5.491  15.081  0.00  0.00    +0.000 C 
ENDROOT
BRANCH   1   2
ATOM      2  C   UNL     1      46.521   5.065  13.792  0.00  0.00    +0.000 A 
ATOM      3  C   UNL     1      46.369   3.718  13.420  0.00  0.00    +0.000 A 
ATOM      4  C   UNL     1      45.621   3.364  12.288  0.00  0.00    +0.000 A 
ATOM      5  C   UNL     1      44.973   4.341  11.521  0.00  0.00    +0.000 A 
ATOM      6  C   UNL     1      45.148   5.685  11.868  0.00  0.00    +0.000 A 
ATOM      7  C   UNL     1      45.919   6.032  12.978  0.00  0.00    +0.000 A 
ATOM      8  F   UNL     1      46.021   7.329  13.301  0.00  0.00    +0.000 F 
BRANCH   5   9
ATOM      9  C   UNL     1      44.084   3.955  10.370  0.00  0.00    +0.000 C 
BRANCH   9  10
ATOM     10  N   UNL     1      44.780   3.218   9.353  0.00  0.00    +0.000 N 
ATOM     11  C   UNL     1      45.623   3.849   8.462  0.00  0.00    +0.000 C 
ATOM     12  O   UNL     1      45.819   5.063   8.466  0.00  0.00    +0.000 OA
ATOM     13  H   UNL     1      44.742   2.204   9.300  0.00  0.00    +0.000 HD
BRANCH  11  14
ATOM     14  C   UNL     1      46.268   2.942   7.503  0.00  0.00    +0.000 A 
ATOM     15  C   UNL     1      46.623   3.237   6.161  0.00  0.00    +0.000 A 
ATOM     16  C   UNL     1      47.177   2.082   5.666  0.00  0.00    +0.000 A 
ATOM     17  N   UNL     1      47.135   1.182   6.687  0.00  0.00    +0.000 N 
ATOM     18  N   UNL     1      46.598   1.670   7.819  0.00  0.00    +0.000 NA
ATOM     19  H   UNL     1      47.454   0.218   6.682  0.00  0.00    +0.000 HD
ENDBRANCH  11  14
ENDBRANCH   9  10
ENDBRANCH   5   9
ENDBRANCH   1   2
BRANCH   1  20
ATOM     20  N   UNL     1      48.514   6.106  14.776  0.00  0.00    +0.000 N 
ATOM     21  C   UNL     1      48.950   7.296  15.306  0.00  0.00    +0.000 C 
ATOM     22  O   UNL     1      48.317   7.933  16.143  0.00  0.00    +0.000 OA
ATOM     23  H   UNL     1      48.920   5.831  13.889  0.00  0.00    +0.000 HD
BRANCH  21  24
ATOM     24  C   UNL     1      50.275   7.748  14.858  0.00  0.00    +0.000 A 
ATOM     25  C   UNL     1      51.295   7.941  15.782  0.00  0.00    +0.000 A 
ATOM     26  S   UNL     1      52.765   8.447  15.080  0.00  0.00    +0.000 S 
ATOM     27  C   UNL     1      52.079   8.468  13.523  0.00  0.00    +0.000 A 
ATOM     28  N   UNL     1      52.806   8.855  12.440  0.00  0.00    +0.000 NA
ATOM     29  C   UNL     1      52.148   8.852  11.328  0.00  0.00    +0.000 A 
ATOM     30  N   UNL     1      50.834   8.487  11.199  0.00  0.00    +0.000 N 
ATOM     31  C   UNL     1      50.076   8.049  12.255  0.00  0.00    +0.000 A 
ATOM     32  O   UNL     1      48.926   7.654  12.091  0.00  0.00    +0.000 OA
ATOM     33  C   UNL     1      50.757   8.065  13.535  0.00  0.00    +0.000 A 
ATOM     34  H   UNL     1      50.383   8.485  10.295  0.00  0.00    +0.000 HD
ENDBRANCH  21  24
ENDBRANCH   1  20
BRANCH   1  36
ATOM     35  C   UNL     1      47.421   4.644  17.517  0.00  0.00    +0.000 C 
ATOM     36  C   UNL     1      47.384   4.284  16.036  0.00  0.00    +0.000 C 
ENDBRANCH   1  36
TORSDOF 7
ENDMDL
MODEL 5
REMARK VINA RESULT:    -7.305      1.800      2.214
REMARK INTER + INTRA:         -11.291
REMARK INTER:                 -11.030
REMARK INTRA:                  -0.261
REMARK UNBOUND:                -0.997
REMARK  Name = 
REMARK  8 active torsions:
REMARK  status: ('A' for Active; 'I' for Inactive)
REMARK    1  A    between atoms: C_1  and  C_2
REMARK    2  A    between atoms: C_2  and  C_3
REMARK    3  A    between atoms: C_3  and  N_4
REMARK    4  A    between atoms: C_3  and  C_17
REMARK    5  A    between atoms: C_5  and  C_7
REMARK    6  A    between atoms: C_20  and  C_21
REMARK    7  A    between atoms: C_21  and  N_22
REMARK    8  A    between atoms: C_23  and  C_25
REMARK                            x       y       z     vdW  Elec       q    Type
REMARK                         _______ _______ _______ _____ _____    ______ ____
ROOT
ATOM      1  C   UNL     1      46.507   8.823  12.795  0.00  0.00    +0.000 C 
ENDROOT
BRANCH   1   2
ATOM      2  C   UNL     1      46.053   7.436  12.347  0.00  0.00    +0.000 A 
ATOM      3  C   UNL     1      46.632   6.252  12.835  0.00  0.00    +0.000 A 
ATOM      4  C   UNL     1      46.112   4.998  12.487  0.00  0.00    +0.000 A 
ATOM      5  C   UNL     1      44.975   4.893  11.675  0.00  0.00    +0.000 A 
ATOM      6  C   UNL     1      44.414   6.066  11.160  0.00  0.00    +0.000 A 
ATOM      7  C   UNL     1      44.956   7.310  11.486  0.00  0.00    +0.000 A 
ATOM      8  F   UNL     1      44.357   8.410  11.008  0.00  0.00    +0.000 F 
BRANCH   5   9
ATOM      9  C   UNL     1      44.353   3.553  11.387  0.00  0.00    +0.000 C 
BRANCH   9  10
ATOM     10  N   UNL     1      45.127   2.766  10.470  0.00  0.00    +0.000 N 
ATOM     11  C   UNL     1      45.076   2.993   9.111  0.00  0.00    +0.000 C 
ATOM     12  O   UNL     1      44.365   3.856   8.600  0.00  0.00    +0.000 OA
ATOM     13  H   UNL     1      45.797   2.071  10.788  0.00  0.00    +0.000 HD
BRANCH  11  14
ATOM     14  C   UNL     1      45.947   2.110   8.323  0.00  0.00    +0.000 A 
ATOM     15  C   UNL     1      46.873   2.504   7.322  0.00  0.00    +0.000 A 
ATOM     16  C   UNL     1      47.434   1.338   6.862  0.00  0.00    +0.000 A 
ATOM     17  N   UNL     1      46.848   0.337   7.576  0.00  0.00    +0.000 N 
ATOM     18  N   UNL     1      45.947   0.768   8.477  0.00  0.00    +0.000 NA
ATOM     19  H   UNL     1      47.014  -0.661   7.501  0.00  0.00    +0.000 HD
ENDBRANCH  11  14
ENDBRANCH   9  10
ENDBRANCH   5   9
ENDBRANCH   1   2
BRANCH   1  20
ATOM     20  N   UNL     1      46.883   8.800  14.210  0.00  0.00    +0.000 N 
ATOM     21  C   UNL     1      48.177   8.774  14.667  0.00  0.00    +0.000 C 
ATOM     22  O   UNL     1      49.155   8.829  13.928  0.00  0.00    +0.000 OA
ATOM     23  H   UNL     1      46.175   8.430  14.835  0.00  0.00    +0.000 HD
BRANCH  21  24
ATOM     24  C   UNL     1      48.338   8.739  16.129  0.00  0.00    +0.000 A 
ATOM     25  C   UNL     1      48.132   9.889  16.880  0.00  0.00    +0.000 A 
ATOM     26  S   UNL     1      48.344   9.657  18.557  0.00  0.00    +0.000 S 
ATOM     27  C   UNL     1      48.762   8.022  18.333  0.00  0.00    +0.000 A 
ATOM     28  N   UNL     1      49.103   7.233  19.388  0.00  0.00    +0.000 NA
ATOM     29  C   UNL     1      49.426   6.025  19.068  0.00  0.00    +0.000 A 
ATOM     30  N   UNL     1      49.429   5.529  17.790  0.00  0.00    +0.000 N 
ATOM     31  C   UNL     1      49.050   6.275  16.703  0.00  0.00    +0.000 A 
ATOM     32  O   UNL     1      48.987   5.778  15.583  0.00  0.00    +0.000 OA
ATOM     33  C   UNL     1      48.709   7.651  17.003  0.00  0.00    +0.000 A 
ATOM     34  H   UNL     1      49.671   4.566  17.607  0.00  0.00    +0.000 HD
ENDBRANCH  21  24
ENDBRANCH   1  20
BRANCH   1  36
ATOM     35  C   UNL     1      45.873  11.112  11.770  0.00  0.00    +0.000 C 
ATOM     36  C   UNL     1      45.403   9.872  12.523  0.00  0.00    +0.000 C 
ENDBRANCH   1  36
TORSDOF 7
ENDMDL
MODEL 6
REMARK VINA RESULT:    -7.125      2.821      3.901
REMARK INTER + INTRA:         -11.038
REMARK INTER:                 -10.124
REMARK INTRA:                  -0.915
REMARK UNBOUND:                -0.997
REMARK  Name = 
REMARK  8 active torsions:
REMARK  status: ('A' for Active; 'I' for Inactive)
REMARK    1  A    between atoms: C_1  and  C_2
REMARK    2  A    between atoms: C_2  and  C_3
REMARK    3  A    between atoms: C_3  and  N_4
REMARK    4  A    between atoms: C_3  and  C_17
REMARK    5  A    between atoms: C_5  and  C_7
REMARK    6  A    between atoms: C_20  and  C_21
REMARK    7  A    between atoms: C_21  and  N_22
REMARK    8  A    between atoms: C_23  and  C_25
REMARK                            x       y       z     vdW  Elec       q    Type
REMARK                         _______ _______ _______ _____ _____    ______ ____
ROOT
ATOM      1  C   UNL     1      47.156   5.159  15.071  0.00  0.00    +0.000 C 
ENDROOT
BRANCH   1   2
ATOM      2  C   UNL     1      46.469   4.843  13.744  0.00  0.00    +0.000 A 
ATOM      3  C   UNL     1      46.267   3.529  13.288  0.00  0.00    +0.000 A 
ATOM      4  C   UNL     1      45.532   3.276  12.121  0.00  0.00    +0.000 A 
ATOM      5  C   UNL     1      44.945   4.325  11.401  0.00  0.00    +0.000 A 
ATOM      6  C   UNL     1      45.170   5.637  11.832  0.00  0.00    +0.000 A 
ATOM      7  C   UNL     1      45.929   5.883  12.977  0.00  0.00    +0.000 A 
ATOM      8  F   UNL     1      46.080   7.152  13.380  0.00  0.00    +0.000 F 
BRANCH   5   9
ATOM      9  C   UNL     1      44.067   4.048  10.210  0.00  0.00    +0.000 C 
BRANCH   9  10
ATOM     10  N   UNL     1      44.782   3.443   9.123  0.00  0.00    +0.000 N 
ATOM     11  C   UNL     1      45.718   4.151   8.398  0.00  0.00    +0.000 C 
ATOM     12  O   UNL     1      45.988   5.330   8.619  0.00  0.00    +0.000 OA
ATOM     13  H   UNL     1      44.686   2.457   8.896  0.00  0.00    +0.000 HD
BRANCH  11  14
ATOM     14  C   UNL     1      46.368   3.372   7.336  0.00  0.00    +0.000 A 
ATOM     15  C   UNL     1      46.838   2.036   7.428  0.00  0.00    +0.000 A 
ATOM     16  C   UNL     1      47.379   1.751   6.199  0.00  0.00    +0.000 A 
ATOM     17  N   UNL     1      47.217   2.877   5.452  0.00  0.00    +0.000 N 
ATOM     18  N   UNL     1      46.601   3.879   6.105  0.00  0.00    +0.000 NA
ATOM     19  H   UNL     1      47.503   3.034   4.490  0.00  0.00    +0.000 HD
ENDBRANCH  11  14
ENDBRANCH   9  10
ENDBRANCH   5   9
ENDBRANCH   1   2
BRANCH   1  20
ATOM     20  N   UNL     1      48.360   5.959  14.839  0.00  0.00    +0.000 N 
ATOM     21  C   UNL     1      48.918   6.805  15.766  0.00  0.00    +0.000 C 
ATOM     22  O   UNL     1      48.492   6.927  16.911  0.00  0.00    +0.000 OA
ATOM     23  H   UNL     1      48.560   6.160  13.866  0.00  0.00    +0.000 HD
BRANCH  21  24
ATOM     24  C   UNL     1      50.121   7.528  15.328  0.00  0.00    +0.000 A 
ATOM     25  C   UNL     1      50.007   8.616  14.473  0.00  0.00    +0.000 A 
ATOM     26  S   UNL     1      51.502   9.342  14.087  0.00  0.00    +0.000 S 
ATOM     27  C   UNL     1      52.358   8.200  15.015  0.00  0.00    +0.000 A 
ATOM     28  N   UNL     1      53.717   8.229  15.087  0.00  0.00    +0.000 NA
ATOM     29  C   UNL     1      54.233   7.285  15.801  0.00  0.00    +0.000 A 
ATOM     30  N   UNL     1      53.515   6.321  16.459  0.00  0.00    +0.000 N 
ATOM     31  C   UNL     1      52.144   6.280  16.450  0.00  0.00    +0.000 A 
ATOM     32  O   UNL     1      51.529   5.451  17.114  0.00  0.00    +0.000 OA
ATOM     33  C   UNL     1      51.513   7.299  15.635  0.00  0.00    +0.000 A 
ATOM     34  H   UNL     1      53.978   5.621  17.020  0.00  0.00    +0.000 HD
ENDBRANCH  21  24
ENDBRANCH   1  20
BRANCH   1  36
ATOM     35  C   UNL     1      47.062   3.855  17.303  0.00  0.00    +0.000 C 
ATOM     36  C   UNL     1      47.484   3.856  15.838  0.00  0.00    +0.000 C 
ENDBRANCH   1  36
TORSDOF 7
ENDMDL
MODEL 7
REMARK VINA RESULT:    -7.048      4.536      9.116
REMARK INTER + INTRA:         -10.930
REMARK INTER:                  -9.978
REMARK INTRA:                  -0.952
REMARK UNBOUND:                -0.997
REMARK  Name = 
REMARK  8 active torsions:
REMARK  status: ('A' for Active; 'I' for Inactive)
REMARK    1  A    between atoms: C_1  and  C_2
REMARK    2  A    between atoms: C_2  and  C_3
REMARK    3  A    between atoms: C_3  and  N_4
REMARK    4  A    between atoms: C_3  and  C_17
REMARK    5  A    between atoms: C_5  and  C_7
REMARK    6  A    between atoms: C_20  and  C_21
REMARK    7  A    between atoms: C_21  and  N_22
REMARK    8  A    between atoms: C_23  and  C_25
REMARK                            x       y       z     vdW  Elec       q    Type
REMARK                         _______ _______ _______ _____ _____    ______ ____
ROOT
ATOM      1  C   UNL     1      47.707   4.321  17.339  0.00  0.00    +0.000 C 
ENDROOT
BRANCH   1   2
ATOM      2  C   UNL     1      49.190   3.962  17.413  0.00  0.00    +0.000 A 
ATOM      3  C   UNL     1      50.177   4.889  17.790  0.00  0.00    +0.000 A 
ATOM      4  C   UNL     1      51.512   4.492  17.957  0.00  0.00    +0.000 A 
ATOM      5  C   UNL     1      51.888   3.153  17.790  0.00  0.00    +0.000 A 
ATOM      6  C   UNL     1      50.916   2.233  17.383  0.00  0.00    +0.000 A 
ATOM      7  C   UNL     1      49.596   2.641  17.189  0.00  0.00    +0.000 A 
ATOM      8  F   UNL     1      48.688   1.717  16.845  0.00  0.00    +0.000 F 
BRANCH   5   9
ATOM      9  C   UNL     1      53.298   2.707  18.071  0.00  0.00    +0.000 C 
BRANCH   9  10
ATOM     10  N   UNL     1      53.396   1.295  18.312  0.00  0.00    +0.000 N 
ATOM     11  C   UNL     1      54.274   0.506  17.598  0.00  0.00    +0.000 C 
ATOM     12  O   UNL     1      55.006   0.946  16.714  0.00  0.00    +0.000 OA
ATOM     13  H   UNL     1      52.886   0.839  19.063  0.00  0.00    +0.000 HD
BRANCH  11  14
ATOM     14  C   UNL     1      54.258  -0.910  17.987  0.00  0.00    +0.000 A 
ATOM     15  C   UNL     1      55.002  -1.963  17.392  0.00  0.00    +0.000 A 
ATOM     16  C   UNL     1      54.646  -3.098  18.079  0.00  0.00    +0.000 A 
ATOM     17  N   UNL     1      53.744  -2.696  19.017  0.00  0.00    +0.000 N 
ATOM     18  N   UNL     1      53.490  -1.375  18.997  0.00  0.00    +0.000 NA
ATOM     19  H   UNL     1      53.261  -3.268  19.703  0.00  0.00    +0.000 HD
ENDBRANCH  11  14
ENDBRANCH   9  10
ENDBRANCH   5   9
ENDBRANCH   1   2
BRANCH   1  20
ATOM     20  N   UNL     1      47.427   5.069  16.112  0.00  0.00    +0.000 N 
ATOM     21  C   UNL     1      47.244   4.493  14.879  0.00  0.00    +0.000 C 
ATOM     22  O   UNL     1      47.237   3.279  14.696  0.00  0.00    +0.000 OA
ATOM     23  H   UNL     1      47.738   6.034  16.119  0.00  0.00    +0.000 HD
BRANCH  21  24
ATOM     24  C   UNL     1      46.988   5.425  13.771  0.00  0.00    +0.000 A 
ATOM     25  C   UNL     1      47.967   6.328  13.379  0.00  0.00    +0.000 A 
ATOM     26  S   UNL     1      47.502   7.315  12.067  0.00  0.00    +0.000 S 
ATOM     27  C   UNL     1      45.958   6.600  12.006  0.00  0.00    +0.000 A 
ATOM     28  N   UNL     1      45.025   7.018  11.108  0.00  0.00    +0.000 NA
ATOM     29  C   UNL     1      43.890   6.408  11.197  0.00  0.00    +0.000 A 
ATOM     30  N   UNL     1      43.606   5.410  12.093  0.00  0.00    +0.000 N 
ATOM     31  C   UNL     1      44.529   4.928  12.985  0.00  0.00    +0.000 A 
ATOM     32  O   UNL     1      44.268   3.981  13.719  0.00  0.00    +0.000 OA
ATOM     33  C   UNL     1      45.812   5.602  12.951  0.00  0.00    +0.000 A 
ATOM     34  H   UNL     1      42.704   4.957  12.096  0.00  0.00    +0.000 HD
ENDBRANCH  21  24
ENDBRANCH   1  20
BRANCH   1  36
ATOM     35  C   UNL     1      47.530   6.617  18.516  0.00  0.00    +0.000 C 
ATOM     36  C   UNL     1      47.276   5.117  18.594  0.00  0.00    +0.000 C 
ENDBRANCH   1  36
TORSDOF 7
ENDMDL
MODEL 8
REMARK VINA RESULT:    -6.970      3.059      8.680
REMARK INTER + INTRA:         -10.820
REMARK INTER:                 -10.320
REMARK INTRA:                  -0.500
REMARK UNBOUND:                -0.997
REMARK  Name = 
REMARK  8 active torsions:
REMARK  status: ('A' for Active; 'I' for Inactive)
REMARK    1  A    between atoms: C_1  and  C_2
REMARK    2  A    between atoms: C_2  and  C_3
REMARK    3  A    between atoms: C_3  and  N_4
REMARK    4  A    between atoms: C_3  and  C_17
REMARK    5  A    between atoms: C_5  and  C_7
REMARK    6  A    between atoms: C_20  and  C_21
REMARK    7  A    between atoms: C_21  and  N_22
REMARK    8  A    between atoms: C_23  and  C_25
REMARK                            x       y       z     vdW  Elec       q    Type
REMARK                         _______ _______ _______ _____ _____    ______ ____
ROOT
ATOM      1  C   UNL     1      47.482   7.439  12.806  0.00  0.00    +0.000 C 
ENDROOT
BRANCH   1   2
ATOM      2  C   UNL     1      48.434   7.017  13.923  0.00  0.00    +0.000 A 
ATOM      3  C   UNL     1      49.687   7.622  14.122  0.00  0.00    +0.000 A 
ATOM      4  C   UNL     1      50.483   7.287  15.226  0.00  0.00    +0.000 A 
ATOM      5  C   UNL     1      50.031   6.368  16.183  0.00  0.00    +0.000 A 
ATOM      6  C   UNL     1      48.799   5.739  15.974  0.00  0.00    +0.000 A 
ATOM      7  C   UNL     1      48.027   6.055  14.856  0.00  0.00    +0.000 A 
ATOM      8  F   UNL     1      46.832   5.463  14.720  0.00  0.00    +0.000 F 
BRANCH   5   9
ATOM      9  C   UNL     1      50.836   6.087  17.423  0.00  0.00    +0.000 C 
BRANCH   9  10
ATOM     10  N   UNL     1      51.480   4.804  17.389  0.00  0.00    +0.000 N 
ATOM     11  C   UNL     1      50.868   3.682  17.909  0.00  0.00    +0.000 C 
ATOM     12  O   UNL     1      49.760   3.706  18.441  0.00  0.00    +0.000 OA
ATOM     13  H   UNL     1      52.367   4.658  16.915  0.00  0.00    +0.000 HD
BRANCH  11  14
ATOM     14  C   UNL     1      51.659   2.452  17.771  0.00  0.00    +0.000 A 
ATOM     15  C   UNL     1      53.019   2.271  18.135  0.00  0.00    +0.000 A 
ATOM     16  C   UNL     1      53.317   0.971  17.804  0.00  0.00    +0.000 A 
ATOM     17  N   UNL     1      52.174   0.450  17.281  0.00  0.00    +0.000 N 
ATOM     18  N   UNL     1      51.145   1.315  17.251  0.00  0.00    +0.000 NA
ATOM     19  H   UNL     1      52.024  -0.489  16.923  0.00  0.00    +0.000 HD
ENDBRANCH  11  14
ENDBRANCH   9  10
ENDBRANCH   5   9
ENDBRANCH   1   2
BRANCH   1  20
ATOM     20  N   UNL     1      46.714   6.286  12.333  0.00  0.00    +0.000 N 
ATOM     21  C   UNL     1      45.440   6.359  11.826  0.00  0.00    +0.000 C 
ATOM     22  O   UNL     1      44.839   7.416  11.661  0.00  0.00    +0.000 OA
ATOM     23  H   UNL     1      46.992   5.395  12.729  0.00  0.00    +0.000 HD
BRANCH  21  24
ATOM     24  C   UNL     1      44.839   5.079  11.420  0.00  0.00    +0.000 A 
ATOM     25  C   UNL     1      44.033   4.376  12.306  0.00  0.00    +0.000 A 
ATOM     26  S   UNL     1      43.409   2.926  11.658  0.00  0.00    +0.000 S 
ATOM     27  C   UNL     1      44.231   3.166  10.187  0.00  0.00    +0.000 A 
ATOM     28  N   UNL     1      44.153   2.251   9.182  0.00  0.00    +0.000 NA
ATOM     29  C   UNL     1      44.852   2.548   8.137  0.00  0.00    +0.000 A 
ATOM     30  N   UNL     1      45.612   3.680   8.000  0.00  0.00    +0.000 N 
ATOM     31  C   UNL     1      45.684   4.648   8.969  0.00  0.00    +0.000 A 
ATOM     32  O   UNL     1      46.310   5.687   8.784  0.00  0.00    +0.000 OA
ATOM     33  C   UNL     1      44.945   4.349  10.179  0.00  0.00    +0.000 A 
ATOM     34  H   UNL     1      46.119   3.865   7.147  0.00  0.00    +0.000 HD
ENDBRANCH  21  24
ENDBRANCH   1  20
BRANCH   1  36
ATOM     35  C   UNL     1      48.375   9.624  11.749  0.00  0.00    +0.000 C 
ATOM     36  C   UNL     1      48.262   8.108  11.649  0.00  0.00    +0.000 C 
ENDBRANCH   1  36
TORSDOF 7
ENDMDL
MODEL 9
REMARK VINA RESULT:    -6.857      4.608      8.830
REMARK INTER + INTRA:         -10.660
REMARK INTER:                  -9.283
REMARK INTRA:                  -1.377
REMARK UNBOUND:                -0.997
REMARK  Name = 
REMARK  8 active torsions:
REMARK  status: ('A' for Active; 'I' for Inactive)
REMARK    1  A    between atoms: C_1  and  C_2
REMARK    2  A    between atoms: C_2  and  C_3
REMARK    3  A    between atoms: C_3  and  N_4
REMARK    4  A    between atoms: C_3  and  C_17
REMARK    5  A    between atoms: C_5  and  C_7
REMARK    6  A    between atoms: C_20  and  C_21
REMARK    7  A    between atoms: C_21  and  N_22
REMARK    8  A    between atoms: C_23  and  C_25
REMARK                            x       y       z     vdW  Elec       q    Type
REMARK                         _______ _______ _______ _____ _____    ______ ____
ROOT
ATOM      1  C   UNL     1      47.770   4.220  17.356  0.00  0.00    +0.000 C 
ENDROOT
BRANCH   1   2
ATOM      2  C   UNL     1      49.252   3.867  17.463  0.00  0.00    +0.000 A 
ATOM      3  C   UNL     1      50.213   4.767  17.955  0.00  0.00    +0.000 A 
ATOM      4  C   UNL     1      51.544   4.367  18.145  0.00  0.00    +0.000 A 
ATOM      5  C   UNL     1      51.941   3.048  17.887  0.00  0.00    +0.000 A 
ATOM      6  C   UNL     1      50.996   2.158  17.366  0.00  0.00    +0.000 A 
ATOM      7  C   UNL     1      49.681   2.571  17.151  0.00  0.00    +0.000 A 
ATOM      8  F   UNL     1      48.798   1.671  16.695  0.00  0.00    +0.000 F 
BRANCH   5   9
ATOM      9  C   UNL     1      53.342   2.591  18.191  0.00  0.00    +0.000 C 
BRANCH   9  10
ATOM     10  N   UNL     1      53.682   1.364  17.528  0.00  0.00    +0.000 N 
ATOM     11  C   UNL     1      54.273   0.321  18.211  0.00  0.00    +0.000 C 
ATOM     12  O   UNL     1      54.559   0.375  19.405  0.00  0.00    +0.000 OA
ATOM     13  H   UNL     1      53.432   1.187  16.560  0.00  0.00    +0.000 HD
BRANCH  11  14
ATOM     14  C   UNL     1      54.533  -0.865  17.383  0.00  0.00    +0.000 A 
ATOM     15  C   UNL     1      54.872  -2.164  17.844  0.00  0.00    +0.000 A 
ATOM     16  C   UNL     1      55.033  -2.924  16.711  0.00  0.00    +0.000 A 
ATOM     17  N   UNL     1      54.794  -2.087  15.665  0.00  0.00    +0.000 N 
ATOM     18  N   UNL     1      54.480  -0.832  16.033  0.00  0.00    +0.000 NA
ATOM     19  H   UNL     1      54.828  -2.303  14.673  0.00  0.00    +0.000 HD
ENDBRANCH  11  14
ENDBRANCH   9  10
ENDBRANCH   5   9
ENDBRANCH   1   2
BRANCH   1  20
ATOM     20  N   UNL     1      47.524   5.009  16.148  0.00  0.00    +0.000 N 
ATOM     21  C   UNL     1      47.319   4.473  14.901  0.00  0.00    +0.000 C 
ATOM     22  O   UNL     1      47.261   3.266  14.687  0.00  0.00    +0.000 OA
ATOM     23  H   UNL     1      47.874   5.960  16.179  0.00  0.00    +0.000 HD
BRANCH  21  24
ATOM     24  C   UNL     1      47.103   5.442  13.816  0.00  0.00    +0.000 A 
ATOM     25  C   UNL     1      45.993   5.327  12.990  0.00  0.00    +0.000 A 
ATOM     26  S   UNL     1      45.896   6.548  11.801  0.00  0.00    +0.000 S 
ATOM     27  C   UNL     1      47.358   7.247  12.322  0.00  0.00    +0.000 A 
ATOM     28  N   UNL     1      47.881   8.333  11.691  0.00  0.00    +0.000 NA
ATOM     29  C   UNL     1      49.009   8.737  12.173  0.00  0.00    +0.000 A 
ATOM     30  N   UNL     1      49.657   8.161  13.235  0.00  0.00    +0.000 N 
ATOM     31  C   UNL     1      49.145   7.093  13.926  0.00  0.00    +0.000 A 
ATOM     32  O   UNL     1      49.711   6.650  14.921  0.00  0.00    +0.000 OA
ATOM     33  C   UNL     1      47.895   6.577  13.405  0.00  0.00    +0.000 A 
ATOM     34  H   UNL     1      50.528   8.539  13.578  0.00  0.00    +0.000 HD
ENDBRANCH  21  24
ENDBRANCH   1  20
BRANCH   1  36
ATOM     35  C   UNL     1      47.384   6.487  18.539  0.00  0.00    +0.000 C 
ATOM     36  C   UNL     1      47.295   4.968  18.624  0.00  0.00    +0.000 C 
ENDBRANCH   1  36
TORSDOF 7
ENDMDL
