MODEL 1
REMARK VINA RESULT:    -8.704      0.000      0.000
REMARK INTER + INTRA:         -12.834
REMARK INTER:                 -11.757
REMARK INTRA:                  -1.077
REMARK UNBOUND:                -1.077
REMARK  Name = 
REMARK  6 active torsions:
REMARK  status: ('A' for Active; 'I' for Inactive)
REMARK    1  A    between atoms: C_2  and  C_3
REMARK    2  A    between atoms: N_7  and  C_8
REMARK    3  A    between atoms: C_8  and  C_9
REMARK    4  A    between atoms: C_9  and  C_12
REMARK    5  A    between atoms: C_16  and  O_17
REMARK    6  A    between atoms: O_17  and  C_18
REMARK                            x       y       z     vdW  Elec       q    Type
REMARK                         _______ _______ _______ _____ _____    ______ ____
ROOT
ATOM      1  C   UNL     1      43.698   4.633  12.402  0.00  0.00    +0.000 C 
ATOM      2  F   UNL     1      42.749   5.482  12.895  0.00  0.00    +0.000 F 
ATOM      3  F   UNL     1      43.530   3.466  13.092  0.00  0.00    +0.000 F 
ENDROOT
BRANCH   1   4
ATOM      4  C   UNL     1      45.102   5.189  12.549  0.00  0.00    +0.000 A 
ATOM      5  C   UNL     1      45.596   6.132  11.637  0.00  0.00    +0.000 A 
ATOM      6  C   UNL     1      46.859   6.697  11.820  0.00  0.00    +0.000 A 
ATOM      7  C   UNL     1      47.648   6.329  12.914  0.00  0.00    +0.000 A 
ATOM      8  C   UNL     1      47.174   5.385  13.821  0.00  0.00    +0.000 A 
ATOM      9  C   UNL     1      45.907   4.822  13.640  0.00  0.00    +0.000 A 
BRANCH   8  10
ATOM     10  O   UNL     1      47.833   4.973  14.951  0.00  0.00    +0.000 OA
BRANCH  10  11
ATOM     11  C   UNL     1      47.199   4.035  15.846  0.00  0.00    +0.000 C 
ATOM     12  C   UNL     1      47.154   4.408  17.350  0.00  0.00    +0.000 C 
ATOM     13  C   UNL     1      47.561   2.962  17.680  0.00  0.00    +0.000 C 
ATOM     14  C   UNL     1      48.110   2.845  16.250  0.00  0.00    +0.000 C 
ENDBRANCH  10  11
ENDBRANCH   8  10
ENDBRANCH   1   4
BRANCH   1  15
ATOM     15  C   UNL     1      43.404   4.372  10.904  0.00  0.00    +0.000 C 
BRANCH  15  20
ATOM     16  C   UNL     1      46.646   2.465   7.402  0.00  0.00    +0.000 A 
ATOM     17  C   UNL     1      46.271   3.770   7.690  0.00  0.00    +0.000 A 
ATOM     18  C   UNL     1      45.344   4.003   8.707  0.00  0.00    +0.000 A 
ATOM     19  C   UNL     1      44.805   2.933   9.417  0.00  0.00    +0.000 A 
ATOM     20  N   UNL     1      43.876   3.082  10.409  0.00  0.00    +0.000 N 
ATOM     21  N   UNL     1      45.169   1.664   9.145  0.00  0.00    +0.000 NA
ATOM     22  C   UNL     1      46.075   1.454   8.155  0.00  0.00    +0.000 A 
ATOM     23  H   UNL     1      43.581   2.223  10.861  0.00  0.00    +0.000 HD
BRANCH  16  25
ATOM     24  N   UNL     1      48.340   1.928   5.521  0.00  0.00    +0.000 NA
ATOM     25  C   UNL     1      47.584   2.173   6.367  0.00  0.00    +0.000 C 
ENDBRANCH  16  25
ENDBRANCH  15  20
ENDBRANCH   1  15
TORSDOF 6
ENDMDL
MODEL 2
REMARK VINA RESULT:    -7.809      1.718      3.475
REMARK INTER + INTRA:         -11.625
REMARK INTER:                 -10.809
REMARK INTRA:                  -0.816
REMARK UNBOUND:                -1.077
REMARK  Name = 
REMARK  6 active torsions:
REMARK  status: ('A' for Active; 'I' for Inactive)
REMARK    1  A    between atoms: C_2  and  C_3
REMARK    2  A    between atoms: N_7  and  C_8
REMARK    3  A    between atoms: C_8  and  C_9
REMARK    4  A    between atoms: C_9  and  C_12
REMARK    5  A    between atoms: C_16  and  O_17
REMARK    6  A    between atoms: O_17  and  C_18
REMARK                            x       y       z     vdW  Elec       q    Type
REMARK                         _______ _______ _______ _____ _____    ______ ____
ROOT
ATOM      1  C   UNL     1      43.486   4.679  12.463  0.00  0.00    +0.000 C 
ATOM      2  F   UNL     1      42.449   5.478  12.853  0.00  0.00    +0.000 F 
ATOM      3  F   UNL     1      43.245   3.466  13.045  0.00  0.00    +0.000 F 
ENDROOT
BRANCH   1   4
ATOM      4  C   UNL     1      44.835   5.248  12.862  0.00  0.00    +0.000 A 
ATOM      5  C   UNL     1      45.724   4.495  13.643  0.00  0.00    +0.000 A 
ATOM      6  C   UNL     1      46.994   4.991  13.943  0.00  0.00    +0.000 A 
ATOM      7  C   UNL     1      47.394   6.245  13.472  0.00  0.00    +0.000 A 
ATOM      8  C   UNL     1      46.517   7.007  12.705  0.00  0.00    +0.000 A 
ATOM      9  C   UNL     1      45.247   6.508  12.400  0.00  0.00    +0.000 A 
BRANCH   8  10
ATOM     10  O   UNL     1      46.806   8.228  12.152  0.00  0.00    +0.000 OA
BRANCH  10  11
ATOM     11  C   UNL     1      48.065   8.868  12.451  0.00  0.00    +0.000 C 
ATOM     12  C   UNL     1      48.298  10.284  11.865  0.00  0.00    +0.000 C 
ATOM     13  C   UNL     1      49.721   9.846  11.478  0.00  0.00    +0.000 C 
ATOM     14  C   UNL     1      49.237   8.390  11.552  0.00  0.00    +0.000 C 
ENDBRANCH  10  11
ENDBRANCH   8  10
ENDBRANCH   1   4
BRANCH   1  15
ATOM     15  C   UNL     1      43.435   4.512  10.924  0.00  0.00    +0.000 C 
BRANCH  15  20
ATOM     16  C   UNL     1      46.639   2.481   7.456  0.00  0.00    +0.000 A 
ATOM     17  C   UNL     1      46.302   3.799   7.732  0.00  0.00    +0.000 A 
ATOM     18  C   UNL     1      45.376   4.068   8.742  0.00  0.00    +0.000 A 
ATOM     19  C   UNL     1      44.801   3.020   9.456  0.00  0.00    +0.000 A 
ATOM     20  N   UNL     1      43.871   3.204  10.441  0.00  0.00    +0.000 N 
ATOM     21  N   UNL     1      45.128   1.739   9.195  0.00  0.00    +0.000 NA
ATOM     22  C   UNL     1      46.033   1.494   8.213  0.00  0.00    +0.000 A 
ATOM     23  H   UNL     1      43.548   2.358  10.898  0.00  0.00    +0.000 HD
BRANCH  16  25
ATOM     24  N   UNL     1      48.341   1.894   5.598  0.00  0.00    +0.000 NA
ATOM     25  C   UNL     1      47.573   2.154   6.429  0.00  0.00    +0.000 C 
ENDBRANCH  16  25
ENDBRANCH  15  20
ENDBRANCH   1  15
TORSDOF 6
ENDMDL
MODEL 3
REMARK VINA RESULT:    -7.796      2.384      4.294
REMARK INTER + INTRA:         -11.607
REMARK INTER:                 -10.828
REMARK INTRA:                  -0.779
REMARK UNBOUND:                -1.077
REMARK  Name = 
REMARK  6 active torsions:
REMARK  status: ('A' for Active; 'I' for Inactive)
REMARK    1  A    between atoms: C_2  and  C_3
REMARK    2  A    between atoms: N_7  and  C_8
REMARK    3  A    between atoms: C_8  and  C_9
REMARK    4  A    between atoms: C_9  and  C_12
REMARK    5  A    between atoms: C_16  and  O_17
REMARK    6  A    between atoms: O_17  and  C_18
REMARK                            x       y       z     vdW  Elec       q    Type
REMARK                         _______ _______ _______ _____ _____    ______ ____
ROOT
ATOM      1  C   UNL     1      43.687   4.431  12.532  0.00  0.00    +0.000 C 
ATOM      2  F   UNL     1      42.677   4.611  13.433  0.00  0.00    +0.000 F 
ATOM      3  F   UNL     1      44.066   3.125  12.672  0.00  0.00    +0.000 F 
ENDROOT
BRANCH   1   4
ATOM      4  C   UNL     1      44.841   5.390  12.759  0.00  0.00    +0.000 A 
ATOM      5  C   UNL     1      46.154   4.912  12.874  0.00  0.00    +0.000 A 
ATOM      6  C   UNL     1      47.221   5.803  13.005  0.00  0.00    +0.000 A 
ATOM      7  C   UNL     1      46.993   7.182  13.027  0.00  0.00    +0.000 A 
ATOM      8  C   UNL     1      45.693   7.669  12.925  0.00  0.00    +0.000 A 
ATOM      9  C   UNL     1      44.625   6.777  12.789  0.00  0.00    +0.000 A 
BRANCH   8  10
ATOM     10  O   UNL     1      45.345   8.996  12.892  0.00  0.00    +0.000 OA
BRANCH  10  11
ATOM     11  C   UNL     1      45.270   9.684  11.625  0.00  0.00    +0.000 C 
ATOM     12  C   UNL     1      45.517  11.214  11.634  0.00  0.00    +0.000 C 
ATOM     13  C   UNL     1      44.312  11.373  10.690  0.00  0.00    +0.000 C 
ATOM     14  C   UNL     1      43.820  10.000  11.172  0.00  0.00    +0.000 C 
ENDBRANCH  10  11
ENDBRANCH   8  10
ENDBRANCH   1   4
BRANCH   1  15
ATOM     15  C   UNL     1      43.124   4.635  11.103  0.00  0.00    +0.000 C 
BRANCH  15  20
ATOM     16  C   UNL     1      46.505   2.737   7.730  0.00  0.00    +0.000 A 
ATOM     17  C   UNL     1      45.678   2.109   8.651  0.00  0.00    +0.000 A 
ATOM     18  C   UNL     1      44.852   2.887   9.465  0.00  0.00    +0.000 A 
ATOM     19  C   UNL     1      44.867   4.274   9.349  0.00  0.00    +0.000 A 
ATOM     20  N   UNL     1      44.104   5.101  10.126  0.00  0.00    +0.000 N 
ATOM     21  N   UNL     1      45.664   4.889   8.453  0.00  0.00    +0.000 NA
ATOM     22  C   UNL     1      46.459   4.119   7.666  0.00  0.00    +0.000 A 
ATOM     23  H   UNL     1      44.193   6.091   9.925  0.00  0.00    +0.000 HD
BRANCH  16  25
ATOM     24  N   UNL     1      48.074   1.382   6.182  0.00  0.00    +0.000 NA
ATOM     25  C   UNL     1      47.373   1.988   6.881  0.00  0.00    +0.000 C 
ENDBRANCH  16  25
ENDBRANCH  15  20
ENDBRANCH   1  15
TORSDOF 6
ENDMDL
MODEL 4
REMARK VINA RESULT:    -7.606      1.896      2.413
REMARK INTER + INTRA:         -11.350
REMARK INTER:                 -10.892
REMARK INTRA:                  -0.458
REMARK UNBOUND:                -1.077
REMARK  Name = 
REMARK  6 active torsions:
REMARK  status: ('A' for Active; 'I' for Inactive)
REMARK    1  A    between atoms: C_2  and  C_3
REMARK    2  A    between atoms: N_7  and  C_8
REMARK    3  A    between atoms: C_8  and  C_9
REMARK    4  A    between atoms: C_9  and  C_12
REMARK    5  A    between atoms: C_16  and  O_17
REMARK    6  A    between atoms: O_17  and  C_18
REMARK                            x       y       z     vdW  Elec       q    Type
REMARK                         _______ _______ _______ _____ _____    ______ ____
ROOT
ATOM      1  C   UNL     1      43.984   4.119  12.439  0.00  0.00    +0.000 C 
ATOM      2  F   UNL     1      42.996   4.066  13.380  0.00  0.00    +0.000 F 
ATOM      3  F   UNL     1      44.649   2.929  12.549  0.00  0.00    +0.000 F 
ENDROOT
BRANCH   1   4
ATOM      4  C   UNL     1      44.905   5.309  12.636  0.00  0.00    +0.000 A 
ATOM      5  C   UNL     1      44.501   6.595  12.250  0.00  0.00    +0.000 A 
ATOM      6  C   UNL     1      45.320   7.698  12.503  0.00  0.00    +0.000 A 
ATOM      7  C   UNL     1      46.552   7.533  13.141  0.00  0.00    +0.000 A 
ATOM      8  C   UNL     1      46.969   6.260  13.520  0.00  0.00    +0.000 A 
ATOM      9  C   UNL     1      46.148   5.156  13.271  0.00  0.00    +0.000 A 
BRANCH   8  10
ATOM     10  O   UNL     1      48.133   5.975  14.187  0.00  0.00    +0.000 OA
BRANCH  10  11
ATOM     11  C   UNL     1      48.848   7.033  14.862  0.00  0.00    +0.000 C 
ATOM     12  C   UNL     1      50.093   7.616  14.146  0.00  0.00    +0.000 C 
ATOM     13  C   UNL     1      50.836   7.574  15.492  0.00  0.00    +0.000 C 
ATOM     14  C   UNL     1      49.817   6.526  15.964  0.00  0.00    +0.000 C 
ENDBRANCH  10  11
ENDBRANCH   8  10
ENDBRANCH   1   4
BRANCH   1  15
ATOM     15  C   UNL     1      43.335   4.199  11.035  0.00  0.00    +0.000 C 
BRANCH  15  20
ATOM     16  C   UNL     1      46.680   2.680   7.441  0.00  0.00    +0.000 A 
ATOM     17  C   UNL     1      45.986   1.966   8.408  0.00  0.00    +0.000 A 
ATOM     18  C   UNL     1      45.134   2.649   9.278  0.00  0.00    +0.000 A 
ATOM     19  C   UNL     1      44.991   4.030   9.172  0.00  0.00    +0.000 A 
ATOM     20  N   UNL     1      44.194   4.769  10.001  0.00  0.00    +0.000 N 
ATOM     21  N   UNL     1      45.658   4.728   8.231  0.00  0.00    +0.000 NA
ATOM     22  C   UNL     1      46.480   4.049   7.390  0.00  0.00    +0.000 A 
ATOM     23  H   UNL     1      44.162   5.763   9.802  0.00  0.00    +0.000 HD
BRANCH  16  25
ATOM     24  N   UNL     1      48.292   1.510   5.789  0.00  0.00    +0.000 NA
ATOM     25  C   UNL     1      47.569   2.030   6.534  0.00  0.00    +0.000 C 
ENDBRANCH  16  25
ENDBRANCH  15  20
ENDBRANCH   1  15
TORSDOF 6
ENDMDL
MODEL 5
REMARK VINA RESULT:    -7.191      3.509      7.929
REMARK INTER + INTRA:         -10.790
REMARK INTER:                 -10.242
REMARK INTRA:                  -0.549
REMARK UNBOUND:                -1.077
REMARK  Name = 
REMARK  6 active torsions:
REMARK  status: ('A' for Active; 'I' for Inactive)
REMARK    1  A    between atoms: C_2  and  C_3
REMARK    2  A    between atoms: N_7  and  C_8
REMARK    3  A    between atoms: C_8  and  C_9
REMARK    4  A    between atoms: C_9  and  C_12
REMARK    5  A    between atoms: C_16  and  O_17
REMARK    6  A    between atoms: O_17  and  C_18
REMARK                            x       y       z     vdW  Elec       q    Type
REMARK                         _______ _______ _______ _____ _____    ______ ____
ROOT
ATOM      1  C   UNL     1      45.820   6.198  12.189  0.00  0.00    +0.000 C 
ATOM      2  F   UNL     1      44.908   6.573  13.134  0.00  0.00    +0.000 F 
ATOM      3  F   UNL     1      46.142   7.349  11.525  0.00  0.00    +0.000 F 
ENDROOT
BRANCH   1   4
ATOM      4  C   UNL     1      45.280   5.130  11.257  0.00  0.00    +0.000 A 
ATOM      5  C   UNL     1      44.336   4.198  11.710  0.00  0.00    +0.000 A 
ATOM      6  C   UNL     1      43.785   3.266  10.829  0.00  0.00    +0.000 A 
ATOM      7  C   UNL     1      44.169   3.249   9.485  0.00  0.00    +0.000 A 
ATOM      8  C   UNL     1      45.113   4.162   9.024  0.00  0.00    +0.000 A 
ATOM      9  C   UNL     1      45.662   5.098   9.906  0.00  0.00    +0.000 A 
BRANCH   8  10
ATOM     10  O   UNL     1      45.539   4.273   7.726  0.00  0.00    +0.000 OA
BRANCH  10  11
ATOM     11  C   UNL     1      46.731   3.577   7.303  0.00  0.00    +0.000 C 
ATOM     12  C   UNL     1      46.794   3.112   5.825  0.00  0.00    +0.000 C 
ATOM     13  C   UNL     1      47.351   1.764   6.315  0.00  0.00    +0.000 C 
ATOM     14  C   UNL     1      46.746   2.074   7.693  0.00  0.00    +0.000 C 
ENDBRANCH  10  11
ENDBRANCH   8  10
ENDBRANCH   1   4
BRANCH   1  15
ATOM     15  C   UNL     1      47.087   5.665  12.902  0.00  0.00    +0.000 C 
BRANCH  15  20
ATOM     16  C   UNL     1      48.139   4.617  17.822  0.00  0.00    +0.000 A 
ATOM     17  C   UNL     1      48.541   5.661  17.001  0.00  0.00    +0.000 A 
ATOM     18  C   UNL     1      48.105   5.691  15.675  0.00  0.00    +0.000 A 
ATOM     19  C   UNL     1      47.279   4.679  15.191  0.00  0.00    +0.000 A 
ATOM     20  N   UNL     1      46.832   4.630  13.900  0.00  0.00    +0.000 N 
ATOM     21  N   UNL     1      46.882   3.666  15.985  0.00  0.00    +0.000 NA
ATOM     22  C   UNL     1      47.311   3.653  17.273  0.00  0.00    +0.000 A 
ATOM     23  H   UNL     1      46.219   3.851  13.682  0.00  0.00    +0.000 HD
BRANCH  16  25
ATOM     24  N   UNL     1      48.914   4.461  20.286  0.00  0.00    +0.000 NA
ATOM     25  C   UNL     1      48.564   4.536  19.182  0.00  0.00    +0.000 C 
ENDBRANCH  16  25
ENDBRANCH  15  20
ENDBRANCH   1  15
TORSDOF 6
ENDMDL
MODEL 6
REMARK VINA RESULT:    -6.773      4.077      7.877
REMARK INTER + INTRA:         -10.225
REMARK INTER:                  -9.398
REMARK INTRA:                  -0.826
REMARK UNBOUND:                -1.077
REMARK  Name = 
REMARK  6 active torsions:
REMARK  status: ('A' for Active; 'I' for Inactive)
REMARK    1  A    between atoms: C_2  and  C_3
REMARK    2  A    between atoms: N_7  and  C_8
REMARK    3  A    between atoms: C_8  and  C_9
REMARK    4  A    between atoms: C_9  and  C_12
REMARK    5  A    between atoms: C_16  and  O_17
REMARK    6  A    between atoms: O_17  and  C_18
REMARK                            x       y       z     vdW  Elec       q    Type
REMARK                         _______ _______ _______ _____ _____    ______ ____
ROOT
ATOM      1  C   UNL     1      45.638   6.370  11.388  0.00  0.00    +0.000 C 
ATOM      2  F   UNL     1      44.841   7.412  11.009  0.00  0.00    +0.000 F 
ATOM      3  F   UNL     1      46.904   6.734  11.021  0.00  0.00    +0.000 F 
ENDROOT
BRANCH   1   4
ATOM      4  C   UNL     1      45.214   5.058  10.755  0.00  0.00    +0.000 A 
ATOM      5  C   UNL     1      44.527   4.093  11.506  0.00  0.00    +0.000 A 
ATOM      6  C   UNL     1      44.071   2.921  10.900  0.00  0.00    +0.000 A 
ATOM      7  C   UNL     1      44.295   2.693   9.539  0.00  0.00    +0.000 A 
ATOM      8  C   UNL     1      44.986   3.638   8.785  0.00  0.00    +0.000 A 
ATOM      9  C   UNL     1      45.439   4.814   9.391  0.00  0.00    +0.000 A 
BRANCH   8  10
ATOM     10  O   UNL     1      45.232   3.550   7.439  0.00  0.00    +0.000 OA
BRANCH  10  11
ATOM     11  C   UNL     1      46.589   3.413   6.969  0.00  0.00    +0.000 C 
ATOM     12  C   UNL     1      46.789   3.006   5.486  0.00  0.00    +0.000 C 
ATOM     13  C   UNL     1      47.876   2.019   5.945  0.00  0.00    +0.000 C 
ATOM     14  C   UNL     1      47.247   2.058   7.346  0.00  0.00    +0.000 C 
ENDBRANCH  10  11
ENDBRANCH   8  10
ENDBRANCH   1   4
BRANCH   1  15
ATOM     15  C   UNL     1      45.587   6.236  12.930  0.00  0.00    +0.000 C 
BRANCH  15  20
ATOM     16  C   UNL     1      49.603   8.621  15.074  0.00  0.00    +0.000 A 
ATOM     17  C   UNL     1      48.465   9.118  14.455  0.00  0.00    +0.000 A 
ATOM     18  C   UNL     1      47.523   8.225  13.942  0.00  0.00    +0.000 A 
ATOM     19  C   UNL     1      47.733   6.852  14.052  0.00  0.00    +0.000 A 
ATOM     20  N   UNL     1      46.868   5.918  13.555  0.00  0.00    +0.000 N 
ATOM     21  N   UNL     1      48.834   6.364  14.657  0.00  0.00    +0.000 NA
ATOM     22  C   UNL     1      49.739   7.246  15.154  0.00  0.00    +0.000 A 
ATOM     23  H   UNL     1      47.128   4.952  13.721  0.00  0.00    +0.000 HD
BRANCH  16  25
ATOM     24  N   UNL     1      51.411  10.206  16.031  0.00  0.00    +0.000 NA
ATOM     25  C   UNL     1      50.599   9.493  15.607  0.00  0.00    +0.000 C 
ENDBRANCH  16  25
ENDBRANCH  15  20
ENDBRANCH   1  15
TORSDOF 6
ENDMDL
MODEL 7
REMARK VINA RESULT:    -6.304      3.644      6.861
REMARK INTER + INTRA:          -9.592
REMARK INTER:                  -8.787
REMARK INTRA:                  -0.805
REMARK UNBOUND:                -1.077
REMARK  Name = 
REMARK  6 active torsions:
REMARK  status: ('A' for Active; 'I' for Inactive)
REMARK    1  A    between atoms: C_2  and  C_3
REMARK    2  A    between atoms: N_7  and  C_8
REMARK    3  A    between atoms: C_8  and  C_9
REMARK    4  A    between atoms: C_9  and  C_12
REMARK    5  A    between atoms: C_16  and  O_17
REMARK    6  A    between atoms: O_17  and  C_18
REMARK                            x       y       z     vdW  Elec       q    Type
REMARK                         _______ _______ _______ _____ _____    ______ ____
ROOT
ATOM      1  C   UNL     1      45.104   3.999  12.872  0.00  0.00    +0.000 C 
ATOM      2  F   UNL     1      46.211   3.261  13.183  0.00  0.00    +0.000 F 
ATOM      3  F   UNL     1      44.096   3.472  13.630  0.00  0.00    +0.000 F 
ENDROOT
BRANCH   1   4
ATOM      4  C   UNL     1      44.785   3.963  11.389  0.00  0.00    +0.000 A 
ATOM      5  C   UNL     1      44.021   4.980  10.799  0.00  0.00    +0.000 A 
ATOM      6  C   UNL     1      43.794   4.984   9.422  0.00  0.00    +0.000 A 
ATOM      7  C   UNL     1      44.324   3.973   8.614  0.00  0.00    +0.000 A 
ATOM      8  C   UNL     1      45.075   2.952   9.189  0.00  0.00    +0.000 A 
ATOM      9  C   UNL     1      45.305   2.950  10.568  0.00  0.00    +0.000 A 
BRANCH   8  10
ATOM     10  O   UNL     1      45.679   1.931   8.501  0.00  0.00    +0.000 OA
BRANCH  10  11
ATOM     11  C   UNL     1      46.893   2.187   7.763  0.00  0.00    +0.000 C 
ATOM     12  C   UNL     1      46.789   3.116   6.526  0.00  0.00    +0.000 C 
ATOM     13  C   UNL     1      47.679   2.126   5.757  0.00  0.00    +0.000 C 
ATOM     14  C   UNL     1      47.275   1.050   6.777  0.00  0.00    +0.000 C 
ENDBRANCH  10  11
ENDBRANCH   8  10
ENDBRANCH   1   4
BRANCH   1  15
ATOM     15  C   UNL     1      45.342   5.465  13.311  0.00  0.00    +0.000 C 
BRANCH  15  20
ATOM     16  C   UNL     1      49.773   7.891  12.367  0.00  0.00    +0.000 A 
ATOM     17  C   UNL     1      48.640   7.715  11.586  0.00  0.00    +0.000 A 
ATOM     18  C   UNL     1      47.564   6.988  12.100  0.00  0.00    +0.000 A 
ATOM     19  C   UNL     1      47.638   6.448  13.381  0.00  0.00    +0.000 A 
ATOM     20  N   UNL     1      46.636   5.707  13.942  0.00  0.00    +0.000 N 
ATOM     21  N   UNL     1      48.734   6.621  14.146  0.00  0.00    +0.000 NA
ATOM     22  C   UNL     1      49.770   7.333  13.634  0.00  0.00    +0.000 A 
ATOM     23  H   UNL     1      46.808   5.390  14.891  0.00  0.00    +0.000 HD
BRANCH  16  25
ATOM     24  N   UNL     1      51.826   9.207  11.500  0.00  0.00    +0.000 NA
ATOM     25  C   UNL     1      50.901   8.619  11.884  0.00  0.00    +0.000 C 
ENDBRANCH  16  25
ENDBRANCH  15  20
ENDBRANCH   1  15
TORSDOF 6
ENDMDL
MODEL 8
REMARK VINA RESULT:    -6.170      4.027      6.947
REMARK INTER + INTRA:          -9.411
REMARK INTER:                  -8.634
REMARK INTRA:                  -0.777
REMARK UNBOUND:                -1.077
REMARK  Name = 
REMARK  6 active torsions:
REMARK  status: ('A' for Active; 'I' for Inactive)
REMARK    1  A    between atoms: C_2  and  C_3
REMARK    2  A    between atoms: N_7  and  C_8
REMARK    3  A    between atoms: C_8  and  C_9
REMARK    4  A    between atoms: C_9  and  C_12
REMARK    5  A    between atoms: C_16  and  O_17
REMARK    6  A    between atoms: O_17  and  C_18
REMARK                            x       y       z     vdW  Elec       q    Type
REMARK                         _______ _______ _______ _____ _____    ______ ____
ROOT
ATOM      1  C   UNL     1      46.387   5.117  13.646  0.00  0.00    +0.000 C 
ATOM      2  F   UNL     1      47.540   4.524  13.219  0.00  0.00    +0.000 F 
ATOM      3  F   UNL     1      46.253   4.743  14.954  0.00  0.00    +0.000 F 
ENDROOT
BRANCH   1   4
ATOM      4  C   UNL     1      45.186   4.713  12.810  0.00  0.00    +0.000 A 
ATOM      5  C   UNL     1      43.963   5.386  12.946  0.00  0.00    +0.000 A 
ATOM      6  C   UNL     1      42.885   5.062  12.120  0.00  0.00    +0.000 A 
ATOM      7  C   UNL     1      43.010   4.064  11.150  0.00  0.00    +0.000 A 
ATOM      8  C   UNL     1      44.215   3.381  11.012  0.00  0.00    +0.000 A 
ATOM      9  C   UNL     1      45.297   3.708  11.836  0.00  0.00    +0.000 A 
BRANCH   8  10
ATOM     10  O   UNL     1      44.474   2.415  10.075  0.00  0.00    +0.000 OA
BRANCH  10  11
ATOM     11  C   UNL     1      44.725   2.796   8.706  0.00  0.00    +0.000 C 
ATOM     12  C   UNL     1      46.004   2.232   8.035  0.00  0.00    +0.000 C 
ATOM     13  C   UNL     1      46.269   3.632   7.455  0.00  0.00    +0.000 C 
ATOM     14  C   UNL     1      45.364   4.203   8.557  0.00  0.00    +0.000 C 
ENDBRANCH  10  11
ENDBRANCH   8  10
ENDBRANCH   1   4
BRANCH   1  15
ATOM     15  C   UNL     1      46.562   6.654  13.583  0.00  0.00    +0.000 C 
BRANCH  15  20
ATOM     16  C   UNL     1      51.179   8.329  12.066  0.00  0.00    +0.000 A 
ATOM     17  C   UNL     1      50.104   7.825  11.347  0.00  0.00    +0.000 A 
ATOM     18  C   UNL     1      48.953   7.428  12.030  0.00  0.00    +0.000 A 
ATOM     19  C   UNL     1      48.895   7.536  13.417  0.00  0.00    +0.000 A 
ATOM     20  N   UNL     1      47.813   7.146  14.155  0.00  0.00    +0.000 N 
ATOM     21  N   UNL     1      49.933   8.029  14.120  0.00  0.00    +0.000 NA
ATOM     22  C   UNL     1      51.044   8.415  13.441  0.00  0.00    +0.000 A 
ATOM     23  H   UNL     1      47.890   7.299  15.155  0.00  0.00    +0.000 HD
BRANCH  16  25
ATOM     24  N   UNL     1      53.360   9.082  10.895  0.00  0.00    +0.000 NA
ATOM     25  C   UNL     1      52.379   8.742  11.416  0.00  0.00    +0.000 C 
ENDBRANCH  16  25
ENDBRANCH  15  20
ENDBRANCH   1  15
TORSDOF 6
ENDMDL
MODEL 9
REMARK VINA RESULT:    -6.098      3.045      4.480
REMARK INTER + INTRA:          -9.313
REMARK INTER:                  -8.341
REMARK INTRA:                  -0.972
REMARK UNBOUND:                -1.077
REMARK  Name = 
REMARK  6 active torsions:
REMARK  status: ('A' for Active; 'I' for Inactive)
REMARK    1  A    between atoms: C_2  and  C_3
REMARK    2  A    between atoms: N_7  and  C_8
REMARK    3  A    between atoms: C_8  and  C_9
REMARK    4  A    between atoms: C_9  and  C_12
REMARK    5  A    between atoms: C_16  and  O_17
REMARK    6  A    between atoms: O_17  and  C_18
REMARK                            x       y       z     vdW  Elec       q    Type
REMARK                         _______ _______ _______ _____ _____    ______ ____
ROOT
ATOM      1  C   UNL     1      47.869   8.457  13.038  0.00  0.00    +0.000 C 
ATOM      2  F   UNL     1      48.481   7.640  12.130  0.00  0.00    +0.000 F 
ATOM      3  F   UNL     1      48.191   9.728  12.651  0.00  0.00    +0.000 F 
ENDROOT
BRANCH   1   4
ATOM      4  C   UNL     1      48.304   8.164  14.462  0.00  0.00    +0.000 A 
ATOM      5  C   UNL     1      48.168   9.137  15.463  0.00  0.00    +0.000 A 
ATOM      6  C   UNL     1      48.496   8.838  16.787  0.00  0.00    +0.000 A 
ATOM      7  C   UNL     1      48.967   7.567  17.130  0.00  0.00    +0.000 A 
ATOM      8  C   UNL     1      49.117   6.596  16.144  0.00  0.00    +0.000 A 
ATOM      9  C   UNL     1      48.784   6.894  14.819  0.00  0.00    +0.000 A 
BRANCH   8  10
ATOM     10  O   UNL     1      49.528   5.306  16.360  0.00  0.00    +0.000 OA
BRANCH  10  11
ATOM     11  C   UNL     1      48.856   4.498  17.350  0.00  0.00    +0.000 C 
ATOM     12  C   UNL     1      48.921   2.960  17.173  0.00  0.00    +0.000 C 
ATOM     13  C   UNL     1      47.423   2.897  17.514  0.00  0.00    +0.000 C 
ATOM     14  C   UNL     1      47.325   4.380  17.124  0.00  0.00    +0.000 C 
ENDBRANCH  10  11
ENDBRANCH   8  10
ENDBRANCH   1   4
BRANCH   1  15
ATOM     15  C   UNL     1      46.336   8.274  12.921  0.00  0.00    +0.000 C 
BRANCH  15  20
ATOM     16  C   UNL     1      45.026   3.855  10.647  0.00  0.00    +0.000 A 
ATOM     17  C   UNL     1      45.412   5.079  10.119  0.00  0.00    +0.000 A 
ATOM     18  C   UNL     1      45.706   6.133  10.986  0.00  0.00    +0.000 A 
ATOM     19  C   UNL     1      45.607   5.950  12.363  0.00  0.00    +0.000 A 
ATOM     20  N   UNL     1      45.856   6.940  13.271  0.00  0.00    +0.000 N 
ATOM     21  N   UNL     1      45.238   4.762  12.881  0.00  0.00    +0.000 NA
ATOM     22  C   UNL     1      44.959   3.745  12.025  0.00  0.00    +0.000 A 
ATOM     23  H   UNL     1      45.769   6.669  14.245  0.00  0.00    +0.000 HD
BRANCH  16  25
ATOM     24  N   UNL     1      44.444   1.857   9.109  0.00  0.00    +0.000 NA
ATOM     25  C   UNL     1      44.708   2.749   9.803  0.00  0.00    +0.000 C 
ENDBRANCH  16  25
ENDBRANCH  15  20
ENDBRANCH   1  15
TORSDOF 6
ENDMDL
