MODEL 1
REMARK VINA RESULT:    -7.651      0.000      0.000
REMARK INTER + INTRA:         -10.038
REMARK INTER:                  -9.441
REMARK INTRA:                  -0.598
REMARK UNBOUND:                -0.598
REMARK  Name = 
REMARK  4 active torsions:
REMARK  status: ('A' for Active; 'I' for Inactive)
REMARK    1  A    between atoms: C_2  and  C_3
REMARK    2  A    between atoms: N_8  and  C_9
REMARK    3  A    between atoms: C_9  and  C_10
REMARK    4  A    between atoms: C_14  and  C_15
REMARK                            x       y       z     vdW  Elec       q    Type
REMARK                         _______ _______ _______ _____ _____    ______ ____
ROOT
ATOM      1  C   UNL     1      45.522   5.541  11.620  0.00  0.00    +0.000 A 
ATOM      2  C   UNL     1      45.205   4.700  12.692  0.00  0.00    +0.000 A 
ATOM      3  C   UNL     1      46.021   4.664  13.821  0.00  0.00    +0.000 A 
ATOM      4  C   UNL     1      47.166   5.463  13.890  0.00  0.00    +0.000 A 
ATOM      5  C   UNL     1      47.524   6.319  12.833  0.00  0.00    +0.000 A 
ATOM      6  C   UNL     1      46.663   6.361  11.718  0.00  0.00    +0.000 A 
ENDROOT
BRANCH   5   7
ATOM      7  C   UNL     1      48.783   7.097  12.865  0.00  0.00    +0.000 A 
ATOM      8  C   UNL     1      49.460   7.361  14.065  0.00  0.00    +0.000 A 
ATOM      9  N   UNL     1      50.637   8.033  14.175  0.00  0.00    +0.000 NA
ATOM     10  C   UNL     1      51.189   8.463  13.021  0.00  0.00    +0.000 A 
ATOM     11  C   UNL     1      50.611   8.258  11.783  0.00  0.00    +0.000 A 
ATOM     12  F   UNL     1      51.211   8.698  10.671  0.00  0.00    +0.000 F 
ATOM     13  C   UNL     1      49.400   7.579  11.702  0.00  0.00    +0.000 A 
ENDBRANCH   5   7
BRANCH   1  14
ATOM     14  C   UNL     1      44.673   5.554  10.364  0.00  0.00    +0.000 C 
BRANCH  14  20
ATOM     15  C   UNL     1      46.726   2.470   7.280  0.00  0.00    +0.000 A 
ATOM     16  C   UNL     1      46.103   1.430   7.954  0.00  0.00    +0.000 A 
ATOM     17  C   UNL     1      45.276   1.760   9.010  0.00  0.00    +0.000 A 
ATOM     18  N   UNL     1      45.053   3.029   9.424  0.00  0.00    +0.000 NA
ATOM     19  C   UNL     1      45.660   4.038   8.766  0.00  0.00    +0.000 A 
ATOM     20  N   UNL     1      45.523   5.366   9.197  0.00  0.00    +0.000 N 
ATOM     21  C   UNL     1      46.499   3.788   7.683  0.00  0.00    +0.000 A 
ATOM     22  H   UNL     1      45.242   5.959   8.423  0.00  0.00    +0.000 HD
BRANCH  15  24
ATOM     23  N   UNL     1      48.328   1.978   5.302  0.00  0.00    +0.000 NA
ATOM     24  C   UNL     1      47.610   2.197   6.184  0.00  0.00    +0.000 C 
ENDBRANCH  15  24
ENDBRANCH  14  20
ENDBRANCH   1  14
TORSDOF 4
ENDMDL
MODEL 2
REMARK VINA RESULT:    -7.388      2.860      3.766
REMARK INTER + INTRA:          -9.713
REMARK INTER:                  -9.225
REMARK INTRA:                  -0.488
REMARK UNBOUND:                -0.598
REMARK  Name = 
REMARK  4 active torsions:
REMARK  status: ('A' for Active; 'I' for Inactive)
REMARK    1  A    between atoms: C_2  and  C_3
REMARK    2  A    between atoms: N_8  and  C_9
REMARK    3  A    between atoms: C_9  and  C_10
REMARK    4  A    between atoms: C_14  and  C_15
REMARK                            x       y       z     vdW  Elec       q    Type
REMARK                         _______ _______ _______ _____ _____    ______ ____
ROOT
ATOM      1  C   UNL     1      45.072   5.747  11.591  0.00  0.00    +0.000 A 
ATOM      2  C   UNL     1      45.445   7.078  11.376  0.00  0.00    +0.000 A 
ATOM      3  C   UNL     1      46.416   7.674  12.179  0.00  0.00    +0.000 A 
ATOM      4  C   UNL     1      47.021   6.949  13.209  0.00  0.00    +0.000 A 
ATOM      5  C   UNL     1      46.672   5.610  13.464  0.00  0.00    +0.000 A 
ATOM      6  C   UNL     1      45.712   5.022  12.616  0.00  0.00    +0.000 A 
ENDROOT
BRANCH   5   7
ATOM      7  C   UNL     1      47.244   4.870  14.611  0.00  0.00    +0.000 A 
ATOM      8  C   UNL     1      47.337   3.471  14.617  0.00  0.00    +0.000 A 
ATOM      9  N   UNL     1      47.882   2.721  15.612  0.00  0.00    +0.000 NA
ATOM     10  C   UNL     1      48.379   3.399  16.667  0.00  0.00    +0.000 A 
ATOM     11  C   UNL     1      48.342   4.777  16.767  0.00  0.00    +0.000 A 
ATOM     12  F   UNL     1      48.861   5.396  17.834  0.00  0.00    +0.000 F 
ATOM     13  C   UNL     1      47.767   5.517  15.741  0.00  0.00    +0.000 A 
ENDBRANCH   5   7
BRANCH   1  14
ATOM     14  C   UNL     1      43.982   5.100  10.760  0.00  0.00    +0.000 C 
BRANCH  14  20
ATOM     15  C   UNL     1      46.199   1.805   8.026  0.00  0.00    +0.000 A 
ATOM     16  C   UNL     1      46.654   2.833   7.212  0.00  0.00    +0.000 A 
ATOM     17  C   UNL     1      46.324   4.125   7.573  0.00  0.00    +0.000 A 
ATOM     18  N   UNL     1      45.578   4.437   8.658  0.00  0.00    +0.000 NA
ATOM     19  C   UNL     1      45.138   3.436   9.447  0.00  0.00    +0.000 A 
ATOM     20  N   UNL     1      44.301   3.696  10.542  0.00  0.00    +0.000 N 
ATOM     21  C   UNL     1      45.438   2.108   9.158  0.00  0.00    +0.000 A 
ATOM     22  H   UNL     1      44.670   3.256  11.379  0.00  0.00    +0.000 HD
BRANCH  15  24
ATOM     23  N   UNL     1      46.724  -0.664   7.439  0.00  0.00    +0.000 NA
ATOM     24  C   UNL     1      46.492   0.440   7.701  0.00  0.00    +0.000 C 
ENDBRANCH  15  24
ENDBRANCH  14  20
ENDBRANCH   1  14
TORSDOF 4
ENDMDL
MODEL 3
REMARK VINA RESULT:    -7.388      2.645      3.281
REMARK INTER + INTRA:          -9.713
REMARK INTER:                  -9.183
REMARK INTRA:                  -0.530
REMARK UNBOUND:                -0.598
REMARK  Name = 
REMARK  4 active torsions:
REMARK  status: ('A' for Active; 'I' for Inactive)
REMARK    1  A    between atoms: C_2  and  C_3
REMARK    2  A    between atoms: N_8  and  C_9
REMARK    3  A    between atoms: C_9  and  C_10
REMARK    4  A    between atoms: C_14  and  C_15
REMARK                            x       y       z     vdW  Elec       q    Type
REMARK                         _______ _______ _______ _____ _____    ______ ____
ROOT
ATOM      1  C   UNL     1      45.248   5.987  11.330  0.00  0.00    +0.000 A 
ATOM      2  C   UNL     1      45.049   7.371  11.280  0.00  0.00    +0.000 A 
ATOM      3  C   UNL     1      45.630   8.199  12.240  0.00  0.00    +0.000 A 
ATOM      4  C   UNL     1      46.409   7.653  13.263  0.00  0.00    +0.000 A 
ATOM      5  C   UNL     1      46.631   6.268  13.354  0.00  0.00    +0.000 A 
ATOM      6  C   UNL     1      46.061   5.457  12.351  0.00  0.00    +0.000 A 
ENDROOT
BRANCH   5   7
ATOM      7  C   UNL     1      47.380   5.680  14.487  0.00  0.00    +0.000 A 
ATOM      8  C   UNL     1      48.497   6.316  15.046  0.00  0.00    +0.000 A 
ATOM      9  N   UNL     1      49.214   5.863  16.109  0.00  0.00    +0.000 NA
ATOM     10  C   UNL     1      48.792   4.708  16.665  0.00  0.00    +0.000 A 
ATOM     11  C   UNL     1      47.703   3.997  16.197  0.00  0.00    +0.000 A 
ATOM     12  F   UNL     1      47.324   2.862  16.797  0.00  0.00    +0.000 F 
ATOM     13  C   UNL     1      46.997   4.478  15.101  0.00  0.00    +0.000 A 
ENDBRANCH   5   7
BRANCH   1  14
ATOM     14  C   UNL     1      44.583   5.069  10.324  0.00  0.00    +0.000 C 
BRANCH  14  20
ATOM     15  C   UNL     1      46.842   2.350   7.046  0.00  0.00    +0.000 A 
ATOM     16  C   UNL     1      46.405   1.222   7.727  0.00  0.00    +0.000 A 
ATOM     17  C   UNL     1      45.606   1.417   8.836  0.00  0.00    +0.000 A 
ATOM     18  N   UNL     1      45.241   2.636   9.296  0.00  0.00    +0.000 NA
ATOM     19  C   UNL     1      45.666   3.730   8.632  0.00  0.00    +0.000 A 
ATOM     20  N   UNL     1      45.379   5.019   9.106  0.00  0.00    +0.000 N 
ATOM     21  C   UNL     1      46.465   3.617   7.497  0.00  0.00    +0.000 A 
ATOM     22  H   UNL     1      44.975   5.584   8.366  0.00  0.00    +0.000 HD
BRANCH  15  24
ATOM     23  N   UNL     1      48.374   2.113   4.968  0.00  0.00    +0.000 NA
ATOM     24  C   UNL     1      47.687   2.220   5.895  0.00  0.00    +0.000 C 
ENDBRANCH  15  24
ENDBRANCH  14  20
ENDBRANCH   1  14
TORSDOF 4
ENDMDL
MODEL 4
REMARK VINA RESULT:    -7.379      2.784      7.248
REMARK INTER + INTRA:          -9.702
REMARK INTER:                  -9.078
REMARK INTRA:                  -0.624
REMARK UNBOUND:                -0.598
REMARK  Name = 
REMARK  4 active torsions:
REMARK  status: ('A' for Active; 'I' for Inactive)
REMARK    1  A    between atoms: C_2  and  C_3
REMARK    2  A    between atoms: N_8  and  C_9
REMARK    3  A    between atoms: C_9  and  C_10
REMARK    4  A    between atoms: C_14  and  C_15
REMARK                            x       y       z     vdW  Elec       q    Type
REMARK                         _______ _______ _______ _____ _____    ______ ____
ROOT
ATOM      1  C   UNL     1      44.477   5.231  11.607  0.00  0.00    +0.000 A 
ATOM      2  C   UNL     1      43.544   4.389  12.222  0.00  0.00    +0.000 A 
ATOM      3  C   UNL     1      43.309   3.113  11.715  0.00  0.00    +0.000 A 
ATOM      4  C   UNL     1      43.998   2.665  10.584  0.00  0.00    +0.000 A 
ATOM      5  C   UNL     1      44.940   3.480   9.932  0.00  0.00    +0.000 A 
ATOM      6  C   UNL     1      45.184   4.754  10.486  0.00  0.00    +0.000 A 
ENDROOT
BRANCH   5   7
ATOM      7  C   UNL     1      45.603   3.044   8.682  0.00  0.00    +0.000 A 
ATOM      8  C   UNL     1      45.960   3.954   7.676  0.00  0.00    +0.000 A 
ATOM      9  N   UNL     1      46.603   3.640   6.520  0.00  0.00    +0.000 NA
ATOM     10  C   UNL     1      46.927   2.341   6.352  0.00  0.00    +0.000 A 
ATOM     11  C   UNL     1      46.627   1.360   7.277  0.00  0.00    +0.000 A 
ATOM     12  F   UNL     1      46.983   0.088   7.060  0.00  0.00    +0.000 F 
ATOM     13  C   UNL     1      45.956   1.708   8.444  0.00  0.00    +0.000 A 
ENDBRANCH   5   7
BRANCH   1  14
ATOM     14  C   UNL     1      44.708   6.640  12.116  0.00  0.00    +0.000 C 
BRANCH  14  20
ATOM     15  C   UNL     1      49.154   7.279  13.868  0.00  0.00    +0.000 A 
ATOM     16  C   UNL     1      49.564   7.664  12.599  0.00  0.00    +0.000 A 
ATOM     17  C   UNL     1      48.605   7.709  11.606  0.00  0.00    +0.000 A 
ATOM     18  N   UNL     1      47.305   7.389  11.799  0.00  0.00    +0.000 NA
ATOM     19  C   UNL     1      46.909   7.016  13.033  0.00  0.00    +0.000 A 
ATOM     20  N   UNL     1      45.590   6.605  13.274  0.00  0.00    +0.000 N 
ATOM     21  C   UNL     1      47.813   6.958  14.090  0.00  0.00    +0.000 A 
ATOM     22  H   UNL     1      45.202   7.112  14.062  0.00  0.00    +0.000 HD
BRANCH  15  24
ATOM     23  N   UNL     1      50.864   7.132  15.810  0.00  0.00    +0.000 NA
ATOM     24  C   UNL     1      50.100   7.195  14.942  0.00  0.00    +0.000 C 
ENDBRANCH  15  24
ENDBRANCH  14  20
ENDBRANCH   1  14
TORSDOF 4
ENDMDL
MODEL 5
REMARK VINA RESULT:    -7.255      3.872      7.716
REMARK INTER + INTRA:          -9.549
REMARK INTER:                  -9.095
REMARK INTRA:                  -0.453
REMARK UNBOUND:                -0.598
REMARK  Name = 
REMARK  4 active torsions:
REMARK  status: ('A' for Active; 'I' for Inactive)
REMARK    1  A    between atoms: C_2  and  C_3
REMARK    2  A    between atoms: N_8  and  C_9
REMARK    3  A    between atoms: C_9  and  C_10
REMARK    4  A    between atoms: C_14  and  C_15
REMARK                            x       y       z     vdW  Elec       q    Type
REMARK                         _______ _______ _______ _____ _____    ______ ____
ROOT
ATOM      1  C   UNL     1      44.953   4.749  12.967  0.00  0.00    +0.000 A 
ATOM      2  C   UNL     1      43.597   5.094  12.983  0.00  0.00    +0.000 A 
ATOM      3  C   UNL     1      42.805   4.883  11.856  0.00  0.00    +0.000 A 
ATOM      4  C   UNL     1      43.360   4.331  10.698  0.00  0.00    +0.000 A 
ATOM      5  C   UNL     1      44.719   3.974  10.636  0.00  0.00    +0.000 A 
ATOM      6  C   UNL     1      45.489   4.166  11.802  0.00  0.00    +0.000 A 
ENDROOT
BRANCH   5   7
ATOM      7  C   UNL     1      45.329   3.475   9.383  0.00  0.00    +0.000 A 
ATOM      8  C   UNL     1      45.725   4.344   8.356  0.00  0.00    +0.000 A 
ATOM      9  N   UNL     1      46.325   3.970   7.194  0.00  0.00    +0.000 NA
ATOM     10  C   UNL     1      46.561   2.650   7.042  0.00  0.00    +0.000 A 
ATOM     11  C   UNL     1      46.214   1.705   7.989  0.00  0.00    +0.000 A 
ATOM     12  F   UNL     1      46.483   0.410   7.788  0.00  0.00    +0.000 F 
ATOM     13  C   UNL     1      45.590   2.115   9.161  0.00  0.00    +0.000 A 
ENDBRANCH   5   7
BRANCH   1  14
ATOM     14  C   UNL     1      45.839   5.018  14.167  0.00  0.00    +0.000 C 
BRANCH  14  20
ATOM     15  C   UNL     1      49.137   2.862  16.945  0.00  0.00    +0.000 A 
ATOM     16  C   UNL     1      48.874   3.802  17.932  0.00  0.00    +0.000 A 
ATOM     17  C   UNL     1      47.892   4.739  17.674  0.00  0.00    +0.000 A 
ATOM     18  N   UNL     1      47.190   4.795  16.519  0.00  0.00    +0.000 NA
ATOM     19  C   UNL     1      47.447   3.880  15.563  0.00  0.00    +0.000 A 
ATOM     20  N   UNL     1      46.800   3.935  14.319  0.00  0.00    +0.000 N 
ATOM     21  C   UNL     1      48.413   2.895  15.751  0.00  0.00    +0.000 A 
ATOM     22  H   UNL     1      46.395   3.033  14.093  0.00  0.00    +0.000 HD
BRANCH  15  24
ATOM     23  N   UNL     1      50.976   1.070  17.302  0.00  0.00    +0.000 NA
ATOM     24  C   UNL     1      50.155   1.871  17.140  0.00  0.00    +0.000 C 
ENDBRANCH  15  24
ENDBRANCH  14  20
ENDBRANCH   1  14
TORSDOF 4
ENDMDL
MODEL 6
REMARK VINA RESULT:    -7.021      2.018      2.440
REMARK INTER + INTRA:          -9.261
REMARK INTER:                  -8.752
REMARK INTRA:                  -0.508
REMARK UNBOUND:                -0.598
REMARK  Name = 
REMARK  4 active torsions:
REMARK  status: ('A' for Active; 'I' for Inactive)
REMARK    1  A    between atoms: C_2  and  C_3
REMARK    2  A    between atoms: N_8  and  C_9
REMARK    3  A    between atoms: C_9  and  C_10
REMARK    4  A    between atoms: C_14  and  C_15
REMARK                            x       y       z     vdW  Elec       q    Type
REMARK                         _______ _______ _______ _____ _____    ______ ____
ROOT
ATOM      1  C   UNL     1      44.896   5.495  11.672  0.00  0.00    +0.000 A 
ATOM      2  C   UNL     1      45.298   4.758  12.792  0.00  0.00    +0.000 A 
ATOM      3  C   UNL     1      46.260   5.270  13.661  0.00  0.00    +0.000 A 
ATOM      4  C   UNL     1      46.836   6.520  13.418  0.00  0.00    +0.000 A 
ATOM      5  C   UNL     1      46.465   7.292  12.302  0.00  0.00    +0.000 A 
ATOM      6  C   UNL     1      45.465   6.765  11.458  0.00  0.00    +0.000 A 
ENDROOT
BRANCH   5   7
ATOM      7  C   UNL     1      47.139   8.573  11.992  0.00  0.00    +0.000 A 
ATOM      8  C   UNL     1      46.456   9.797  12.035  0.00  0.00    +0.000 A 
ATOM      9  N   UNL     1      47.009  11.017  11.803  0.00  0.00    +0.000 NA
ATOM     10  C   UNL     1      48.329  11.030  11.520  0.00  0.00    +0.000 A 
ATOM     11  C   UNL     1      49.100   9.886  11.453  0.00  0.00    +0.000 A 
ATOM     12  F   UNL     1      50.408   9.961  11.179  0.00  0.00    +0.000 F 
ATOM     13  C   UNL     1      48.504   8.650  11.682  0.00  0.00    +0.000 A 
ENDBRANCH   5   7
BRANCH   1  14
ATOM     14  C   UNL     1      43.889   4.930  10.690  0.00  0.00    +0.000 C 
BRANCH  14  20
ATOM     15  C   UNL     1      46.218   1.681   7.996  0.00  0.00    +0.000 A 
ATOM     16  C   UNL     1      46.765   2.726   7.265  0.00  0.00    +0.000 A 
ATOM     17  C   UNL     1      46.444   4.012   7.654  0.00  0.00    +0.000 A 
ATOM     18  N   UNL     1      45.625   4.303   8.691  0.00  0.00    +0.000 NA
ATOM     19  C   UNL     1      45.096   3.285   9.400  0.00  0.00    +0.000 A 
ATOM     20  N   UNL     1      44.183   3.527  10.438  0.00  0.00    +0.000 N 
ATOM     21  C   UNL     1      45.380   1.961   9.079  0.00  0.00    +0.000 A 
ATOM     22  H   UNL     1      44.473   3.042  11.281  0.00  0.00    +0.000 HD
BRANCH  15  24
ATOM     23  N   UNL     1      46.725  -0.777   7.349  0.00  0.00    +0.000 NA
ATOM     24  C   UNL     1      46.496   0.321   7.637  0.00  0.00    +0.000 C 
ENDBRANCH  15  24
ENDBRANCH  14  20
ENDBRANCH   1  14
TORSDOF 4
ENDMDL
MODEL 7
REMARK VINA RESULT:    -6.634      3.528      8.395
REMARK INTER + INTRA:          -8.782
REMARK INTER:                  -8.368
REMARK INTRA:                  -0.414
REMARK UNBOUND:                -0.598
REMARK  Name = 
REMARK  4 active torsions:
REMARK  status: ('A' for Active; 'I' for Inactive)
REMARK    1  A    between atoms: C_2  and  C_3
REMARK    2  A    between atoms: N_8  and  C_9
REMARK    3  A    between atoms: C_9  and  C_10
REMARK    4  A    between atoms: C_14  and  C_15
REMARK                            x       y       z     vdW  Elec       q    Type
REMARK                         _______ _______ _______ _____ _____    ______ ____
ROOT
ATOM      1  C   UNL     1      47.066   7.096  13.087  0.00  0.00    +0.000 A 
ATOM      2  C   UNL     1      46.386   8.312  12.959  0.00  0.00    +0.000 A 
ATOM      3  C   UNL     1      45.320   8.430  12.069  0.00  0.00    +0.000 A 
ATOM      4  C   UNL     1      44.925   7.336  11.293  0.00  0.00    +0.000 A 
ATOM      5  C   UNL     1      45.584   6.097  11.387  0.00  0.00    +0.000 A 
ATOM      6  C   UNL     1      46.637   5.996  12.319  0.00  0.00    +0.000 A 
ENDROOT
BRANCH   5   7
ATOM      7  C   UNL     1      45.227   4.966  10.502  0.00  0.00    +0.000 A 
ATOM      8  C   UNL     1      44.395   3.922  10.932  0.00  0.00    +0.000 A 
ATOM      9  N   UNL     1      43.991   2.870  10.172  0.00  0.00    +0.000 NA
ATOM     10  C   UNL     1      44.428   2.854   8.895  0.00  0.00    +0.000 A 
ATOM     11  C   UNL     1      45.249   3.830   8.364  0.00  0.00    +0.000 A 
ATOM     12  F   UNL     1      45.642   3.767   7.086  0.00  0.00    +0.000 F 
ATOM     13  C   UNL     1      45.658   4.887   9.169  0.00  0.00    +0.000 A 
ENDBRANCH   5   7
BRANCH   1  14
ATOM     14  C   UNL     1      48.259   6.966  14.013  0.00  0.00    +0.000 C 
BRANCH  14  20
ATOM     15  C   UNL     1      49.493   5.366  18.390  0.00  0.00    +0.000 A 
ATOM     16  C   UNL     1      50.825   5.553  18.048  0.00  0.00    +0.000 A 
ATOM     17  C   UNL     1      51.095   6.080  16.800  0.00  0.00    +0.000 A 
ATOM     18  N   UNL     1      50.140   6.407  15.899  0.00  0.00    +0.000 NA
ATOM     19  C   UNL     1      48.847   6.224  16.234  0.00  0.00    +0.000 A 
ATOM     20  N   UNL     1      47.820   6.478  15.312  0.00  0.00    +0.000 N 
ATOM     21  C   UNL     1      48.493   5.710  17.478  0.00  0.00    +0.000 A 
ATOM     22  H   UNL     1      47.117   7.082  15.727  0.00  0.00    +0.000 HD
BRANCH  15  24
ATOM     23  N   UNL     1      48.856   4.356  20.691  0.00  0.00    +0.000 NA
ATOM     24  C   UNL     1      49.143   4.808  19.664  0.00  0.00    +0.000 C 
ENDBRANCH  15  24
ENDBRANCH  14  20
ENDBRANCH   1  14
TORSDOF 4
ENDMDL
MODEL 8
REMARK VINA RESULT:    -6.624      2.544      6.880
REMARK INTER + INTRA:          -8.770
REMARK INTER:                  -8.134
REMARK INTRA:                  -0.636
REMARK UNBOUND:                -0.598
REMARK  Name = 
REMARK  4 active torsions:
REMARK  status: ('A' for Active; 'I' for Inactive)
REMARK    1  A    between atoms: C_2  and  C_3
REMARK    2  A    between atoms: N_8  and  C_9
REMARK    3  A    between atoms: C_9  and  C_10
REMARK    4  A    between atoms: C_14  and  C_15
REMARK                            x       y       z     vdW  Elec       q    Type
REMARK                         _______ _______ _______ _____ _____    ______ ____
ROOT
ATOM      1  C   UNL     1      45.025   5.921  12.179  0.00  0.00    +0.000 A 
ATOM      2  C   UNL     1      43.634   5.939  12.331  0.00  0.00    +0.000 A 
ATOM      3  C   UNL     1      42.828   5.151  11.512  0.00  0.00    +0.000 A 
ATOM      4  C   UNL     1      43.401   4.341  10.527  0.00  0.00    +0.000 A 
ATOM      5  C   UNL     1      44.793   4.296  10.336  0.00  0.00    +0.000 A 
ATOM      6  C   UNL     1      45.588   5.077  11.201  0.00  0.00    +0.000 A 
ENDROOT
BRANCH   5   7
ATOM      7  C   UNL     1      45.395   3.511   9.236  0.00  0.00    +0.000 A 
ATOM      8  C   UNL     1      45.497   2.113   9.293  0.00  0.00    +0.000 A 
ATOM      9  N   UNL     1      46.000   1.318   8.312  0.00  0.00    +0.000 NA
ATOM     10  C   UNL     1      46.421   1.944   7.193  0.00  0.00    +0.000 A 
ATOM     11  C   UNL     1      46.367   3.315   7.027  0.00  0.00    +0.000 A 
ATOM     12  F   UNL     1      46.789   3.880   5.890  0.00  0.00    +0.000 F 
ATOM     13  C   UNL     1      45.860   4.104   8.053  0.00  0.00    +0.000 A 
ENDBRANCH   5   7
BRANCH   1  14
ATOM     14  C   UNL     1      45.912   6.809  13.028  0.00  0.00    +0.000 C 
BRANCH  14  20
ATOM     15  C   UNL     1      50.202   8.414  11.524  0.00  0.00    +0.000 A 
ATOM     16  C   UNL     1      49.642   9.675  11.373  0.00  0.00    +0.000 A 
ATOM     17  C   UNL     1      48.316   9.829  11.727  0.00  0.00    +0.000 A 
ATOM     18  N   UNL     1      47.540   8.826  12.196  0.00  0.00    +0.000 NA
ATOM     19  C   UNL     1      48.087   7.602  12.342  0.00  0.00    +0.000 A 
ATOM     20  N   UNL     1      47.310   6.509  12.755  0.00  0.00    +0.000 N 
ATOM     21  C   UNL     1      49.421   7.368  12.020  0.00  0.00    +0.000 A 
ATOM     22  H   UNL     1      47.756   6.035  13.534  0.00  0.00    +0.000 HD
BRANCH  15  24
ATOM     23  N   UNL     1      52.675   7.988  10.871  0.00  0.00    +0.000 NA
ATOM     24  C   UNL     1      51.570   8.180  11.161  0.00  0.00    +0.000 C 
ENDBRANCH  15  24
ENDBRANCH  14  20
ENDBRANCH   1  14
TORSDOF 4
ENDMDL
MODEL 9
REMARK VINA RESULT:    -6.089      2.157      2.391
REMARK INTER + INTRA:          -8.111
REMARK INTER:                  -7.539
REMARK INTRA:                  -0.572
REMARK UNBOUND:                -0.598
REMARK  Name = 
REMARK  4 active torsions:
REMARK  status: ('A' for Active; 'I' for Inactive)
REMARK    1  A    between atoms: C_2  and  C_3
REMARK    2  A    between atoms: N_8  and  C_9
REMARK    3  A    between atoms: C_9  and  C_10
REMARK    4  A    between atoms: C_14  and  C_15
REMARK                            x       y       z     vdW  Elec       q    Type
REMARK                         _______ _______ _______ _____ _____    ______ ____
ROOT
ATOM      1  C   UNL     1      45.868   6.177  12.652  0.00  0.00    +0.000 A 
ATOM      2  C   UNL     1      46.336   5.147  13.474  0.00  0.00    +0.000 A 
ATOM      3  C   UNL     1      47.388   5.377  14.358  0.00  0.00    +0.000 A 
ATOM      4  C   UNL     1      47.990   6.637  14.426  0.00  0.00    +0.000 A 
ATOM      5  C   UNL     1      47.554   7.700  13.614  0.00  0.00    +0.000 A 
ATOM      6  C   UNL     1      46.465   7.449  12.754  0.00  0.00    +0.000 A 
ENDROOT
BRANCH   5   7
ATOM      7  C   UNL     1      48.248   9.007  13.618  0.00  0.00    +0.000 A 
ATOM      8  C   UNL     1      47.983   9.989  12.652  0.00  0.00    +0.000 A 
ATOM      9  N   UNL     1      48.547  11.225  12.608  0.00  0.00    +0.000 NA
ATOM     10  C   UNL     1      49.424  11.516  13.592  0.00  0.00    +0.000 A 
ATOM     11  C   UNL     1      49.758  10.627  14.595  0.00  0.00    +0.000 A 
ATOM     12  F   UNL     1      50.627  10.975  15.552  0.00  0.00    +0.000 F 
ATOM     13  C   UNL     1      49.176   9.364  14.607  0.00  0.00    +0.000 A 
ENDBRANCH   5   7
BRANCH   1  14
ATOM     14  C   UNL     1      44.758   5.930  11.650  0.00  0.00    +0.000 C 
BRANCH  14  20
ATOM     15  C   UNL     1      45.778   3.217   7.797  0.00  0.00    +0.000 A 
ATOM     16  C   UNL     1      45.207   2.132   8.449  0.00  0.00    +0.000 A 
ATOM     17  C   UNL     1      44.661   2.356   9.698  0.00  0.00    +0.000 A 
ATOM     18  N   UNL     1      44.665   3.558  10.318  0.00  0.00    +0.000 NA
ATOM     19  C   UNL     1      45.220   4.610   9.682  0.00  0.00    +0.000 A 
ATOM     20  N   UNL     1      45.316   5.862  10.307  0.00  0.00    +0.000 N 
ATOM     21  C   UNL     1      45.780   4.470   8.415  0.00  0.00    +0.000 A 
ATOM     22  H   UNL     1      44.941   6.586   9.703  0.00  0.00    +0.000 HD
BRANCH  15  24
ATOM     23  N   UNL     1      46.864   2.922   5.462  0.00  0.00    +0.000 NA
ATOM     24  C   UNL     1      46.377   3.053   6.505  0.00  0.00    +0.000 C 
ENDBRANCH  15  24
ENDBRANCH  14  20
ENDBRANCH   1  14
TORSDOF 4
ENDMDL
