MODEL 1
REMARK VINA RESULT:    -5.977      0.000      0.000
REMARK INTER + INTRA:          -8.492
REMARK INTER:                  -7.375
REMARK INTRA:                  -1.118
REMARK UNBOUND:                -1.118
REMARK  Name = 
REMARK  7 active torsions:
REMARK  status: ('A' for Active; 'I' for Inactive)
REMARK    1  A    between atoms: C_1  and  C_2
REMARK    2  A    between atoms: C_2  and  C_3
REMARK    3  A    between atoms: C_2  and  C_4
REMARK    4  A    between atoms: C_2  and  C_5
REMARK    5  A    between atoms: C_8  and  C_9
REMARK    6  A    between atoms: N_16  and  C_17
REMARK    7  A    between atoms: C_17  and  C_18
REMARK                            x       y       z     vdW  Elec       q    Type
REMARK                         _______ _______ _______ _____ _____    ______ ____
ROOT
ATOM      1  C   UNL     1      47.749   4.892  15.951  0.00  0.00    +0.000 A 
ATOM      2  N   UNL     1      46.794   4.413  15.177  0.00  0.00    +0.000 NA
ATOM      3  C   UNL     1      46.789   5.143  14.022  0.00  0.00    +0.000 A 
ATOM      4  C   UNL     1      45.943   5.036  12.917  0.00  0.00    +0.000 A 
ATOM      5  C   UNL     1      46.172   5.950  11.902  0.00  0.00    +0.000 A 
ATOM      6  N   UNL     1      47.149   6.897  11.925  0.00  0.00    +0.000 NA
ATOM      7  C   UNL     1      47.976   6.981  12.997  0.00  0.00    +0.000 A 
ATOM      8  C   UNL     1      47.791   6.098  14.055  0.00  0.00    +0.000 A 
ATOM      9  N   UNL     1      48.426   5.907  15.273  0.00  0.00    +0.000 N 
ENDROOT
BRANCH   4  10
ATOM     10  C   UNL     1      44.872   4.033  12.836  0.00  0.00    +0.000 C 
ATOM     11  N   UNL     1      45.241   2.738  12.595  0.00  0.00    +0.000 N 
ATOM     12  O   UNL     1      43.699   4.344  12.981  0.00  0.00    +0.000 OA
ATOM     13  H   UNL     1      46.223   2.484  12.485  0.00  0.00    +0.000 HD
ATOM     14  H   UNL     1      44.535   2.018  12.531  0.00  0.00    +0.000 HD
ENDBRANCH   4  10
BRANCH   1  16
ATOM     15  C   UNL     1      47.258   2.936  17.436  0.00  0.00    +0.000 C 
ATOM     16  C   UNL     1      47.960   4.327  17.355  0.00  0.00    +0.000 C 
ATOM     17  C   UNL     1      47.293   5.196  18.430  0.00  0.00    +0.000 C 
ATOM     18  C   UNL     1      49.441   4.084  17.658  0.00  0.00    +0.000 C 
ENDBRANCH   1  16
BRANCH   9  19
ATOM     19  C   UNL     1      49.537   6.744  15.726  0.00  0.00    +0.000 C 
BRANCH  19  20
ATOM     20  C   UNL     1      49.204   7.801  16.758  0.00  0.00    +0.000 A 
ATOM     21  C   UNL     1      49.611   7.747  18.099  0.00  0.00    +0.000 A 
ATOM     22  C   UNL     1      49.089   8.639  19.040  0.00  0.00    +0.000 A 
ATOM     23  C   UNL     1      48.183   9.623  18.650  0.00  0.00    +0.000 A 
ATOM     24  C   UNL     1      47.841   9.753  17.308  0.00  0.00    +0.000 A 
ATOM     25  C   UNL     1      48.353   8.855  16.369  0.00  0.00    +0.000 A 
ENDBRANCH  19  20
ENDBRANCH   9  19
TORSDOF 4
ENDMDL
MODEL 2
REMARK VINA RESULT:    -5.786      2.535      5.500
REMARK INTER + INTRA:          -8.257
REMARK INTER:                  -7.547
REMARK INTRA:                  -0.710
REMARK UNBOUND:                -1.118
REMARK  Name = 
REMARK  7 active torsions:
REMARK  status: ('A' for Active; 'I' for Inactive)
REMARK    1  A    between atoms: C_1  and  C_2
REMARK    2  A    between atoms: C_2  and  C_3
REMARK    3  A    between atoms: C_2  and  C_4
REMARK    4  A    between atoms: C_2  and  C_5
REMARK    5  A    between atoms: C_8  and  C_9
REMARK    6  A    between atoms: N_16  and  C_17
REMARK    7  A    between atoms: C_17  and  C_18
REMARK                            x       y       z     vdW  Elec       q    Type
REMARK                         _______ _______ _______ _____ _____    ______ ____
ROOT
ATOM      1  C   UNL     1      45.658   4.804  12.885  0.00  0.00    +0.000 A 
ATOM      2  N   UNL     1      45.967   4.233  14.034  0.00  0.00    +0.000 NA
ATOM      3  C   UNL     1      47.049   4.890  14.547  0.00  0.00    +0.000 A 
ATOM      4  C   UNL     1      47.758   4.634  15.722  0.00  0.00    +0.000 A 
ATOM      5  C   UNL     1      48.841   5.465  15.957  0.00  0.00    +0.000 A 
ATOM      6  N   UNL     1      49.220   6.485  15.138  0.00  0.00    +0.000 NA
ATOM      7  C   UNL     1      48.513   6.734  14.007  0.00  0.00    +0.000 A 
ATOM      8  C   UNL     1      47.422   5.928  13.709  0.00  0.00    +0.000 A 
ATOM      9  N   UNL     1      46.504   5.892  12.669  0.00  0.00    +0.000 N 
ENDROOT
BRANCH   4  10
ATOM     10  C   UNL     1      47.394   3.548  16.644  0.00  0.00    +0.000 C 
ATOM     11  N   UNL     1      48.262   2.496  16.748  0.00  0.00    +0.000 N 
ATOM     12  O   UNL     1      46.360   3.586  17.293  0.00  0.00    +0.000 OA
ATOM     13  H   UNL     1      49.128   2.475  16.209  0.00  0.00    +0.000 HD
ATOM     14  H   UNL     1      48.050   1.729  17.369  0.00  0.00    +0.000 HD
ENDBRANCH   4  10
BRANCH   1  16
ATOM     15  C   UNL     1      43.300   5.204  12.143  0.00  0.00    +0.000 C 
ATOM     16  C   UNL     1      44.525   4.245  12.027  0.00  0.00    +0.000 C 
ATOM     17  C   UNL     1      44.038   2.880  12.534  0.00  0.00    +0.000 C 
ATOM     18  C   UNL     1      44.900   4.198  10.542  0.00  0.00    +0.000 C 
ENDBRANCH   1  16
BRANCH   9  19
ATOM     19  C   UNL     1      46.561   6.813  11.533  0.00  0.00    +0.000 C 
BRANCH  19  20
ATOM     20  C   UNL     1      45.857   8.143  11.712  0.00  0.00    +0.000 A 
ATOM     21  C   UNL     1      44.513   8.371  11.381  0.00  0.00    +0.000 A 
ATOM     22  C   UNL     1      43.993   9.669  11.368  0.00  0.00    +0.000 A 
ATOM     23  C   UNL     1      44.794  10.752  11.722  0.00  0.00    +0.000 A 
ATOM     24  C   UNL     1      46.101  10.535  12.145  0.00  0.00    +0.000 A 
ATOM     25  C   UNL     1      46.625   9.240  12.148  0.00  0.00    +0.000 A 
ENDBRANCH  19  20
ENDBRANCH   9  19
TORSDOF 4
ENDMDL
MODEL 3
REMARK VINA RESULT:    -5.645      2.393      5.236
REMARK INTER + INTRA:          -8.083
REMARK INTER:                  -7.546
REMARK INTRA:                  -0.537
REMARK UNBOUND:                -1.118
REMARK  Name = 
REMARK  7 active torsions:
REMARK  status: ('A' for Active; 'I' for Inactive)
REMARK    1  A    between atoms: C_1  and  C_2
REMARK    2  A    between atoms: C_2  and  C_3
REMARK    3  A    between atoms: C_2  and  C_4
REMARK    4  A    between atoms: C_2  and  C_5
REMARK    5  A    between atoms: C_8  and  C_9
REMARK    6  A    between atoms: N_16  and  C_17
REMARK    7  A    between atoms: C_17  and  C_18
REMARK                            x       y       z     vdW  Elec       q    Type
REMARK                         _______ _______ _______ _____ _____    ______ ____
ROOT
ATOM      1  C   UNL     1      46.183   5.289  13.368  0.00  0.00    +0.000 A 
ATOM      2  N   UNL     1      46.550   4.398  14.268  0.00  0.00    +0.000 NA
ATOM      3  C   UNL     1      47.475   4.986  15.082  0.00  0.00    +0.000 A 
ATOM      4  C   UNL     1      48.178   4.437  16.157  0.00  0.00    +0.000 A 
ATOM      5  C   UNL     1      49.081   5.286  16.774  0.00  0.00    +0.000 A 
ATOM      6  N   UNL     1      49.296   6.580  16.406  0.00  0.00    +0.000 NA
ATOM      7  C   UNL     1      48.595   7.107  15.371  0.00  0.00    +0.000 A 
ATOM      8  C   UNL     1      47.681   6.302  14.703  0.00  0.00    +0.000 A 
ATOM      9  N   UNL     1      46.822   6.501  13.632  0.00  0.00    +0.000 N 
ENDROOT
BRANCH   4  10
ATOM     10  C   UNL     1      47.987   3.048  16.599  0.00  0.00    +0.000 C 
ATOM     11  N   UNL     1      47.033   2.818  17.552  0.00  0.00    +0.000 N 
ATOM     12  O   UNL     1      48.652   2.136  16.132  0.00  0.00    +0.000 OA
ATOM     13  H   UNL     1      46.475   3.583  17.931  0.00  0.00    +0.000 HD
ATOM     14  H   UNL     1      46.871   1.878  17.884  0.00  0.00    +0.000 HD
ENDBRANCH   4  10
BRANCH   1  16
ATOM     15  C   UNL     1      45.171   3.353  12.144  0.00  0.00    +0.000 C 
ATOM     16  C   UNL     1      45.202   4.908  12.260  0.00  0.00    +0.000 C 
ATOM     17  C   UNL     1      45.657   5.422  10.887  0.00  0.00    +0.000 C 
ATOM     18  C   UNL     1      43.771   5.347  12.586  0.00  0.00    +0.000 C 
ENDBRANCH   1  16
BRANCH   9  19
ATOM     19  C   UNL     1      46.750   7.767  12.902  0.00  0.00    +0.000 C 
BRANCH  19  20
ATOM     20  C   UNL     1      48.018   8.212  12.201  0.00  0.00    +0.000 A 
ATOM     21  C   UNL     1      48.996   7.333  11.714  0.00  0.00    +0.000 A 
ATOM     22  C   UNL     1      50.232   7.815  11.276  0.00  0.00    +0.000 A 
ATOM     23  C   UNL     1      50.497   9.183  11.281  0.00  0.00    +0.000 A 
ATOM     24  C   UNL     1      49.505  10.076  11.670  0.00  0.00    +0.000 A 
ATOM     25  C   UNL     1      48.273   9.595  12.119  0.00  0.00    +0.000 A 
ENDBRANCH  19  20
ENDBRANCH   9  19
TORSDOF 4
ENDMDL
MODEL 4
REMARK VINA RESULT:    -5.601      2.833      5.204
REMARK INTER + INTRA:          -8.029
REMARK INTER:                  -7.262
REMARK INTRA:                  -0.766
REMARK UNBOUND:                -1.118
REMARK  Name = 
REMARK  7 active torsions:
REMARK  status: ('A' for Active; 'I' for Inactive)
REMARK    1  A    between atoms: C_1  and  C_2
REMARK    2  A    between atoms: C_2  and  C_3
REMARK    3  A    between atoms: C_2  and  C_4
REMARK    4  A    between atoms: C_2  and  C_5
REMARK    5  A    between atoms: C_8  and  C_9
REMARK    6  A    between atoms: N_16  and  C_17
REMARK    7  A    between atoms: C_17  and  C_18
REMARK                            x       y       z     vdW  Elec       q    Type
REMARK                         _______ _______ _______ _____ _____    ______ ____
ROOT
ATOM      1  C   UNL     1      45.049   6.160  12.066  0.00  0.00    +0.000 A 
ATOM      2  N   UNL     1      44.411   7.261  11.717  0.00  0.00    +0.000 NA
ATOM      3  C   UNL     1      45.270   8.310  11.883  0.00  0.00    +0.000 A 
ATOM      4  C   UNL     1      45.045   9.672  11.678  0.00  0.00    +0.000 A 
ATOM      5  C   UNL     1      46.116  10.502  11.966  0.00  0.00    +0.000 A 
ATOM      6  N   UNL     1      47.329  10.069  12.408  0.00  0.00    +0.000 NA
ATOM      7  C   UNL     1      47.541   8.741  12.587  0.00  0.00    +0.000 A 
ATOM      8  C   UNL     1      46.502   7.856  12.326  0.00  0.00    +0.000 A 
ATOM      9  N   UNL     1      46.366   6.478  12.403  0.00  0.00    +0.000 N 
ENDROOT
BRANCH   4  10
ATOM     10  C   UNL     1      43.758  10.198  11.202  0.00  0.00    +0.000 C 
ATOM     11  N   UNL     1      43.225   9.631  10.077  0.00  0.00    +0.000 N 
ATOM     12  O   UNL     1      43.185  11.103  11.790  0.00  0.00    +0.000 OA
ATOM     13  H   UNL     1      43.704   8.870   9.596  0.00  0.00    +0.000 HD
ATOM     14  H   UNL     1      42.342   9.964   9.716  0.00  0.00    +0.000 HD
ENDBRANCH   4  10
BRANCH   1  16
ATOM     15  C   UNL     1      43.398   4.761  10.807  0.00  0.00    +0.000 C 
ATOM     16  C   UNL     1      44.326   4.814  12.060  0.00  0.00    +0.000 C 
ATOM     17  C   UNL     1      43.401   4.653  13.274  0.00  0.00    +0.000 C 
ATOM     18  C   UNL     1      45.301   3.640  11.927  0.00  0.00    +0.000 C 
ENDBRANCH   1  16
BRANCH   9  19
ATOM     19  C   UNL     1      47.442   5.603  12.869  0.00  0.00    +0.000 C 
BRANCH  19  20
ATOM     20  C   UNL     1      47.610   5.487  14.371  0.00  0.00    +0.000 A 
ATOM     21  C   UNL     1      48.437   6.322  15.135  0.00  0.00    +0.000 A 
ATOM     22  C   UNL     1      48.710   6.024  16.473  0.00  0.00    +0.000 A 
ATOM     23  C   UNL     1      48.132   4.911  17.079  0.00  0.00    +0.000 A 
ATOM     24  C   UNL     1      47.233   4.125  16.364  0.00  0.00    +0.000 A 
ATOM     25  C   UNL     1      46.968   4.416  15.024  0.00  0.00    +0.000 A 
ENDBRANCH  19  20
ENDBRANCH   9  19
TORSDOF 4
ENDMDL
MODEL 5
REMARK VINA RESULT:    -5.371      2.974      7.191
REMARK INTER + INTRA:          -7.745
REMARK INTER:                  -7.399
REMARK INTRA:                  -0.346
REMARK UNBOUND:                -1.118
REMARK  Name = 
REMARK  7 active torsions:
REMARK  status: ('A' for Active; 'I' for Inactive)
REMARK    1  A    between atoms: C_1  and  C_2
REMARK    2  A    between atoms: C_2  and  C_3
REMARK    3  A    between atoms: C_2  and  C_4
REMARK    4  A    between atoms: C_2  and  C_5
REMARK    5  A    between atoms: C_8  and  C_9
REMARK    6  A    between atoms: N_16  and  C_17
REMARK    7  A    between atoms: C_17  and  C_18
REMARK                            x       y       z     vdW  Elec       q    Type
REMARK                         _______ _______ _______ _____ _____    ______ ____
ROOT
ATOM      1  C   UNL     1      44.954   5.111  12.427  0.00  0.00    +0.000 A 
ATOM      2  N   UNL     1      45.712   5.285  13.492  0.00  0.00    +0.000 NA
ATOM      3  C   UNL     1      46.829   5.968  13.101  0.00  0.00    +0.000 A 
ATOM      4  C   UNL     1      47.934   6.356  13.860  0.00  0.00    +0.000 A 
ATOM      5  C   UNL     1      48.932   7.017  13.163  0.00  0.00    +0.000 A 
ATOM      6  N   UNL     1      48.882   7.305  11.833  0.00  0.00    +0.000 NA
ATOM      7  C   UNL     1      47.794   6.937  11.109  0.00  0.00    +0.000 A 
ATOM      8  C   UNL     1      46.763   6.260  11.748  0.00  0.00    +0.000 A 
ATOM      9  N   UNL     1      45.544   5.745  11.332  0.00  0.00    +0.000 N 
ENDROOT
BRANCH   4  10
ATOM     10  C   UNL     1      48.044   6.073  15.298  0.00  0.00    +0.000 C 
ATOM     11  N   UNL     1      47.482   4.913  15.755  0.00  0.00    +0.000 N 
ATOM     12  O   UNL     1      48.616   6.844  16.055  0.00  0.00    +0.000 OA
ATOM     13  H   UNL     1      47.014   4.270  15.116  0.00  0.00    +0.000 HD
ATOM     14  H   UNL     1      47.535   4.681  16.736  0.00  0.00    +0.000 HD
ENDBRANCH   4  10
BRANCH   1  16
ATOM     15  C   UNL     1      42.615   4.938  11.549  0.00  0.00    +0.000 C 
ATOM     16  C   UNL     1      43.656   4.310  12.526  0.00  0.00    +0.000 C 
ATOM     17  C   UNL     1      43.029   4.403  13.924  0.00  0.00    +0.000 C 
ATOM     18  C   UNL     1      43.845   2.856  12.083  0.00  0.00    +0.000 C 
ENDBRANCH   1  16
BRANCH   9  19
ATOM     19  C   UNL     1      45.091   5.811   9.943  0.00  0.00    +0.000 C 
BRANCH  19  20
ATOM     20  C   UNL     1      45.427   4.618   9.070  0.00  0.00    +0.000 A 
ATOM     21  C   UNL     1      44.960   3.317   9.304  0.00  0.00    +0.000 A 
ATOM     22  C   UNL     1      45.481   2.234   8.590  0.00  0.00    +0.000 A 
ATOM     23  C   UNL     1      46.446   2.437   7.607  0.00  0.00    +0.000 A 
ATOM     24  C   UNL     1      46.852   3.730   7.295  0.00  0.00    +0.000 A 
ATOM     25  C   UNL     1      46.340   4.812   8.015  0.00  0.00    +0.000 A 
ENDBRANCH  19  20
ENDBRANCH   9  19
TORSDOF 4
ENDMDL
MODEL 6
REMARK VINA RESULT:    -5.218      3.058      5.232
REMARK INTER + INTRA:          -7.556
REMARK INTER:                  -6.326
REMARK INTRA:                  -1.231
REMARK UNBOUND:                -1.118
REMARK  Name = 
REMARK  7 active torsions:
REMARK  status: ('A' for Active; 'I' for Inactive)
REMARK    1  A    between atoms: C_1  and  C_2
REMARK    2  A    between atoms: C_2  and  C_3
REMARK    3  A    between atoms: C_2  and  C_4
REMARK    4  A    between atoms: C_2  and  C_5
REMARK    5  A    between atoms: C_8  and  C_9
REMARK    6  A    between atoms: N_16  and  C_17
REMARK    7  A    between atoms: C_17  and  C_18
REMARK                            x       y       z     vdW  Elec       q    Type
REMARK                         _______ _______ _______ _____ _____    ______ ____
ROOT
ATOM      1  C   UNL     1      49.541   7.558  14.298  0.00  0.00    +0.000 A 
ATOM      2  N   UNL     1      49.002   6.450  14.769  0.00  0.00    +0.000 NA
ATOM      3  C   UNL     1      48.018   6.065  13.903  0.00  0.00    +0.000 A 
ATOM      4  C   UNL     1      47.147   4.978  13.987  0.00  0.00    +0.000 A 
ATOM      5  C   UNL     1      46.228   4.870  12.957  0.00  0.00    +0.000 A 
ATOM      6  N   UNL     1      46.148   5.730  11.904  0.00  0.00    +0.000 NA
ATOM      7  C   UNL     1      47.011   6.774  11.824  0.00  0.00    +0.000 A 
ATOM      8  C   UNL     1      47.951   6.944  12.834  0.00  0.00    +0.000 A 
ATOM      9  N   UNL     1      48.953   7.872  13.073  0.00  0.00    +0.000 N 
ENDROOT
BRANCH   4  10
ATOM     10  C   UNL     1      47.187   4.017  15.099  0.00  0.00    +0.000 C 
ATOM     11  N   UNL     1      46.747   4.450  16.319  0.00  0.00    +0.000 N 
ATOM     12  O   UNL     1      47.596   2.877  14.938  0.00  0.00    +0.000 OA
ATOM     13  H   UNL     1      46.399   5.401  16.444  0.00  0.00    +0.000 HD
ATOM     14  H   UNL     1      46.758   3.822  17.110  0.00  0.00    +0.000 HD
ENDBRANCH   4  10
BRANCH   1  16
ATOM     15  C   UNL     1      50.765   7.596  16.483  0.00  0.00    +0.000 C 
ATOM     16  C   UNL     1      50.632   8.280  15.088  0.00  0.00    +0.000 C 
ATOM     17  C   UNL     1      50.262   9.743  15.372  0.00  0.00    +0.000 C 
ATOM     18  C   UNL     1      52.002   8.161  14.413  0.00  0.00    +0.000 C 
ENDBRANCH   1  16
BRANCH   9  19
ATOM     19  C   UNL     1      49.203   9.010  12.187  0.00  0.00    +0.000 C 
BRANCH  19  20
ATOM     20  C   UNL     1      50.430   8.915  11.303  0.00  0.00    +0.000 A 
ATOM     21  C   UNL     1      50.973   7.708  10.839  0.00  0.00    +0.000 A 
ATOM     22  C   UNL     1      52.221   7.683  10.211  0.00  0.00    +0.000 A 
ATOM     23  C   UNL     1      52.929   8.865  10.002  0.00  0.00    +0.000 A 
ATOM     24  C   UNL     1      52.363  10.081  10.369  0.00  0.00    +0.000 A 
ATOM     25  C   UNL     1      51.121  10.107  11.006  0.00  0.00    +0.000 A 
ENDBRANCH  19  20
ENDBRANCH   9  19
TORSDOF 4
ENDMDL
MODEL 7
REMARK VINA RESULT:    -5.187      1.822      2.690
REMARK INTER + INTRA:          -7.517
REMARK INTER:                  -6.969
REMARK INTRA:                  -0.548
REMARK UNBOUND:                -1.118
REMARK  Name = 
REMARK  7 active torsions:
REMARK  status: ('A' for Active; 'I' for Inactive)
REMARK    1  A    between atoms: C_1  and  C_2
REMARK    2  A    between atoms: C_2  and  C_3
REMARK    3  A    between atoms: C_2  and  C_4
REMARK    4  A    between atoms: C_2  and  C_5
REMARK    5  A    between atoms: C_8  and  C_9
REMARK    6  A    between atoms: N_16  and  C_17
REMARK    7  A    between atoms: C_17  and  C_18
REMARK                            x       y       z     vdW  Elec       q    Type
REMARK                         _______ _______ _______ _____ _____    ______ ____
ROOT
ATOM      1  C   UNL     1      48.012   4.657  16.286  0.00  0.00    +0.000 A 
ATOM      2  N   UNL     1      47.222   4.196  15.336  0.00  0.00    +0.000 NA
ATOM      3  C   UNL     1      47.156   5.144  14.354  0.00  0.00    +0.000 A 
ATOM      4  C   UNL     1      46.424   5.131  13.166  0.00  0.00    +0.000 A 
ATOM      5  C   UNL     1      46.542   6.266  12.381  0.00  0.00    +0.000 A 
ATOM      6  N   UNL     1      47.316   7.341  12.695  0.00  0.00    +0.000 NA
ATOM      7  C   UNL     1      48.036   7.336  13.844  0.00  0.00    +0.000 A 
ATOM      8  C   UNL     1      47.952   6.229  14.681  0.00  0.00    +0.000 A 
ATOM      9  N   UNL     1      48.527   5.894  15.898  0.00  0.00    +0.000 N 
ENDROOT
BRANCH   4  10
ATOM     10  C   UNL     1      45.572   3.998  12.775  0.00  0.00    +0.000 C 
ATOM     11  N   UNL     1      44.334   4.289  12.271  0.00  0.00    +0.000 N 
ATOM     12  O   UNL     1      45.956   2.844  12.893  0.00  0.00    +0.000 OA
ATOM     13  H   UNL     1      44.023   5.255  12.167  0.00  0.00    +0.000 HD
ATOM     14  H   UNL     1      43.717   3.540  11.991  0.00  0.00    +0.000 HD
ENDBRANCH   4  10
BRANCH   1  16
ATOM     15  C   UNL     1      49.624   3.155  17.476  0.00  0.00    +0.000 C 
ATOM     16  C   UNL     1      48.230   3.850  17.565  0.00  0.00    +0.000 C 
ATOM     17  C   UNL     1      47.205   2.718  17.713  0.00  0.00    +0.000 C 
ATOM     18  C   UNL     1      48.272   4.745  18.808  0.00  0.00    +0.000 C 
ENDBRANCH   1  16
BRANCH   9  19
ATOM     19  C   UNL     1      49.424   6.795  16.623  0.00  0.00    +0.000 C 
BRANCH  19  20
ATOM     20  C   UNL     1      50.896   6.697  16.277  0.00  0.00    +0.000 A 
ATOM     21  C   UNL     1      51.798   5.834  16.917  0.00  0.00    +0.000 A 
ATOM     22  C   UNL     1      53.174   5.950  16.698  0.00  0.00    +0.000 A 
ATOM     23  C   UNL     1      53.667   6.903  15.809  0.00  0.00    +0.000 A 
ATOM     24  C   UNL     1      52.782   7.703  15.094  0.00  0.00    +0.000 A 
ATOM     25  C   UNL     1      51.408   7.595  15.320  0.00  0.00    +0.000 A 
ENDBRANCH  19  20
ENDBRANCH   9  19
TORSDOF 4
ENDMDL
MODEL 8
REMARK VINA RESULT:    -5.090      2.530      4.009
REMARK INTER + INTRA:          -7.398
REMARK INTER:                  -6.283
REMARK INTRA:                  -1.114
REMARK UNBOUND:                -1.118
REMARK  Name = 
REMARK  7 active torsions:
REMARK  status: ('A' for Active; 'I' for Inactive)
REMARK    1  A    between atoms: C_1  and  C_2
REMARK    2  A    between atoms: C_2  and  C_3
REMARK    3  A    between atoms: C_2  and  C_4
REMARK    4  A    between atoms: C_2  and  C_5
REMARK    5  A    between atoms: C_8  and  C_9
REMARK    6  A    between atoms: N_16  and  C_17
REMARK    7  A    between atoms: C_17  and  C_18
REMARK                            x       y       z     vdW  Elec       q    Type
REMARK                         _______ _______ _______ _____ _____    ______ ____
ROOT
ATOM      1  C   UNL     1      48.195   7.060  14.416  0.00  0.00    +0.000 A 
ATOM      2  N   UNL     1      47.703   5.859  14.178  0.00  0.00    +0.000 NA
ATOM      3  C   UNL     1      46.785   5.976  13.174  0.00  0.00    +0.000 A 
ATOM      4  C   UNL     1      45.979   4.992  12.599  0.00  0.00    +0.000 A 
ATOM      5  C   UNL     1      45.116   5.433  11.609  0.00  0.00    +0.000 A 
ATOM      6  N   UNL     1      45.031   6.722  11.180  0.00  0.00    +0.000 NA
ATOM      7  C   UNL     1      45.832   7.667  11.735  0.00  0.00    +0.000 A 
ATOM      8  C   UNL     1      46.713   7.290  12.741  0.00  0.00    +0.000 A 
ATOM      9  N   UNL     1      47.645   7.970  13.512  0.00  0.00    +0.000 N 
ENDROOT
BRANCH   4  10
ATOM     10  C   UNL     1      46.027   3.585  13.021  0.00  0.00    +0.000 C 
ATOM     11  N   UNL     1      47.085   3.198  13.796  0.00  0.00    +0.000 N 
ATOM     12  O   UNL     1      45.155   2.794  12.693  0.00  0.00    +0.000 OA
ATOM     13  H   UNL     1      47.805   3.866  14.073  0.00  0.00    +0.000 HD
ATOM     14  H   UNL     1      47.157   2.239  14.107  0.00  0.00    +0.000 HD
ENDBRANCH   4  10
BRANCH   1  16
ATOM     15  C   UNL     1      49.228   5.986  16.428  0.00  0.00    +0.000 C 
ATOM     16  C   UNL     1      49.202   7.271  15.545  0.00  0.00    +0.000 C 
ATOM     17  C   UNL     1      48.785   8.415  16.480  0.00  0.00    +0.000 C 
ATOM     18  C   UNL     1      50.627   7.461  15.014  0.00  0.00    +0.000 C 
ENDBRANCH   1  16
BRANCH   9  19
ATOM     19  C   UNL     1      47.865   9.411  13.396  0.00  0.00    +0.000 C 
BRANCH  19  20
ATOM     20  C   UNL     1      49.151   9.842  12.719  0.00  0.00    +0.000 A 
ATOM     21  C   UNL     1      49.669   9.241  11.563  0.00  0.00    +0.000 A 
ATOM     22  C   UNL     1      50.960   9.544  11.120  0.00  0.00    +0.000 A 
ATOM     23  C   UNL     1      51.738  10.477  11.801  0.00  0.00    +0.000 A 
ATOM     24  C   UNL     1      51.205  11.153  12.894  0.00  0.00    +0.000 A 
ATOM     25  C   UNL     1      49.919  10.844  13.344  0.00  0.00    +0.000 A 
ENDBRANCH  19  20
ENDBRANCH   9  19
TORSDOF 4
ENDMDL
MODEL 9
REMARK VINA RESULT:    -5.086      2.643      6.438
REMARK INTER + INTRA:          -7.393
REMARK INTER:                  -6.382
REMARK INTRA:                  -1.012
REMARK UNBOUND:                -1.118
REMARK  Name = 
REMARK  7 active torsions:
REMARK  status: ('A' for Active; 'I' for Inactive)
REMARK    1  A    between atoms: C_1  and  C_2
REMARK    2  A    between atoms: C_2  and  C_3
REMARK    3  A    between atoms: C_2  and  C_4
REMARK    4  A    between atoms: C_2  and  C_5
REMARK    5  A    between atoms: C_8  and  C_9
REMARK    6  A    between atoms: N_16  and  C_17
REMARK    7  A    between atoms: C_17  and  C_18
REMARK                            x       y       z     vdW  Elec       q    Type
REMARK                         _______ _______ _______ _____ _____    ______ ____
ROOT
ATOM      1  C   UNL     1      47.872   6.889  13.935  0.00  0.00    +0.000 A 
ATOM      2  N   UNL     1      48.301   7.007  15.177  0.00  0.00    +0.000 NA
ATOM      3  C   UNL     1      48.064   5.822  15.813  0.00  0.00    +0.000 A 
ATOM      4  C   UNL     1      48.312   5.472  17.141  0.00  0.00    +0.000 A 
ATOM      5  C   UNL     1      47.929   4.190  17.500  0.00  0.00    +0.000 A 
ATOM      6  N   UNL     1      47.360   3.290  16.651  0.00  0.00    +0.000 NA
ATOM      7  C   UNL     1      47.139   3.637  15.358  0.00  0.00    +0.000 A 
ATOM      8  C   UNL     1      47.492   4.914  14.938  0.00  0.00    +0.000 A 
ATOM      9  N   UNL     1      47.408   5.589  13.729  0.00  0.00    +0.000 N 
ENDROOT
BRANCH   4  10
ATOM     10  C   UNL     1      48.924   6.400  18.103  0.00  0.00    +0.000 C 
ATOM     11  N   UNL     1      48.477   7.692  18.100  0.00  0.00    +0.000 N 
ATOM     12  O   UNL     1      49.796   6.030  18.875  0.00  0.00    +0.000 OA
ATOM     13  H   UNL     1      47.742   7.992  17.458  0.00  0.00    +0.000 HD
ATOM     14  H   UNL     1      48.872   8.363  18.744  0.00  0.00    +0.000 HD
ENDBRANCH   4  10
BRANCH   1  16
ATOM     15  C   UNL     1      46.477   8.582  12.727  0.00  0.00    +0.000 C 
ATOM     16  C   UNL     1      47.932   8.082  12.981  0.00  0.00    +0.000 C 
ATOM     17  C   UNL     1      48.487   7.689  11.605  0.00  0.00    +0.000 C 
ATOM     18  C   UNL     1      48.697   9.262  13.587  0.00  0.00    +0.000 C 
ENDBRANCH   1  16
BRANCH   9  19
ATOM     19  C   UNL     1      46.822   4.992  12.529  0.00  0.00    +0.000 C 
BRANCH  19  20
ATOM     20  C   UNL     1      45.338   5.220  12.323  0.00  0.00    +0.000 A 
ATOM     21  C   UNL     1      44.378   5.116  13.340  0.00  0.00    +0.000 A 
ATOM     22  C   UNL     1      43.013   5.126  13.036  0.00  0.00    +0.000 A 
ATOM     23  C   UNL     1      42.586   5.278  11.719  0.00  0.00    +0.000 A 
ATOM     24  C   UNL     1      43.522   5.478  10.709  0.00  0.00    +0.000 A 
ATOM     25  C   UNL     1      44.885   5.457  11.010  0.00  0.00    +0.000 A 
ENDBRANCH  19  20
ENDBRANCH   9  19
TORSDOF 4
ENDMDL
