MODEL 1
REMARK VINA RESULT:    -8.798      0.000      0.000
REMARK INTER + INTRA:         -11.902
REMARK INTER:                 -11.370
REMARK INTRA:                  -0.532
REMARK UNBOUND:                -0.532
REMARK  Name = 
REMARK  6 active torsions:
REMARK  status: ('A' for Active; 'I' for Inactive)
REMARK    1  A    between atoms: C_1  and  C_2
REMARK    2  A    between atoms: C_5  and  C_6
REMARK    3  A    between atoms: C_6  and  N_7
REMARK    4  A    between atoms: C_11  and  C_12
REMARK    5  A    between atoms: C_12  and  N_13
REMARK    6  A    between atoms: C_14  and  C_16
REMARK                            x       y       z     vdW  Elec       q    Type
REMARK                         _______ _______ _______ _____ _____    ______ ____
ROOT
ATOM      1  N   UNL     1      43.635   4.230  10.634  0.00  0.00    +0.000 N 
ATOM      2  C   UNL     1      44.581   5.094  11.221  0.00  0.00    +0.000 A 
ATOM      3  C   UNL     1      44.435   6.465  11.030  0.00  0.00    +0.000 A 
ATOM      4  C   UNL     1      45.323   7.347  11.652  0.00  0.00    +0.000 A 
ATOM      5  C   UNL     1      46.297   6.851  12.517  0.00  0.00    +0.000 A 
ATOM      6  C   UNL     1      46.360   5.473  12.657  0.00  0.00    +0.000 A 
ATOM      7  N   UNL     1      45.539   4.599  12.027  0.00  0.00    +0.000 NA
ATOM      8  H   UNL     1      42.845   4.195  11.280  0.00  0.00    +0.000 HD
ENDROOT
BRANCH   1   9
ATOM      9  C   UNL     1      44.161   2.873  10.438  0.00  0.00    +0.000 C 
BRANCH   9  14
ATOM     10  C   UNL     1      47.579   2.412   5.802  0.00  0.00    +0.000 C 
ATOM     11  C   UNL     1      46.684   2.587   6.986  0.00  0.00    +0.000 A 
ATOM     12  C   UNL     1      46.051   3.797   7.264  0.00  0.00    +0.000 A 
ATOM     13  C   UNL     1      45.224   3.905   8.383  0.00  0.00    +0.000 A 
ATOM     14  C   UNL     1      45.040   2.792   9.200  0.00  0.00    +0.000 A 
ATOM     15  N   UNL     1      45.651   1.606   8.948  0.00  0.00    +0.000 NA
ATOM     16  C   UNL     1      46.453   1.533   7.861  0.00  0.00    +0.000 A 
ENDBRANCH   9  14
ENDBRANCH   1   9
BRANCH   5  17
ATOM     17  C   UNL     1      47.248   7.750  13.254  0.00  0.00    +0.000 C 
BRANCH  17  18
ATOM     18  N   UNL     1      47.541   7.245  14.569  0.00  0.00    +0.000 N 
ATOM     19  C   UNL     1      48.818   6.898  14.941  0.00  0.00    +0.000 C 
ATOM     20  O   UNL     1      49.777   7.042  14.191  0.00  0.00    +0.000 OA
ATOM     21  H   UNL     1      46.759   6.882  15.105  0.00  0.00    +0.000 HD
BRANCH  19  22
ATOM     22  C   UNL     1      48.980   6.400  16.314  0.00  0.00    +0.000 A 
ATOM     23  C   UNL     1      49.603   7.192  17.272  0.00  0.00    +0.000 A 
ATOM     24  S   UNL     1      49.677   6.466  18.814  0.00  0.00    +0.000 S 
ATOM     25  C   UNL     1      48.926   5.050  18.244  0.00  0.00    +0.000 A 
ATOM     26  N   UNL     1      48.712   3.989  19.069  0.00  0.00    +0.000 NA
ATOM     27  C   UNL     1      48.148   2.977  18.500  0.00  0.00    +0.000 A 
ATOM     28  N   UNL     1      47.771   2.927  17.184  0.00  0.00    +0.000 N 
ATOM     29  C   UNL     1      47.942   3.984  16.320  0.00  0.00    +0.000 A 
ATOM     30  O   UNL     1      47.549   3.925  15.161  0.00  0.00    +0.000 OA
ATOM     31  C   UNL     1      48.592   5.142  16.905  0.00  0.00    +0.000 A 
ATOM     32  H   UNL     1      47.318   2.111  16.803  0.00  0.00    +0.000 HD
ENDBRANCH  19  22
ENDBRANCH  17  18
ENDBRANCH   5  17
TORSDOF 5
ENDMDL
MODEL 2
REMARK VINA RESULT:    -8.473      1.714      2.241
REMARK INTER + INTRA:         -11.481
REMARK INTER:                 -10.911
REMARK INTRA:                  -0.571
REMARK UNBOUND:                -0.532
REMARK  Name = 
REMARK  6 active torsions:
REMARK  status: ('A' for Active; 'I' for Inactive)
REMARK    1  A    between atoms: C_1  and  C_2
REMARK    2  A    between atoms: C_5  and  C_6
REMARK    3  A    between atoms: C_6  and  N_7
REMARK    4  A    between atoms: C_11  and  C_12
REMARK    5  A    between atoms: C_12  and  N_13
REMARK    6  A    between atoms: C_14  and  C_16
REMARK                            x       y       z     vdW  Elec       q    Type
REMARK                         _______ _______ _______ _____ _____    ______ ____
ROOT
ATOM      1  N   UNL     1      43.778   5.120  10.555  0.00  0.00    +0.000 N 
ATOM      2  C   UNL     1      44.875   5.577  11.312  0.00  0.00    +0.000 A 
ATOM      3  C   UNL     1      45.279   6.901  11.161  0.00  0.00    +0.000 A 
ATOM      4  C   UNL     1      46.324   7.398  11.945  0.00  0.00    +0.000 A 
ATOM      5  C   UNL     1      46.899   6.587  12.923  0.00  0.00    +0.000 A 
ATOM      6  C   UNL     1      46.425   5.287  13.010  0.00  0.00    +0.000 A 
ATOM      7  N   UNL     1      45.446   4.773  12.228  0.00  0.00    +0.000 NA
ATOM      8  H   UNL     1      42.942   5.392  11.075  0.00  0.00    +0.000 HD
ENDROOT
BRANCH   1   9
ATOM      9  C   UNL     1      43.787   3.662  10.380  0.00  0.00    +0.000 C 
BRANCH   9  14
ATOM     10  C   UNL     1      47.532   1.905   6.346  0.00  0.00    +0.000 C 
ATOM     11  C   UNL     1      46.564   2.413   7.366  0.00  0.00    +0.000 A 
ATOM     12  C   UNL     1      46.146   3.742   7.391  0.00  0.00    +0.000 A 
ATOM     13  C   UNL     1      45.240   4.164   8.365  0.00  0.00    +0.000 A 
ATOM     14  C   UNL     1      44.762   3.240   9.293  0.00  0.00    +0.000 A 
ATOM     15  N   UNL     1      45.161   1.941   9.285  0.00  0.00    +0.000 NA
ATOM     16  C   UNL     1      46.047   1.564   8.336  0.00  0.00    +0.000 A 
ENDBRANCH   9  14
ENDBRANCH   1   9
BRANCH   5  17
ATOM     17  C   UNL     1      47.991   7.077  13.830  0.00  0.00    +0.000 C 
BRANCH  17  18
ATOM     18  N   UNL     1      47.903   6.479  15.134  0.00  0.00    +0.000 N 
ATOM     19  C   UNL     1      49.016   6.288  15.918  0.00  0.00    +0.000 C 
ATOM     20  O   UNL     1      50.131   6.657  15.568  0.00  0.00    +0.000 OA
ATOM     21  H   UNL     1      47.064   5.944  15.338  0.00  0.00    +0.000 HD
BRANCH  19  22
ATOM     22  C   UNL     1      48.786   5.669  17.231  0.00  0.00    +0.000 A 
ATOM     23  C   UNL     1      48.995   4.305  17.404  0.00  0.00    +0.000 A 
ATOM     24  S   UNL     1      48.708   3.767  18.997  0.00  0.00    +0.000 S 
ATOM     25  C   UNL     1      48.246   5.325  19.499  0.00  0.00    +0.000 A 
ATOM     26  N   UNL     1      47.838   5.558  20.776  0.00  0.00    +0.000 NA
ATOM     27  C   UNL     1      47.502   6.782  21.014  0.00  0.00    +0.000 A 
ATOM     28  N   UNL     1      47.541   7.797  20.095  0.00  0.00    +0.000 N 
ATOM     29  C   UNL     1      47.970   7.615  18.801  0.00  0.00    +0.000 A 
ATOM     30  O   UNL     1      48.040   8.555  18.018  0.00  0.00    +0.000 OA
ATOM     31  C   UNL     1      48.342   6.250  18.476  0.00  0.00    +0.000 A 
ATOM     32  H   UNL     1      47.281   8.738  20.349  0.00  0.00    +0.000 HD
ENDBRANCH  19  22
ENDBRANCH  17  18
ENDBRANCH   5  17
TORSDOF 5
ENDMDL
MODEL 3
REMARK VINA RESULT:    -8.434      2.019      3.218
REMARK INTER + INTRA:         -11.431
REMARK INTER:                 -10.567
REMARK INTRA:                  -0.864
REMARK UNBOUND:                -0.532
REMARK  Name = 
REMARK  6 active torsions:
REMARK  status: ('A' for Active; 'I' for Inactive)
REMARK    1  A    between atoms: C_1  and  C_2
REMARK    2  A    between atoms: C_5  and  C_6
REMARK    3  A    between atoms: C_6  and  N_7
REMARK    4  A    between atoms: C_11  and  C_12
REMARK    5  A    between atoms: C_12  and  N_13
REMARK    6  A    between atoms: C_14  and  C_16
REMARK                            x       y       z     vdW  Elec       q    Type
REMARK                         _______ _______ _______ _____ _____    ______ ____
ROOT
ATOM      1  N   UNL     1      44.666   5.672  10.403  0.00  0.00    +0.000 N 
ATOM      2  C   UNL     1      45.347   5.188  11.537  0.00  0.00    +0.000 A 
ATOM      3  C   UNL     1      46.366   5.966  12.080  0.00  0.00    +0.000 A 
ATOM      4  C   UNL     1      47.015   5.540  13.242  0.00  0.00    +0.000 A 
ATOM      5  C   UNL     1      46.587   4.380  13.887  0.00  0.00    +0.000 A 
ATOM      6  C   UNL     1      45.558   3.676  13.281  0.00  0.00    +0.000 A 
ATOM      7  N   UNL     1      44.947   4.048  12.131  0.00  0.00    +0.000 NA
ATOM      8  H   UNL     1      43.942   6.301  10.754  0.00  0.00    +0.000 HD
ENDROOT
BRANCH   1   9
ATOM      9  C   UNL     1      44.036   4.596   9.626  0.00  0.00    +0.000 C 
BRANCH   9  14
ATOM     10  C   UNL     1      47.960   1.820   6.418  0.00  0.00    +0.000 C 
ATOM     11  C   UNL     1      46.929   2.487   7.271  0.00  0.00    +0.000 A 
ATOM     12  C   UNL     1      46.098   1.766   8.127  0.00  0.00    +0.000 A 
ATOM     13  C   UNL     1      45.153   2.439   8.902  0.00  0.00    +0.000 A 
ATOM     14  C   UNL     1      45.064   3.826   8.811  0.00  0.00    +0.000 A 
ATOM     15  N   UNL     1      45.863   4.545   7.980  0.00  0.00    +0.000 NA
ATOM     16  C   UNL     1      46.764   3.866   7.234  0.00  0.00    +0.000 A 
ENDBRANCH   9  14
ENDBRANCH   1   9
BRANCH   5  17
ATOM     17  C   UNL     1      47.211   3.896  15.164  0.00  0.00    +0.000 C 
BRANCH  17  18
ATOM     18  N   UNL     1      47.522   4.988  16.047  0.00  0.00    +0.000 N 
ATOM     19  C   UNL     1      47.815   4.782  17.375  0.00  0.00    +0.000 C 
ATOM     20  O   UNL     1      47.869   3.659  17.864  0.00  0.00    +0.000 OA
ATOM     21  H   UNL     1      47.240   5.916  15.747  0.00  0.00    +0.000 HD
BRANCH  19  22
ATOM     22  C   UNL     1      48.119   5.982  18.165  0.00  0.00    +0.000 A 
ATOM     23  C   UNL     1      47.350   6.294  19.281  0.00  0.00    +0.000 A 
ATOM     24  S   UNL     1      47.865   7.703  20.092  0.00  0.00    +0.000 S 
ATOM     25  C   UNL     1      49.100   7.975  18.954  0.00  0.00    +0.000 A 
ATOM     26  N   UNL     1      49.913   9.062  19.047  0.00  0.00    +0.000 NA
ATOM     27  C   UNL     1      50.794   9.151  18.108  0.00  0.00    +0.000 A 
ATOM     28  N   UNL     1      50.944   8.249  17.086  0.00  0.00    +0.000 N 
ATOM     29  C   UNL     1      50.163   7.123  16.967  0.00  0.00    +0.000 A 
ATOM     30  O   UNL     1      50.356   6.311  16.070  0.00  0.00    +0.000 OA
ATOM     31  C   UNL     1      49.141   6.986  17.988  0.00  0.00    +0.000 A 
ATOM     32  H   UNL     1      51.665   8.366  16.392  0.00  0.00    +0.000 HD
ENDBRANCH  19  22
ENDBRANCH  17  18
ENDBRANCH   5  17
TORSDOF 5
ENDMDL
MODEL 4
REMARK VINA RESULT:    -8.080      3.641      4.590
REMARK INTER + INTRA:         -10.974
REMARK INTER:                 -10.191
REMARK INTRA:                  -0.783
REMARK UNBOUND:                -0.532
REMARK  Name = 
REMARK  6 active torsions:
REMARK  status: ('A' for Active; 'I' for Inactive)
REMARK    1  A    between atoms: C_1  and  C_2
REMARK    2  A    between atoms: C_5  and  C_6
REMARK    3  A    between atoms: C_6  and  N_7
REMARK    4  A    between atoms: C_11  and  C_12
REMARK    5  A    between atoms: C_12  and  N_13
REMARK    6  A    between atoms: C_14  and  C_16
REMARK                            x       y       z     vdW  Elec       q    Type
REMARK                         _______ _______ _______ _____ _____    ______ ____
ROOT
ATOM      1  N   UNL     1      45.096   2.857  11.216  0.00  0.00    +0.000 N 
ATOM      2  C   UNL     1      45.132   4.200  11.641  0.00  0.00    +0.000 A 
ATOM      3  C   UNL     1      45.370   4.462  12.988  0.00  0.00    +0.000 A 
ATOM      4  C   UNL     1      45.474   5.785  13.426  0.00  0.00    +0.000 A 
ATOM      5  C   UNL     1      45.415   6.826  12.500  0.00  0.00    +0.000 A 
ATOM      6  C   UNL     1      45.188   6.471  11.179  0.00  0.00    +0.000 A 
ATOM      7  N   UNL     1      45.038   5.197  10.742  0.00  0.00    +0.000 NA
ATOM      8  H   UNL     1      46.066   2.584  11.055  0.00  0.00    +0.000 HD
ENDROOT
BRANCH   1   9
ATOM      9  C   UNL     1      44.332   2.685   9.973  0.00  0.00    +0.000 C 
BRANCH   9  14
ATOM     10  C   UNL     1      47.911   2.100   5.473  0.00  0.00    +0.000 C 
ATOM     11  C   UNL     1      46.972   2.305   6.619  0.00  0.00    +0.000 A 
ATOM     12  C   UNL     1      46.292   3.506   6.812  0.00  0.00    +0.000 A 
ATOM     13  C   UNL     1      45.427   3.644   7.898  0.00  0.00    +0.000 A 
ATOM     14  C   UNL     1      45.253   2.570   8.768  0.00  0.00    +0.000 A 
ATOM     15  N   UNL     1      45.910   1.393   8.598  0.00  0.00    +0.000 NA
ATOM     16  C   UNL     1      46.749   1.291   7.542  0.00  0.00    +0.000 A 
ENDBRANCH   9  14
ENDBRANCH   1   9
BRANCH   5  17
ATOM     17  C   UNL     1      45.569   8.265  12.901  0.00  0.00    +0.000 C 
BRANCH  17  18
ATOM     18  N   UNL     1      46.871   8.772  12.560  0.00  0.00    +0.000 N 
ATOM     19  C   UNL     1      47.782   9.131  13.525  0.00  0.00    +0.000 C 
ATOM     20  O   UNL     1      47.551   8.996  14.721  0.00  0.00    +0.000 OA
ATOM     21  H   UNL     1      46.992   9.128  11.617  0.00  0.00    +0.000 HD
BRANCH  19  22
ATOM     22  C   UNL     1      49.076   9.630  13.041  0.00  0.00    +0.000 A 
ATOM     23  C   UNL     1      49.444  10.950  13.276  0.00  0.00    +0.000 A 
ATOM     24  S   UNL     1      50.989  11.346  12.670  0.00  0.00    +0.000 S 
ATOM     25  C   UNL     1      51.199   9.784  12.029  0.00  0.00    +0.000 A 
ATOM     26  N   UNL     1      52.323   9.455  11.336  0.00  0.00    +0.000 NA
ATOM     27  C   UNL     1      52.341   8.243  10.894  0.00  0.00    +0.000 A 
ATOM     28  N   UNL     1      51.342   7.324  11.084  0.00  0.00    +0.000 N 
ATOM     29  C   UNL     1      50.201   7.603  11.799  0.00  0.00    +0.000 A 
ATOM     30  O   UNL     1      49.349   6.744  11.993  0.00  0.00    +0.000 OA
ATOM     31  C   UNL     1      50.121   8.962  12.303  0.00  0.00    +0.000 A 
ATOM     32  H   UNL     1      51.425   6.385  10.727  0.00  0.00    +0.000 HD
ENDBRANCH  19  22
ENDBRANCH  17  18
ENDBRANCH   5  17
TORSDOF 5
ENDMDL
MODEL 5
REMARK VINA RESULT:    -7.711      3.365      8.610
REMARK INTER + INTRA:         -10.497
REMARK INTER:                  -9.665
REMARK INTRA:                  -0.832
REMARK UNBOUND:                -0.532
REMARK  Name = 
REMARK  6 active torsions:
REMARK  status: ('A' for Active; 'I' for Inactive)
REMARK    1  A    between atoms: C_1  and  C_2
REMARK    2  A    between atoms: C_5  and  C_6
REMARK    3  A    between atoms: C_6  and  N_7
REMARK    4  A    between atoms: C_11  and  C_12
REMARK    5  A    between atoms: C_12  and  N_13
REMARK    6  A    between atoms: C_14  and  C_16
REMARK                            x       y       z     vdW  Elec       q    Type
REMARK                         _______ _______ _______ _____ _____    ______ ____
ROOT
ATOM      1  N   UNL     1      50.979   6.826  16.492  0.00  0.00    +0.000 N 
ATOM      2  C   UNL     1      50.034   7.075  15.476  0.00  0.00    +0.000 A 
ATOM      3  C   UNL     1      50.222   8.183  14.654  0.00  0.00    +0.000 A 
ATOM      4  C   UNL     1      49.337   8.418  13.598  0.00  0.00    +0.000 A 
ATOM      5  C   UNL     1      48.321   7.501  13.333  0.00  0.00    +0.000 A 
ATOM      6  C   UNL     1      48.217   6.420  14.196  0.00  0.00    +0.000 A 
ATOM      7  N   UNL     1      49.037   6.200  15.251  0.00  0.00    +0.000 NA
ATOM      8  H   UNL     1      51.744   6.316  16.049  0.00  0.00    +0.000 HD
ENDROOT
BRANCH   1   9
ATOM      9  C   UNL     1      50.425   6.014  17.584  0.00  0.00    +0.000 C 
BRANCH   9  14
ATOM     10  C   UNL     1      52.646   0.681  17.713  0.00  0.00    +0.000 C 
ATOM     11  C   UNL     1      52.122   2.081  17.699  0.00  0.00    +0.000 A 
ATOM     12  C   UNL     1      52.896   3.165  18.111  0.00  0.00    +0.000 A 
ATOM     13  C   UNL     1      52.359   4.452  18.077  0.00  0.00    +0.000 A 
ATOM     14  C   UNL     1      51.054   4.631  17.621  0.00  0.00    +0.000 A 
ATOM     15  N   UNL     1      50.284   3.587  17.219  0.00  0.00    +0.000 NA
ATOM     16  C   UNL     1      50.828   2.350  17.272  0.00  0.00    +0.000 A 
ENDBRANCH   9  14
ENDBRANCH   1   9
BRANCH   5  17
ATOM     17  C   UNL     1      47.368   7.670  12.184  0.00  0.00    +0.000 C 
BRANCH  17  18
ATOM     18  N   UNL     1      46.691   6.440  11.873  0.00  0.00    +0.000 N 
ATOM     19  C   UNL     1      45.330   6.392  11.687  0.00  0.00    +0.000 C 
ATOM     20  O   UNL     1      44.629   7.397  11.732  0.00  0.00    +0.000 OA
ATOM     21  H   UNL     1      47.188   5.579  12.079  0.00  0.00    +0.000 HD
BRANCH  19  22
ATOM     22  C   UNL     1      44.765   5.073  11.370  0.00  0.00    +0.000 A 
ATOM     23  C   UNL     1      43.989   4.405  12.310  0.00  0.00    +0.000 A 
ATOM     24  S   UNL     1      43.393   2.904  11.760  0.00  0.00    +0.000 S 
ATOM     25  C   UNL     1      44.193   3.070  10.268  0.00  0.00    +0.000 A 
ATOM     26  N   UNL     1      44.125   2.094   9.322  0.00  0.00    +0.000 NA
ATOM     27  C   UNL     1      44.792   2.346   8.246  0.00  0.00    +0.000 A 
ATOM     28  N   UNL     1      45.517   3.487   8.023  0.00  0.00    +0.000 N 
ATOM     29  C   UNL     1      45.594   4.511   8.938  0.00  0.00    +0.000 A 
ATOM     30  O   UNL     1      46.211   5.539   8.687  0.00  0.00    +0.000 OA
ATOM     31  C   UNL     1      44.876   4.269  10.176  0.00  0.00    +0.000 A 
ATOM     32  H   UNL     1      46.003   3.632   7.152  0.00  0.00    +0.000 HD
ENDBRANCH  19  22
ENDBRANCH  17  18
ENDBRANCH   5  17
TORSDOF 5
ENDMDL
MODEL 6
REMARK VINA RESULT:    -7.185      3.646      9.016
REMARK INTER + INTRA:          -9.817
REMARK INTER:                  -9.495
REMARK INTRA:                  -0.323
REMARK UNBOUND:                -0.532
REMARK  Name = 
REMARK  6 active torsions:
REMARK  status: ('A' for Active; 'I' for Inactive)
REMARK    1  A    between atoms: C_1  and  C_2
REMARK    2  A    between atoms: C_5  and  C_6
REMARK    3  A    between atoms: C_6  and  N_7
REMARK    4  A    between atoms: C_11  and  C_12
REMARK    5  A    between atoms: C_12  and  N_13
REMARK    6  A    between atoms: C_14  and  C_16
REMARK                            x       y       z     vdW  Elec       q    Type
REMARK                         _______ _______ _______ _____ _____    ______ ____
ROOT
ATOM      1  N   UNL     1      47.872   5.853  15.264  0.00  0.00    +0.000 N 
ATOM      2  C   UNL     1      46.983   5.662  14.187  0.00  0.00    +0.000 A 
ATOM      3  C   UNL     1      46.827   6.695  13.267  0.00  0.00    +0.000 A 
ATOM      4  C   UNL     1      46.001   6.510  12.155  0.00  0.00    +0.000 A 
ATOM      5  C   UNL     1      45.402   5.270  11.939  0.00  0.00    +0.000 A 
ATOM      6  C   UNL     1      45.623   4.296  12.902  0.00  0.00    +0.000 A 
ATOM      7  N   UNL     1      46.383   4.471  14.009  0.00  0.00    +0.000 NA
ATOM      8  H   UNL     1      48.801   5.621  14.909  0.00  0.00    +0.000 HD
ENDROOT
BRANCH   1   9
ATOM      9  C   UNL     1      47.561   4.985  16.407  0.00  0.00    +0.000 C 
BRANCH   9  14
ATOM     10  C   UNL     1      52.152   1.740  17.742  0.00  0.00    +0.000 C 
ATOM     11  C   UNL     1      50.934   2.531  17.388  0.00  0.00    +0.000 A 
ATOM     12  C   UNL     1      49.740   1.920  17.006  0.00  0.00    +0.000 A 
ATOM     13  C   UNL     1      48.632   2.705  16.687  0.00  0.00    +0.000 A 
ATOM     14  C   UNL     1      48.739   4.092  16.764  0.00  0.00    +0.000 A 
ATOM     15  N   UNL     1      49.894   4.706  17.130  0.00  0.00    +0.000 NA
ATOM     16  C   UNL     1      50.954   3.919  17.425  0.00  0.00    +0.000 A 
ENDBRANCH   9  14
ENDBRANCH   1   9
BRANCH   5  17
ATOM     17  C   UNL     1      44.543   4.992  10.739  0.00  0.00    +0.000 C 
BRANCH  17  18
ATOM     18  N   UNL     1      45.199   4.108   9.813  0.00  0.00    +0.000 N 
ATOM     19  C   UNL     1      44.809   2.798   9.666  0.00  0.00    +0.000 C 
ATOM     20  O   UNL     1      43.858   2.327  10.280  0.00  0.00    +0.000 OA
ATOM     21  H   UNL     1      46.122   4.383   9.492  0.00  0.00    +0.000 HD
BRANCH  19  22
ATOM     22  C   UNL     1      45.560   2.005   8.683  0.00  0.00    +0.000 A 
ATOM     23  C   UNL     1      45.490   0.617   8.710  0.00  0.00    +0.000 A 
ATOM     24  S   UNL     1      46.400  -0.137   7.479  0.00  0.00    +0.000 S 
ATOM     25  C   UNL     1      46.960   1.362   6.899  0.00  0.00    +0.000 A 
ATOM     26  N   UNL     1      47.825   1.430   5.852  0.00  0.00    +0.000 NA
ATOM     27  C   UNL     1      48.178   2.628   5.528  0.00  0.00    +0.000 A 
ATOM     28  N   UNL     1      47.741   3.768   6.150  0.00  0.00    +0.000 N 
ATOM     29  C   UNL     1      46.847   3.751   7.195  0.00  0.00    +0.000 A 
ATOM     30  O   UNL     1      46.438   4.791   7.697  0.00  0.00    +0.000 OA
ATOM     31  C   UNL     1      46.433   2.423   7.612  0.00  0.00    +0.000 A 
ATOM     32  H   UNL     1      48.042   4.679   5.838  0.00  0.00    +0.000 HD
ENDBRANCH  19  22
ENDBRANCH  17  18
ENDBRANCH   5  17
TORSDOF 5
ENDMDL
MODEL 7
REMARK VINA RESULT:    -7.108      1.692      2.317
REMARK INTER + INTRA:          -9.718
REMARK INTER:                  -8.925
REMARK INTRA:                  -0.793
REMARK UNBOUND:                -0.532
REMARK  Name = 
REMARK  6 active torsions:
REMARK  status: ('A' for Active; 'I' for Inactive)
REMARK    1  A    between atoms: C_1  and  C_2
REMARK    2  A    between atoms: C_5  and  C_6
REMARK    3  A    between atoms: C_6  and  N_7
REMARK    4  A    between atoms: C_11  and  C_12
REMARK    5  A    between atoms: C_12  and  N_13
REMARK    6  A    between atoms: C_14  and  C_16
REMARK                            x       y       z     vdW  Elec       q    Type
REMARK                         _______ _______ _______ _____ _____    ______ ____
ROOT
ATOM      1  N   UNL     1      43.578   5.843  12.727  0.00  0.00    +0.000 N 
ATOM      2  C   UNL     1      44.935   6.161  12.936  0.00  0.00    +0.000 A 
ATOM      3  C   UNL     1      45.344   7.477  12.742  0.00  0.00    +0.000 A 
ATOM      4  C   UNL     1      46.670   7.834  13.003  0.00  0.00    +0.000 A 
ATOM      5  C   UNL     1      47.549   6.887  13.527  0.00  0.00    +0.000 A 
ATOM      6  C   UNL     1      47.051   5.604  13.699  0.00  0.00    +0.000 A 
ATOM      7  N   UNL     1      45.783   5.228  13.409  0.00  0.00    +0.000 NA
ATOM      8  H   UNL     1      43.094   6.078  13.595  0.00  0.00    +0.000 HD
ENDROOT
BRANCH   1   9
ATOM      9  C   UNL     1      43.376   4.418  12.431  0.00  0.00    +0.000 C 
BRANCH   9  14
ATOM     10  C   UNL     1      45.508   3.106   7.223  0.00  0.00    +0.000 C 
ATOM     11  C   UNL     1      44.984   3.399   8.592  0.00  0.00    +0.000 A 
ATOM     12  C   UNL     1      45.257   2.573   9.681  0.00  0.00    +0.000 A 
ATOM     13  C   UNL     1      44.743   2.893  10.939  0.00  0.00    +0.000 A 
ATOM     14  C   UNL     1      43.969   4.043  11.082  0.00  0.00    +0.000 A 
ATOM     15  N   UNL     1      43.689   4.858  10.032  0.00  0.00    +0.000 NA
ATOM     16  C   UNL     1      44.193   4.517   8.824  0.00  0.00    +0.000 A 
ENDBRANCH   9  14
ENDBRANCH   1   9
BRANCH   5  17
ATOM     17  C   UNL     1      48.971   7.220  13.875  0.00  0.00    +0.000 C 
BRANCH  17  18
ATOM     18  N   UNL     1      49.252   6.956  15.260  0.00  0.00    +0.000 N 
ATOM     19  C   UNL     1      48.891   7.837  16.251  0.00  0.00    +0.000 C 
ATOM     20  O   UNL     1      48.272   8.869  16.013  0.00  0.00    +0.000 OA
ATOM     21  H   UNL     1      49.967   6.262  15.459  0.00  0.00    +0.000 HD
BRANCH  19  22
ATOM     22  C   UNL     1      49.234   7.445  17.625  0.00  0.00    +0.000 A 
ATOM     23  C   UNL     1      50.037   8.270  18.404  0.00  0.00    +0.000 A 
ATOM     24  S   UNL     1      50.306   7.671  19.978  0.00  0.00    +0.000 S 
ATOM     25  C   UNL     1      49.402   6.265  19.658  0.00  0.00    +0.000 A 
ATOM     26  N   UNL     1      49.261   5.292  20.599  0.00  0.00    +0.000 NA
ATOM     27  C   UNL     1      48.565   4.276  20.215  0.00  0.00    +0.000 A 
ATOM     28  N   UNL     1      47.989   4.143  18.979  0.00  0.00    +0.000 N 
ATOM     29  C   UNL     1      48.082   5.111  18.006  0.00  0.00    +0.000 A 
ATOM     30  O   UNL     1      47.514   4.983  16.928  0.00  0.00    +0.000 OA
ATOM     31  C   UNL     1      48.874   6.268  18.380  0.00  0.00    +0.000 A 
ATOM     32  H   UNL     1      47.440   3.330  18.745  0.00  0.00    +0.000 HD
ENDBRANCH  19  22
ENDBRANCH  17  18
ENDBRANCH   5  17
TORSDOF 5
ENDMDL
MODEL 8
REMARK VINA RESULT:    -6.659      4.819      7.722
REMARK INTER + INTRA:          -9.138
REMARK INTER:                  -8.318
REMARK INTRA:                  -0.819
REMARK UNBOUND:                -0.532
REMARK  Name = 
REMARK  6 active torsions:
REMARK  status: ('A' for Active; 'I' for Inactive)
REMARK    1  A    between atoms: C_1  and  C_2
REMARK    2  A    between atoms: C_5  and  C_6
REMARK    3  A    between atoms: C_6  and  N_7
REMARK    4  A    between atoms: C_11  and  C_12
REMARK    5  A    between atoms: C_12  and  N_13
REMARK    6  A    between atoms: C_14  and  C_16
REMARK                            x       y       z     vdW  Elec       q    Type
REMARK                         _______ _______ _______ _____ _____    ______ ____
ROOT
ATOM      1  N   UNL     1      51.868   8.909  12.232  0.00  0.00    +0.000 N 
ATOM      2  C   UNL     1      50.489   8.661  12.378  0.00  0.00    +0.000 A 
ATOM      3  C   UNL     1      50.084   7.676  13.274  0.00  0.00    +0.000 A 
ATOM      4  C   UNL     1      48.721   7.452  13.487  0.00  0.00    +0.000 A 
ATOM      5  C   UNL     1      47.782   8.268  12.857  0.00  0.00    +0.000 A 
ATOM      6  C   UNL     1      48.276   9.232  11.991  0.00  0.00    +0.000 A 
ATOM      7  N   UNL     1      49.591   9.433  11.737  0.00  0.00    +0.000 NA
ATOM      8  H   UNL     1      52.123   9.548  12.986  0.00  0.00    +0.000 HD
ENDROOT
BRANCH   1   9
ATOM      9  C   UNL     1      52.191   9.530  10.940  0.00  0.00    +0.000 C 
BRANCH   9  14
ATOM     10  C   UNL     1      53.851   5.708   6.937  0.00  0.00    +0.000 C 
ATOM     11  C   UNL     1      53.422   6.654   8.012  0.00  0.00    +0.000 A 
ATOM     12  C   UNL     1      53.193   6.232   9.321  0.00  0.00    +0.000 A 
ATOM     13  C   UNL     1      52.794   7.157  10.287  0.00  0.00    +0.000 A 
ATOM     14  C   UNL     1      52.641   8.493   9.923  0.00  0.00    +0.000 A 
ATOM     15  N   UNL     1      52.857   8.923   8.653  0.00  0.00    +0.000 NA
ATOM     16  C   UNL     1      53.234   8.002   7.736  0.00  0.00    +0.000 A 
ENDBRANCH   9  14
ENDBRANCH   1   9
BRANCH   5  17
ATOM     17  C   UNL     1      46.305   8.111  13.081  0.00  0.00    +0.000 C 
BRANCH  17  18
ATOM     18  N   UNL     1      45.852   6.796  12.716  0.00  0.00    +0.000 N 
ATOM     19  C   UNL     1      44.895   6.605  11.748  0.00  0.00    +0.000 C 
ATOM     20  O   UNL     1      44.412   7.537  11.115  0.00  0.00    +0.000 OA
ATOM     21  H   UNL     1      46.034   6.048  13.378  0.00  0.00    +0.000 HD
BRANCH  19  22
ATOM     22  C   UNL     1      44.524   5.211  11.469  0.00  0.00    +0.000 A 
ATOM     23  C   UNL     1      43.755   4.500  12.383  0.00  0.00    +0.000 A 
ATOM     24  S   UNL     1      43.397   2.909  11.882  0.00  0.00    +0.000 S 
ATOM     25  C   UNL     1      44.299   3.097  10.452  0.00  0.00    +0.000 A 
ATOM     26  N   UNL     1      44.433   2.072   9.567  0.00  0.00    +0.000 NA
ATOM     27  C   UNL     1      45.157   2.350   8.535  0.00  0.00    +0.000 A 
ATOM     28  N   UNL     1      45.755   3.560   8.300  0.00  0.00    +0.000 N 
ATOM     29  C   UNL     1      45.627   4.632   9.152  0.00  0.00    +0.000 A 
ATOM     30  O   UNL     1      46.134   5.715   8.889  0.00  0.00    +0.000 OA
ATOM     31  C   UNL     1      44.837   4.366  10.341  0.00  0.00    +0.000 A 
ATOM     32  H   UNL     1      46.296   3.719   7.464  0.00  0.00    +0.000 HD
ENDBRANCH  19  22
ENDBRANCH  17  18
ENDBRANCH   5  17
TORSDOF 5
ENDMDL
MODEL 9
REMARK VINA RESULT:    -6.008      4.329      6.013
REMARK INTER + INTRA:          -8.296
REMARK INTER:                  -7.155
REMARK INTRA:                  -1.140
REMARK UNBOUND:                -0.532
REMARK  Name = 
REMARK  6 active torsions:
REMARK  status: ('A' for Active; 'I' for Inactive)
REMARK    1  A    between atoms: C_1  and  C_2
REMARK    2  A    between atoms: C_5  and  C_6
REMARK    3  A    between atoms: C_6  and  N_7
REMARK    4  A    between atoms: C_11  and  C_12
REMARK    5  A    between atoms: C_12  and  N_13
REMARK    6  A    between atoms: C_14  and  C_16
REMARK                            x       y       z     vdW  Elec       q    Type
REMARK                         _______ _______ _______ _____ _____    ______ ____
ROOT
ATOM      1  N   UNL     1      44.887   7.924  12.509  0.00  0.00    +0.000 N 
ATOM      2  C   UNL     1      46.118   8.558  12.772  0.00  0.00    +0.000 A 
ATOM      3  C   UNL     1      46.392   9.764  12.133  0.00  0.00    +0.000 A 
ATOM      4  C   UNL     1      47.576  10.446  12.423  0.00  0.00    +0.000 A 
ATOM      5  C   UNL     1      48.434   9.952  13.405  0.00  0.00    +0.000 A 
ATOM      6  C   UNL     1      48.074   8.752  13.999  0.00  0.00    +0.000 A 
ATOM      7  N   UNL     1      46.954   8.052  13.697  0.00  0.00    +0.000 NA
ATOM      8  H   UNL     1      44.204   8.361  13.129  0.00  0.00    +0.000 HD
ENDROOT
BRANCH   1   9
ATOM      9  C   UNL     1      44.932   6.480  12.779  0.00  0.00    +0.000 C 
BRANCH   9  14
ATOM     10  C   UNL     1      44.758   3.286   7.967  0.00  0.00    +0.000 C 
ATOM     11  C   UNL     1      44.847   4.143   9.188  0.00  0.00    +0.000 A 
ATOM     12  C   UNL     1      45.798   5.154   9.316  0.00  0.00    +0.000 A 
ATOM     13  C   UNL     1      45.837   5.926  10.478  0.00  0.00    +0.000 A 
ATOM     14  C   UNL     1      44.913   5.674  11.490  0.00  0.00    +0.000 A 
ATOM     15  N   UNL     1      43.981   4.691  11.386  0.00  0.00    +0.000 NA
ATOM     16  C   UNL     1      43.973   3.954  10.252  0.00  0.00    +0.000 A 
ENDBRANCH   9  14
ENDBRANCH   1   9
BRANCH   5  17
ATOM     17  C   UNL     1      49.697  10.664  13.798  0.00  0.00    +0.000 C 
BRANCH  17  18
ATOM     18  N   UNL     1      50.825  10.196  13.040  0.00  0.00    +0.000 N 
ATOM     19  C   UNL     1      51.759   9.346  13.584  0.00  0.00    +0.000 C 
ATOM     20  O   UNL     1      51.656   8.909  14.725  0.00  0.00    +0.000 OA
ATOM     21  H   UNL     1      51.071  10.726  12.210  0.00  0.00    +0.000 HD
BRANCH  19  22
ATOM     22  C   UNL     1      52.861   8.942  12.700  0.00  0.00    +0.000 A 
ATOM     23  C   UNL     1      54.171   9.274  13.024  0.00  0.00    +0.000 A 
ATOM     24  S   UNL     1      55.319   8.699  11.901  0.00  0.00    +0.000 S 
ATOM     25  C   UNL     1      54.103   8.029  10.918  0.00  0.00    +0.000 A 
ATOM     26  N   UNL     1      54.412   7.402   9.750  0.00  0.00    +0.000 NA
ATOM     27  C   UNL     1      53.391   6.957   9.098  0.00  0.00    +0.000 A 
ATOM     28  N   UNL     1      52.088   7.073   9.507  0.00  0.00    +0.000 N 
ATOM     29  C   UNL     1      51.730   7.675  10.691  0.00  0.00    +0.000 A 
ATOM     30  O   UNL     1      50.561   7.719  11.052  0.00  0.00    +0.000 OA
ATOM     31  C   UNL     1      52.842   8.212  11.455  0.00  0.00    +0.000 A 
ATOM     32  H   UNL     1      51.335   6.687   8.959  0.00  0.00    +0.000 HD
ENDBRANCH  19  22
ENDBRANCH  17  18
ENDBRANCH   5  17
TORSDOF 5
ENDMDL
