MODEL 1
REMARK VINA RESULT:    -8.525      0.000      0.000
REMARK INTER + INTRA:         -11.435
REMARK INTER:                 -11.017
REMARK INTRA:                  -0.419
REMARK UNBOUND:                -0.419
REMARK  Name = 
REMARK  5 active torsions:
REMARK  status: ('A' for Active; 'I' for Inactive)
REMARK    1  A    between atoms: C_2  and  C_19
REMARK    2  A    between atoms: N_3  and  C_4
REMARK    3  A    between atoms: C_4  and  C_5
REMARK    4  A    between atoms: C_8  and  C_9
REMARK    5  A    between atoms: C_9  and  N_10
REMARK                            x       y       z     vdW  Elec       q    Type
REMARK                         _______ _______ _______ _____ _____    ______ ____
ROOT
ATOM      1  C   UNL     1      45.421   4.815  13.815  0.00  0.00    +0.000 C 
ENDROOT
BRANCH   1   2
ATOM      2  C   UNL     1      45.987   4.287  12.482  0.00  0.00    +0.000 C 
ATOM      3  C   UNL     1      45.261   3.033  11.969  0.00  0.00    +0.000 C 
ATOM      4  C   UNL     1      43.846   3.322  11.468  0.00  0.00    +0.000 C 
ATOM      5  C   UNL     1      43.779   4.467  10.439  0.00  0.00    +0.000 C 
ATOM      6  C   UNL     1      44.528   5.708  10.957  0.00  0.00    +0.000 C 
ATOM      7  C   UNL     1      45.954   5.389  11.415  0.00  0.00    +0.000 C 
BRANCH   5   8
ATOM      8  C   UNL     1      44.320   4.081   9.048  0.00  0.00    +0.000 C 
BRANCH   8   9
ATOM      9  N   UNL     1      44.589   2.647   8.958  0.00  0.00    +0.000 N 
ATOM     10  C   UNL     1      45.739   2.344   8.198  0.00  0.00    +0.000 A 
ATOM     11  C   UNL     1      46.105   1.019   8.061  0.00  0.00    +0.000 A 
ATOM     12  C   UNL     1      47.250   0.764   7.340  0.00  0.00    +0.000 A 
ATOM     13  N   UNL     1      48.001   1.722   6.774  0.00  0.00    +0.000 NA
ATOM     14  C   UNL     1      47.566   2.973   6.968  0.00  0.00    +0.000 A 
ATOM     15  N   UNL     1      46.473   3.331   7.658  0.00  0.00    +0.000 NA
ATOM     16  H   UNL     1      43.799   2.126   8.583  0.00  0.00    +0.000 HD
ENDBRANCH   8   9
ENDBRANCH   5   8
ENDBRANCH   1   2
BRANCH   1  19
ATOM     17  O   UNL     1      47.407   3.067  14.811  0.00  0.00    +0.000 OA
ATOM     18  C   UNL     1      47.335   4.213  15.237  0.00  0.00    +0.000 C 
ATOM     19  N   UNL     1      46.462   5.168  14.751  0.00  0.00    +0.000 N 
ATOM     20  H   UNL     1      46.315   5.993  15.314  0.00  0.00    +0.000 HD
BRANCH  18  21
ATOM     21  C   UNL     1      48.011   4.655  16.449  0.00  0.00    +0.000 A 
ATOM     22  C   UNL     1      47.930   3.952  17.640  0.00  0.00    +0.000 A 
ATOM     23  S   UNL     1      48.441   4.894  18.978  0.00  0.00    +0.000 S 
ATOM     24  C   UNL     1      48.859   6.205  17.969  0.00  0.00    +0.000 A 
ATOM     25  N   UNL     1      49.243   7.410  18.463  0.00  0.00    +0.000 NA
ATOM     26  C   UNL     1      49.569   8.275  17.557  0.00  0.00    +0.000 A 
ATOM     27  N   UNL     1      49.596   8.027  16.206  0.00  0.00    +0.000 N 
ATOM     28  C   UNL     1      49.250   6.811  15.663  0.00  0.00    +0.000 A 
ATOM     29  O   UNL     1      49.383   6.573  14.471  0.00  0.00    +0.000 OA
ATOM     30  C   UNL     1      48.744   5.868  16.637  0.00  0.00    +0.000 A 
ATOM     31  H   UNL     1      49.952   8.714  15.559  0.00  0.00    +0.000 HD
ENDBRANCH  18  21
ENDBRANCH   1  19
TORSDOF 5
ENDMDL
MODEL 2
REMARK VINA RESULT:    -8.372      3.497      4.261
REMARK INTER + INTRA:         -11.238
REMARK INTER:                 -11.008
REMARK INTRA:                  -0.230
REMARK UNBOUND:                -0.419
REMARK  Name = 
REMARK  5 active torsions:
REMARK  status: ('A' for Active; 'I' for Inactive)
REMARK    1  A    between atoms: C_2  and  C_19
REMARK    2  A    between atoms: N_3  and  C_4
REMARK    3  A    between atoms: C_4  and  C_5
REMARK    4  A    between atoms: C_8  and  C_9
REMARK    5  A    between atoms: C_9  and  N_10
REMARK                            x       y       z     vdW  Elec       q    Type
REMARK                         _______ _______ _______ _____ _____    ______ ____
ROOT
ATOM      1  C   UNL     1      45.333   5.924  13.174  0.00  0.00    +0.000 C 
ENDROOT
BRANCH   1   2
ATOM      2  C   UNL     1      45.941   4.856  12.244  0.00  0.00    +0.000 C 
ATOM      3  C   UNL     1      45.475   3.428  12.572  0.00  0.00    +0.000 C 
ATOM      4  C   UNL     1      44.011   3.178  12.209  0.00  0.00    +0.000 C 
ATOM      5  C   UNL     1      43.661   3.559  10.759  0.00  0.00    +0.000 C 
ATOM      6  C   UNL     1      44.153   4.983  10.438  0.00  0.00    +0.000 C 
ATOM      7  C   UNL     1      45.631   5.188  10.778  0.00  0.00    +0.000 C 
BRANCH   5   8
ATOM      8  C   UNL     1      44.213   2.575   9.710  0.00  0.00    +0.000 C 
BRANCH   8   9
ATOM      9  N   UNL     1      44.662   3.272   8.506  0.00  0.00    +0.000 N 
ATOM     10  C   UNL     1      45.710   2.604   7.835  0.00  0.00    +0.000 A 
ATOM     11  C   UNL     1      46.202   3.159   6.670  0.00  0.00    +0.000 A 
ATOM     12  C   UNL     1      47.201   2.463   6.027  0.00  0.00    +0.000 A 
ATOM     13  N   UNL     1      47.708   1.303   6.476  0.00  0.00    +0.000 NA
ATOM     14  C   UNL     1      47.160   0.846   7.608  0.00  0.00    +0.000 A 
ATOM     15  N   UNL     1      46.181   1.438   8.308  0.00  0.00    +0.000 NA
ATOM     16  H   UNL     1      44.949   4.229   8.694  0.00  0.00    +0.000 HD
ENDBRANCH   8   9
ENDBRANCH   5   8
ENDBRANCH   1   2
BRANCH   1  19
ATOM     17  O   UNL     1      45.156   8.229  11.547  0.00  0.00    +0.000 OA
ATOM     18  C   UNL     1      46.051   8.138  12.379  0.00  0.00    +0.000 C 
ATOM     19  N   UNL     1      46.168   7.097  13.281  0.00  0.00    +0.000 N 
ATOM     20  H   UNL     1      47.052   6.991  13.756  0.00  0.00    +0.000 HD
BRANCH  18  21
ATOM     21  C   UNL     1      47.222   9.003  12.386  0.00  0.00    +0.000 A 
ATOM     22  C   UNL     1      47.123  10.383  12.461  0.00  0.00    +0.000 A 
ATOM     23  S   UNL     1      48.588  11.157  12.023  0.00  0.00    +0.000 S 
ATOM     24  C   UNL     1      49.385   9.662  11.824  0.00  0.00    +0.000 A 
ATOM     25  N   UNL     1      50.645   9.570  11.323  0.00  0.00    +0.000 NA
ATOM     26  C   UNL     1      51.113   8.364  11.285  0.00  0.00    +0.000 A 
ATOM     27  N   UNL     1      50.458   7.250  11.751  0.00  0.00    +0.000 N 
ATOM     28  C   UNL     1      49.196   7.300  12.298  0.00  0.00    +0.000 A 
ATOM     29  O   UNL     1      48.671   6.320  12.806  0.00  0.00    +0.000 OA
ATOM     30  C   UNL     1      48.588   8.612  12.225  0.00  0.00    +0.000 A 
ATOM     31  H   UNL     1      50.916   6.352  11.781  0.00  0.00    +0.000 HD
ENDBRANCH  18  21
ENDBRANCH   1  19
TORSDOF 5
ENDMDL
MODEL 3
REMARK VINA RESULT:    -8.270      1.608      2.548
REMARK INTER + INTRA:         -11.106
REMARK INTER:                 -10.963
REMARK INTRA:                  -0.143
REMARK UNBOUND:                -0.419
REMARK  Name = 
REMARK  5 active torsions:
REMARK  status: ('A' for Active; 'I' for Inactive)
REMARK    1  A    between atoms: C_2  and  C_19
REMARK    2  A    between atoms: N_3  and  C_4
REMARK    3  A    between atoms: C_4  and  C_5
REMARK    4  A    between atoms: C_8  and  C_9
REMARK    5  A    between atoms: C_9  and  N_10
REMARK                            x       y       z     vdW  Elec       q    Type
REMARK                         _______ _______ _______ _____ _____    ______ ____
ROOT
ATOM      1  C   UNL     1      45.650   6.322  12.904  0.00  0.00    +0.000 C 
ENDROOT
BRANCH   1   2
ATOM      2  C   UNL     1      46.190   5.190  12.007  0.00  0.00    +0.000 C 
ATOM      3  C   UNL     1      45.640   3.803  12.382  0.00  0.00    +0.000 C 
ATOM      4  C   UNL     1      44.163   3.629  12.031  0.00  0.00    +0.000 C 
ATOM      5  C   UNL     1      43.830   3.985  10.569  0.00  0.00    +0.000 C 
ATOM      6  C   UNL     1      44.405   5.365  10.201  0.00  0.00    +0.000 C 
ATOM      7  C   UNL     1      45.895   5.492  10.532  0.00  0.00    +0.000 C 
BRANCH   5   8
ATOM      8  C   UNL     1      44.318   2.936   9.551  0.00  0.00    +0.000 C 
BRANCH   8   9
ATOM      9  N   UNL     1      44.857   3.567   8.348  0.00  0.00    +0.000 N 
ATOM     10  C   UNL     1      45.858   2.798   7.716  0.00  0.00    +0.000 A 
ATOM     11  C   UNL     1      46.426   3.286   6.556  0.00  0.00    +0.000 A 
ATOM     12  C   UNL     1      47.376   2.494   5.951  0.00  0.00    +0.000 A 
ATOM     13  N   UNL     1      47.768   1.303   6.433  0.00  0.00    +0.000 NA
ATOM     14  C   UNL     1      47.155   0.917   7.558  0.00  0.00    +0.000 A 
ATOM     15  N   UNL     1      46.214   1.605   8.221  0.00  0.00    +0.000 NA
ATOM     16  H   UNL     1      45.221   4.500   8.527  0.00  0.00    +0.000 HD
ENDBRANCH   8   9
ENDBRANCH   5   8
ENDBRANCH   1   2
BRANCH   1  19
ATOM     17  O   UNL     1      48.465   6.068  12.926  0.00  0.00    +0.000 OA
ATOM     18  C   UNL     1      47.870   6.348  13.960  0.00  0.00    +0.000 C 
ATOM     19  N   UNL     1      46.510   6.583  14.033  0.00  0.00    +0.000 N 
ATOM     20  H   UNL     1      46.085   6.572  14.948  0.00  0.00    +0.000 HD
BRANCH  18  21
ATOM     21  C   UNL     1      48.483   6.263  15.278  0.00  0.00    +0.000 A 
ATOM     22  C   UNL     1      49.331   7.243  15.766  0.00  0.00    +0.000 A 
ATOM     23  S   UNL     1      50.230   6.700  17.120  0.00  0.00    +0.000 S 
ATOM     24  C   UNL     1      49.428   5.195  17.121  0.00  0.00    +0.000 A 
ATOM     25  N   UNL     1      49.796   4.175  17.940  0.00  0.00    +0.000 NA
ATOM     26  C   UNL     1      49.050   3.122  17.843  0.00  0.00    +0.000 A 
ATOM     27  N   UNL     1      47.939   3.015  17.041  0.00  0.00    +0.000 N 
ATOM     28  C   UNL     1      47.509   4.034  16.222  0.00  0.00    +0.000 A 
ATOM     29  O   UNL     1      46.460   3.964  15.598  0.00  0.00    +0.000 OA
ATOM     30  C   UNL     1      48.403   5.173  16.201  0.00  0.00    +0.000 A 
ATOM     31  H   UNL     1      47.345   2.202  17.083  0.00  0.00    +0.000 HD
ENDBRANCH  18  21
ENDBRANCH   1  19
TORSDOF 5
ENDMDL
MODEL 4
REMARK VINA RESULT:    -8.237      1.985      2.476
REMARK INTER + INTRA:         -11.064
REMARK INTER:                 -10.543
REMARK INTRA:                  -0.521
REMARK UNBOUND:                -0.419
REMARK  Name = 
REMARK  5 active torsions:
REMARK  status: ('A' for Active; 'I' for Inactive)
REMARK    1  A    between atoms: C_2  and  C_19
REMARK    2  A    between atoms: N_3  and  C_4
REMARK    3  A    between atoms: C_4  and  C_5
REMARK    4  A    between atoms: C_8  and  C_9
REMARK    5  A    between atoms: C_9  and  N_10
REMARK                            x       y       z     vdW  Elec       q    Type
REMARK                         _______ _______ _______ _____ _____    ______ ____
ROOT
ATOM      1  C   UNL     1      46.117   5.125  14.221  0.00  0.00    +0.000 C 
ENDROOT
BRANCH   1   2
ATOM      2  C   UNL     1      46.373   4.667  12.771  0.00  0.00    +0.000 C 
ATOM      3  C   UNL     1      45.660   3.351  12.416  0.00  0.00    +0.000 C 
ATOM      4  C   UNL     1      44.144   3.504  12.297  0.00  0.00    +0.000 C 
ATOM      5  C   UNL     1      43.711   4.645  11.356  0.00  0.00    +0.000 C 
ATOM      6  C   UNL     1      44.449   5.950  11.710  0.00  0.00    +0.000 C 
ATOM      7  C   UNL     1      45.967   5.769  11.784  0.00  0.00    +0.000 C 
BRANCH   5   8
ATOM      8  C   UNL     1      43.916   4.327   9.862  0.00  0.00    +0.000 C 
BRANCH   8   9
ATOM      9  N   UNL     1      44.323   2.937   9.663  0.00  0.00    +0.000 N 
ATOM     10  C   UNL     1      45.352   2.791   8.707  0.00  0.00    +0.000 A 
ATOM     11  C   UNL     1      45.834   1.523   8.450  0.00  0.00    +0.000 A 
ATOM     12  C   UNL     1      46.858   1.422   7.535  0.00  0.00    +0.000 A 
ATOM     13  N   UNL     1      47.388   2.477   6.894  0.00  0.00    +0.000 NA
ATOM     14  C   UNL     1      46.856   3.662   7.216  0.00  0.00    +0.000 A 
ATOM     15  N   UNL     1      45.866   3.871   8.096  0.00  0.00    +0.000 NA
ATOM     16  H   UNL     1      43.544   2.336   9.404  0.00  0.00    +0.000 HD
ENDBRANCH   8   9
ENDBRANCH   5   8
ENDBRANCH   1   2
BRANCH   1  19
ATOM     17  O   UNL     1      46.554   3.652  16.593  0.00  0.00    +0.000 OA
ATOM     18  C   UNL     1      47.403   4.444  16.203  0.00  0.00    +0.000 C 
ATOM     19  N   UNL     1      47.324   5.142  15.011  0.00  0.00    +0.000 N 
ATOM     20  H   UNL     1      47.942   5.931  14.893  0.00  0.00    +0.000 HD
BRANCH  18  21
ATOM     21  C   UNL     1      48.500   4.912  17.039  0.00  0.00    +0.000 A 
ATOM     22  C   UNL     1      48.601   6.226  17.463  0.00  0.00    +0.000 A 
ATOM     23  S   UNL     1      50.168   6.594  18.050  0.00  0.00    +0.000 S 
ATOM     24  C   UNL     1      50.690   4.985  17.831  0.00  0.00    +0.000 A 
ATOM     25  N   UNL     1      51.984   4.609  18.008  0.00  0.00    +0.000 NA
ATOM     26  C   UNL     1      52.194   3.342  17.847  0.00  0.00    +0.000 A 
ATOM     27  N   UNL     1      51.221   2.411  17.577  0.00  0.00    +0.000 N 
ATOM     28  C   UNL     1      49.894   2.740  17.424  0.00  0.00    +0.000 A 
ATOM     29  O   UNL     1      49.026   1.889  17.293  0.00  0.00    +0.000 OA
ATOM     30  C   UNL     1      49.647   4.166  17.458  0.00  0.00    +0.000 A 
ATOM     31  H   UNL     1      51.436   1.425  17.558  0.00  0.00    +0.000 HD
ENDBRANCH  18  21
ENDBRANCH   1  19
TORSDOF 5
ENDMDL
MODEL 5
REMARK VINA RESULT:    -7.816      1.918      2.659
REMARK INTER + INTRA:         -10.519
REMARK INTER:                 -10.253
REMARK INTRA:                  -0.266
REMARK UNBOUND:                -0.419
REMARK  Name = 
REMARK  5 active torsions:
REMARK  status: ('A' for Active; 'I' for Inactive)
REMARK    1  A    between atoms: C_2  and  C_19
REMARK    2  A    between atoms: N_3  and  C_4
REMARK    3  A    between atoms: C_4  and  C_5
REMARK    4  A    between atoms: C_8  and  C_9
REMARK    5  A    between atoms: C_9  and  N_10
REMARK                            x       y       z     vdW  Elec       q    Type
REMARK                         _______ _______ _______ _____ _____    ______ ____
ROOT
ATOM      1  C   UNL     1      44.358   5.887  13.088  0.00  0.00    +0.000 C 
ENDROOT
BRANCH   1   2
ATOM      2  C   UNL     1      44.039   5.758  11.586  0.00  0.00    +0.000 C 
ATOM      3  C   UNL     1      45.268   5.402  10.733  0.00  0.00    +0.000 C 
ATOM      4  C   UNL     1      45.747   3.965  10.943  0.00  0.00    +0.000 C 
ATOM      5  C   UNL     1      44.633   2.913  10.785  0.00  0.00    +0.000 C 
ATOM      6  C   UNL     1      43.401   3.295  11.627  0.00  0.00    +0.000 C 
ATOM      7  C   UNL     1      42.926   4.727  11.364  0.00  0.00    +0.000 C 
BRANCH   5   8
ATOM      8  C   UNL     1      44.204   2.682   9.322  0.00  0.00    +0.000 C 
BRANCH   8   9
ATOM      9  N   UNL     1      45.004   3.483   8.397  0.00  0.00    +0.000 N 
ATOM     10  C   UNL     1      46.052   2.756   7.793  0.00  0.00    +0.000 A 
ATOM     11  C   UNL     1      46.862   3.405   6.883  0.00  0.00    +0.000 A 
ATOM     12  C   UNL     1      47.854   2.655   6.291  0.00  0.00    +0.000 A 
ATOM     13  N   UNL     1      48.064   1.356   6.560  0.00  0.00    +0.000 NA
ATOM     14  C   UNL     1      47.223   0.818   7.451  0.00  0.00    +0.000 A 
ATOM     15  N   UNL     1      46.223   1.454   8.078  0.00  0.00    +0.000 NA
ATOM     16  H   UNL     1      45.390   4.316   8.837  0.00  0.00    +0.000 HD
ENDBRANCH   8   9
ENDBRANCH   5   8
ENDBRANCH   1   2
BRANCH   1  19
ATOM     17  O   UNL     1      46.295   4.194  14.261  0.00  0.00    +0.000 OA
ATOM     18  C   UNL     1      46.584   5.351  13.985  0.00  0.00    +0.000 C 
ATOM     19  N   UNL     1      45.740   6.227  13.328  0.00  0.00    +0.000 N 
ATOM     20  H   UNL     1      45.975   7.209  13.358  0.00  0.00    +0.000 HD
BRANCH  18  21
ATOM     21  C   UNL     1      47.774   6.018  14.497  0.00  0.00    +0.000 A 
ATOM     22  C   UNL     1      48.292   5.746  15.753  0.00  0.00    +0.000 A 
ATOM     23  S   UNL     1      49.402   6.949  16.263  0.00  0.00    +0.000 S 
ATOM     24  C   UNL     1      49.269   7.782  14.781  0.00  0.00    +0.000 A 
ATOM     25  N   UNL     1      49.852   8.992  14.572  0.00  0.00    +0.000 NA
ATOM     26  C   UNL     1      49.689   9.459  13.376  0.00  0.00    +0.000 A 
ATOM     27  N   UNL     1      49.042   8.803  12.356  0.00  0.00    +0.000 N 
ATOM     28  C   UNL     1      48.467   7.563  12.513  0.00  0.00    +0.000 A 
ATOM     29  O   UNL     1      47.992   6.946  11.570  0.00  0.00    +0.000 OA
ATOM     30  C   UNL     1      48.508   7.076  13.875  0.00  0.00    +0.000 A 
ATOM     31  H   UNL     1      49.032   9.179  11.421  0.00  0.00    +0.000 HD
ENDBRANCH  18  21
ENDBRANCH   1  19
TORSDOF 5
ENDMDL
MODEL 6
REMARK VINA RESULT:    -7.611      2.357      3.533
REMARK INTER + INTRA:         -10.254
REMARK INTER:                  -9.298
REMARK INTRA:                  -0.956
REMARK UNBOUND:                -0.419
REMARK  Name = 
REMARK  5 active torsions:
REMARK  status: ('A' for Active; 'I' for Inactive)
REMARK    1  A    between atoms: C_2  and  C_19
REMARK    2  A    between atoms: N_3  and  C_4
REMARK    3  A    between atoms: C_4  and  C_5
REMARK    4  A    between atoms: C_8  and  C_9
REMARK    5  A    between atoms: C_9  and  N_10
REMARK                            x       y       z     vdW  Elec       q    Type
REMARK                         _______ _______ _______ _____ _____    ______ ____
ROOT
ATOM      1  C   UNL     1      48.019   7.781  14.299  0.00  0.00    +0.000 C 
ENDROOT
BRANCH   1   2
ATOM      2  C   UNL     1      47.842   7.233  12.870  0.00  0.00    +0.000 C 
ATOM      3  C   UNL     1      47.372   5.769  12.835  0.00  0.00    +0.000 C 
ATOM      4  C   UNL     1      45.920   5.596  13.280  0.00  0.00    +0.000 C 
ATOM      5  C   UNL     1      44.932   6.517  12.540  0.00  0.00    +0.000 C 
ATOM      6  C   UNL     1      45.427   7.975  12.564  0.00  0.00    +0.000 C 
ATOM      7  C   UNL     1      46.871   8.118  12.076  0.00  0.00    +0.000 C 
BRANCH   5   8
ATOM      8  C   UNL     1      44.661   6.090  11.084  0.00  0.00    +0.000 C 
BRANCH   8   9
ATOM      9  N   UNL     1      44.396   4.655  10.988  0.00  0.00    +0.000 N 
ATOM     10  C   UNL     1      44.937   4.066   9.825  0.00  0.00    +0.000 A 
ATOM     11  C   UNL     1      44.767   2.709   9.637  0.00  0.00    +0.000 A 
ATOM     12  C   UNL     1      45.335   2.164   8.507  0.00  0.00    +0.000 A 
ATOM     13  N   UNL     1      46.022   2.879   7.601  0.00  0.00    +0.000 NA
ATOM     14  C   UNL     1      46.135   4.184   7.877  0.00  0.00    +0.000 A 
ATOM     15  N   UNL     1      45.629   4.812   8.948  0.00  0.00    +0.000 NA
ATOM     16  H   UNL     1      43.403   4.438  11.037  0.00  0.00    +0.000 HD
ENDBRANCH   8   9
ENDBRANCH   5   8
ENDBRANCH   1   2
BRANCH   1  19
ATOM     17  O   UNL     1      48.517   8.166  17.055  0.00  0.00    +0.000 OA
ATOM     18  C   UNL     1      48.776   7.088  16.534  0.00  0.00    +0.000 C 
ATOM     19  N   UNL     1      48.486   6.772  15.219  0.00  0.00    +0.000 N 
ATOM     20  H   UNL     1      48.943   5.964  14.824  0.00  0.00    +0.000 HD
BRANCH  18  21
ATOM     21  C   UNL     1      49.612   6.078  17.168  0.00  0.00    +0.000 A 
ATOM     22  C   UNL     1      50.814   6.389  17.781  0.00  0.00    +0.000 A 
ATOM     23  S   UNL     1      51.776   4.997  18.053  0.00  0.00    +0.000 S 
ATOM     24  C   UNL     1      50.560   3.967  17.444  0.00  0.00    +0.000 A 
ATOM     25  N   UNL     1      50.761   2.637  17.254  0.00  0.00    +0.000 NA
ATOM     26  C   UNL     1      49.717   1.999  16.831  0.00  0.00    +0.000 A 
ATOM     27  N   UNL     1      48.479   2.560  16.629  0.00  0.00    +0.000 N 
ATOM     28  C   UNL     1      48.221   3.895  16.841  0.00  0.00    +0.000 A 
ATOM     29  O   UNL     1      47.092   4.357  16.763  0.00  0.00    +0.000 OA
ATOM     30  C   UNL     1      49.400   4.663  17.179  0.00  0.00    +0.000 A 
ATOM     31  H   UNL     1      47.683   1.989  16.390  0.00  0.00    +0.000 HD
ENDBRANCH  18  21
ENDBRANCH   1  19
TORSDOF 5
ENDMDL
MODEL 7
REMARK VINA RESULT:    -7.374      2.479      3.198
REMARK INTER + INTRA:          -9.948
REMARK INTER:                  -9.110
REMARK INTRA:                  -0.838
REMARK UNBOUND:                -0.419
REMARK  Name = 
REMARK  5 active torsions:
REMARK  status: ('A' for Active; 'I' for Inactive)
REMARK    1  A    between atoms: C_2  and  C_19
REMARK    2  A    between atoms: N_3  and  C_4
REMARK    3  A    between atoms: C_4  and  C_5
REMARK    4  A    between atoms: C_8  and  C_9
REMARK    5  A    between atoms: C_9  and  N_10
REMARK                            x       y       z     vdW  Elec       q    Type
REMARK                         _______ _______ _______ _____ _____    ______ ____
ROOT
ATOM      1  C   UNL     1      46.261   5.495  13.859  0.00  0.00    +0.000 C 
ENDROOT
BRANCH   1   2
ATOM      2  C   UNL     1      46.395   4.909  12.440  0.00  0.00    +0.000 C 
ATOM      3  C   UNL     1      45.611   3.600  12.247  0.00  0.00    +0.000 C 
ATOM      4  C   UNL     1      44.097   3.808  12.220  0.00  0.00    +0.000 C 
ATOM      5  C   UNL     1      43.639   4.885  11.218  0.00  0.00    +0.000 C 
ATOM      6  C   UNL     1      44.448   6.182  11.408  0.00  0.00    +0.000 C 
ATOM      7  C   UNL     1      45.960   5.943  11.393  0.00  0.00    +0.000 C 
BRANCH   5   8
ATOM      8  C   UNL     1      43.724   4.436   9.746  0.00  0.00    +0.000 C 
BRANCH   8   9
ATOM      9  N   UNL     1      44.199   3.059   9.633  0.00  0.00    +0.000 N 
ATOM     10  C   UNL     1      45.248   2.908   8.700  0.00  0.00    +0.000 A 
ATOM     11  C   UNL     1      45.793   1.651   8.524  0.00  0.00    +0.000 A 
ATOM     12  C   UNL     1      46.835   1.548   7.630  0.00  0.00    +0.000 A 
ATOM     13  N   UNL     1      47.325   2.588   6.935  0.00  0.00    +0.000 NA
ATOM     14  C   UNL     1      46.733   3.763   7.181  0.00  0.00    +0.000 A 
ATOM     15  N   UNL     1      45.720   3.975   8.034  0.00  0.00    +0.000 NA
ATOM     16  H   UNL     1      43.454   2.407   9.400  0.00  0.00    +0.000 HD
ENDBRANCH   8   9
ENDBRANCH   5   8
ENDBRANCH   1   2
BRANCH   1  19
ATOM     17  O   UNL     1      47.136   8.183  13.829  0.00  0.00    +0.000 OA
ATOM     18  C   UNL     1      47.885   7.303  14.234  0.00  0.00    +0.000 C 
ATOM     19  N   UNL     1      47.521   5.977  14.374  0.00  0.00    +0.000 N 
ATOM     20  H   UNL     1      48.262   5.300  14.485  0.00  0.00    +0.000 HD
BRANCH  18  21
ATOM     21  C   UNL     1      49.316   7.500  14.421  0.00  0.00    +0.000 A 
ATOM     22  C   UNL     1      49.935   7.318  15.647  0.00  0.00    +0.000 A 
ATOM     23  S   UNL     1      51.498   8.020  15.688  0.00  0.00    +0.000 S 
ATOM     24  C   UNL     1      51.395   8.484  14.050  0.00  0.00    +0.000 A 
ATOM     25  N   UNL     1      52.340   9.257  13.453  0.00  0.00    +0.000 NA
ATOM     26  C   UNL     1      52.128   9.474  12.194  0.00  0.00    +0.000 A 
ATOM     27  N   UNL     1      51.088   8.946  11.469  0.00  0.00    +0.000 N 
ATOM     28  C   UNL     1      50.128   8.131  12.024  0.00  0.00    +0.000 A 
ATOM     29  O   UNL     1      49.272   7.582  11.344  0.00  0.00    +0.000 OA
ATOM     30  C   UNL     1      50.256   7.985  13.458  0.00  0.00    +0.000 A 
ATOM     31  H   UNL     1      51.033   9.076  10.470  0.00  0.00    +0.000 HD
ENDBRANCH  18  21
ENDBRANCH   1  19
TORSDOF 5
ENDMDL
MODEL 8
REMARK VINA RESULT:    -7.247      3.872      9.376
REMARK INTER + INTRA:          -9.784
REMARK INTER:                  -8.872
REMARK INTRA:                  -0.912
REMARK UNBOUND:                -0.419
REMARK  Name = 
REMARK  5 active torsions:
REMARK  status: ('A' for Active; 'I' for Inactive)
REMARK    1  A    between atoms: C_2  and  C_19
REMARK    2  A    between atoms: N_3  and  C_4
REMARK    3  A    between atoms: C_4  and  C_5
REMARK    4  A    between atoms: C_8  and  C_9
REMARK    5  A    between atoms: C_9  and  N_10
REMARK                            x       y       z     vdW  Elec       q    Type
REMARK                         _______ _______ _______ _____ _____    ______ ____
ROOT
ATOM      1  C   UNL     1      47.132   4.035  16.629  0.00  0.00    +0.000 C 
ENDROOT
BRANCH   1   2
ATOM      2  C   UNL     1      48.450   4.785  16.903  0.00  0.00    +0.000 C 
ATOM      3  C   UNL     1      48.254   6.089  17.694  0.00  0.00    +0.000 C 
ATOM      4  C   UNL     1      47.869   5.852  19.154  0.00  0.00    +0.000 C 
ATOM      5  C   UNL     1      48.817   4.888  19.894  0.00  0.00    +0.000 C 
ATOM      6  C   UNL     1      49.021   3.596  19.080  0.00  0.00    +0.000 C 
ATOM      7  C   UNL     1      49.442   3.869  17.634  0.00  0.00    +0.000 C 
BRANCH   5   8
ATOM      8  C   UNL     1      50.188   5.506  20.231  0.00  0.00    +0.000 C 
BRANCH   8   9
ATOM      9  N   UNL     1      51.152   4.483  20.630  0.00  0.00    +0.000 N 
ATOM     10  C   UNL     1      52.377   4.572  19.933  0.00  0.00    +0.000 A 
ATOM     11  C   UNL     1      53.375   3.669  20.242  0.00  0.00    +0.000 A 
ATOM     12  C   UNL     1      54.566   3.805  19.565  0.00  0.00    +0.000 A 
ATOM     13  N   UNL     1      54.789   4.751  18.637  0.00  0.00    +0.000 NA
ATOM     14  C   UNL     1      53.763   5.580  18.414  0.00  0.00    +0.000 A 
ATOM     15  N   UNL     1      52.568   5.540  19.022  0.00  0.00    +0.000 NA
ATOM     16  H   UNL     1      50.784   3.540  20.530  0.00  0.00    +0.000 HD
ENDBRANCH   8   9
ENDBRANCH   5   8
ENDBRANCH   1   2
BRANCH   1  19
ATOM     17  O   UNL     1      47.407   3.041  13.997  0.00  0.00    +0.000 OA
ATOM     18  C   UNL     1      46.717   4.032  14.206  0.00  0.00    +0.000 C 
ATOM     19  N   UNL     1      46.447   4.539  15.463  0.00  0.00    +0.000 N 
ATOM     20  H   UNL     1      46.074   5.475  15.516  0.00  0.00    +0.000 HD
BRANCH  18  21
ATOM     21  C   UNL     1      46.267   4.924  13.147  0.00  0.00    +0.000 A 
ATOM     22  C   UNL     1      47.035   5.984  12.694  0.00  0.00    +0.000 A 
ATOM     23  S   UNL     1      46.113   7.101  11.778  0.00  0.00    +0.000 S 
ATOM     24  C   UNL     1      44.713   6.135  11.901  0.00  0.00    +0.000 A 
ATOM     25  N   UNL     1      43.499   6.552  11.455  0.00  0.00    +0.000 NA
ATOM     26  C   UNL     1      42.557   5.674  11.584  0.00  0.00    +0.000 A 
ATOM     27  N   UNL     1      42.729   4.400  12.070  0.00  0.00    +0.000 N 
ATOM     28  C   UNL     1      43.946   3.923  12.500  0.00  0.00    +0.000 A 
ATOM     29  O   UNL     1      44.105   2.756  12.827  0.00  0.00    +0.000 OA
ATOM     30  C   UNL     1      44.990   4.926  12.501  0.00  0.00    +0.000 A 
ATOM     31  H   UNL     1      41.973   3.732  12.056  0.00  0.00    +0.000 HD
ENDBRANCH  18  21
ENDBRANCH   1  19
TORSDOF 5
ENDMDL
MODEL 9
REMARK VINA RESULT:    -7.235      1.557      2.262
REMARK INTER + INTRA:          -9.769
REMARK INTER:                  -9.479
REMARK INTRA:                  -0.290
REMARK UNBOUND:                -0.419
REMARK  Name = 
REMARK  5 active torsions:
REMARK  status: ('A' for Active; 'I' for Inactive)
REMARK    1  A    between atoms: C_2  and  C_19
REMARK    2  A    between atoms: N_3  and  C_4
REMARK    3  A    between atoms: C_4  and  C_5
REMARK    4  A    between atoms: C_8  and  C_9
REMARK    5  A    between atoms: C_9  and  N_10
REMARK                            x       y       z     vdW  Elec       q    Type
REMARK                         _______ _______ _______ _____ _____    ______ ____
ROOT
ATOM      1  C   UNL     1      46.812   6.501  13.529  0.00  0.00    +0.000 C 
ENDROOT
BRANCH   1   2
ATOM      2  C   UNL     1      46.725   5.390  12.464  0.00  0.00    +0.000 C 
ATOM      3  C   UNL     1      45.752   4.261  12.842  0.00  0.00    +0.000 C 
ATOM      4  C   UNL     1      44.286   4.689  12.784  0.00  0.00    +0.000 C 
ATOM      5  C   UNL     1      43.887   5.345  11.449  0.00  0.00    +0.000 C 
ATOM      6  C   UNL     1      44.882   6.459  11.072  0.00  0.00    +0.000 C 
ATOM      7  C   UNL     1      46.337   5.986  11.104  0.00  0.00    +0.000 C 
BRANCH   5   8
ATOM      8  C   UNL     1      43.765   4.347  10.281  0.00  0.00    +0.000 C 
BRANCH   8   9
ATOM      9  N   UNL     1      44.601   4.742   9.150  0.00  0.00    +0.000 N 
ATOM     10  C   UNL     1      45.329   3.667   8.594  0.00  0.00    +0.000 A 
ATOM     11  C   UNL     1      46.139   3.917   7.504  0.00  0.00    +0.000 A 
ATOM     12  C   UNL     1      46.809   2.839   6.970  0.00  0.00    +0.000 A 
ATOM     13  N   UNL     1      46.715   1.590   7.456  0.00  0.00    +0.000 NA
ATOM     14  C   UNL     1      45.902   1.451   8.509  0.00  0.00    +0.000 A 
ATOM     15  N   UNL     1      45.199   2.429   9.100  0.00  0.00    +0.000 NA
ATOM     16  H   UNL     1      45.248   5.491   9.386  0.00  0.00    +0.000 HD
ENDBRANCH   8   9
ENDBRANCH   5   8
ENDBRANCH   1   2
BRANCH   1  19
ATOM     17  O   UNL     1      49.322   6.525  14.830  0.00  0.00    +0.000 OA
ATOM     18  C   UNL     1      48.368   5.965  15.356  0.00  0.00    +0.000 C 
ATOM     19  N   UNL     1      47.083   5.976  14.846  0.00  0.00    +0.000 N 
ATOM     20  H   UNL     1      46.430   5.302  15.217  0.00  0.00    +0.000 HD
BRANCH  18  21
ATOM     21  C   UNL     1      48.505   5.041  16.474  0.00  0.00    +0.000 A 
ATOM     22  C   UNL     1      48.050   3.734  16.415  0.00  0.00    +0.000 A 
ATOM     23  S   UNL     1      47.944   3.020  17.969  0.00  0.00    +0.000 S 
ATOM     24  C   UNL     1      48.592   4.410  18.715  0.00  0.00    +0.000 A 
ATOM     25  N   UNL     1      48.660   4.546  20.065  0.00  0.00    +0.000 NA
ATOM     26  C   UNL     1      49.223   5.643  20.459  0.00  0.00    +0.000 A 
ATOM     27  N   UNL     1      49.772   6.589  19.628  0.00  0.00    +0.000 N 
ATOM     28  C   UNL     1      49.757   6.476  18.256  0.00  0.00    +0.000 A 
ATOM     29  O   UNL     1      50.344   7.270  17.535  0.00  0.00    +0.000 OA
ATOM     30  C   UNL     1      49.009   5.332  17.780  0.00  0.00    +0.000 A 
ATOM     31  H   UNL     1      50.281   7.375  20.000  0.00  0.00    +0.000 HD
ENDBRANCH  18  21
ENDBRANCH   1  19
TORSDOF 5
ENDMDL
