MODEL 1
REMARK VINA RESULT:    -8.242      0.000      0.000
REMARK INTER + INTRA:         -12.323
REMARK INTER:                 -11.132
REMARK INTRA:                  -1.190
REMARK UNBOUND:                -1.190
REMARK  Name = 
REMARK  8 active torsions:
REMARK  status: ('A' for Active; 'I' for Inactive)
REMARK    1  A    between atoms: C_1  and  C_2
REMARK    2  A    between atoms: N_4  and  C_5
REMARK    3  A    between atoms: C_7  and  C_8
REMARK    4  A    between atoms: C_8  and  C_9
REMARK    5  A    between atoms: C_9  and  N_10
REMARK    6  A    between atoms: C_14  and  C_15
REMARK    7  A    between atoms: C_21  and  C_22
REMARK    8  A    between atoms: C_28  and  C_29
REMARK                            x       y       z     vdW  Elec       q    Type
REMARK                         _______ _______ _______ _____ _____    ______ ____
ROOT
ATOM      1  C   UNL     1      46.861   6.891  12.645  0.00  0.00    +0.000 A 
ATOM      2  C   UNL     1      45.559   6.584  12.213  0.00  0.00    +0.000 A 
ATOM      3  C   UNL     1      44.810   5.524  12.756  0.00  0.00    +0.000 A 
ATOM      4  C   UNL     1      45.363   4.781  13.802  0.00  0.00    +0.000 A 
ATOM      5  C   UNL     1      46.653   5.058  14.267  0.00  0.00    +0.000 A 
ATOM      6  C   UNL     1      47.381   6.111  13.686  0.00  0.00    +0.000 A 
ENDROOT
BRANCH   1  10
ATOM      7  C   UNL     1      48.400  10.065  14.309  0.00  0.00    +0.000 C 
ATOM      8  C   UNL     1      48.396  10.136  12.785  0.00  0.00    +0.000 C 
ATOM      9  C   UNL     1      47.248   9.324  12.149  0.00  0.00    +0.000 C 
ATOM     10  N   UNL     1      47.593   7.901  12.057  0.00  0.00    +0.000 N 
ATOM     11  C   UNL     1      48.874   7.647  11.385  0.00  0.00    +0.000 C 
ATOM     12  C   UNL     1      50.005   8.449  12.061  0.00  0.00    +0.000 C 
ATOM     13  C   UNL     1      50.496   7.813  13.360  0.00  0.00    +0.000 C 
ATOM     14  O   UNL     1      49.688   9.841  12.224  0.00  0.00    +0.000 OA
ENDBRANCH   1  10
BRANCH   5  15
ATOM     15  C   UNL     1      47.293   4.219  15.343  0.00  0.00    +0.000 C 
ATOM     16  F   UNL     1      46.509   4.054  16.444  0.00  0.00    +0.000 F 
ATOM     17  F   UNL     1      47.594   2.963  14.908  0.00  0.00    +0.000 F 
ATOM     18  F   UNL     1      48.465   4.748  15.793  0.00  0.00    +0.000 F 
ENDBRANCH   5  15
BRANCH   3  19
ATOM     19  C   UNL     1      43.443   5.167  12.209  0.00  0.00    +0.000 C 
BRANCH  19  20
ATOM     20  C   UNL     1      43.488   4.800  10.719  0.00  0.00    +0.000 C 
BRANCH  20  21
ATOM     21  N   UNL     1      43.868   3.392  10.522  0.00  0.00    +0.000 N 
ATOM     22  C   UNL     1      44.736   3.223   9.421  0.00  0.00    +0.000 A 
ATOM     23  C   UNL     1      45.196   1.946   9.112  0.00  0.00    +0.000 A 
ATOM     24  C   UNL     1      46.067   1.773   8.034  0.00  0.00    +0.000 A 
ATOM     25  C   UNL     1      46.433   2.891   7.306  0.00  0.00    +0.000 A 
ATOM     26  N   UNL     1      45.988   4.126   7.612  0.00  0.00    +0.000 NA
ATOM     27  N   UNL     1      45.146   4.282   8.685  0.00  0.00    +0.000 NA
ATOM     28  H   UNL     1      43.060   2.785  10.397  0.00  0.00    +0.000 HD
BRANCH  25  29
ATOM     29  C   UNL     1      47.340   2.783   6.129  0.00  0.00    +0.000 C 
ATOM     30  N   UNL     1      48.666   2.560   6.399  0.00  0.00    +0.000 N 
ATOM     31  O   UNL     1      46.933   2.901   4.982  0.00  0.00    +0.000 OA
ATOM     32  H   UNL     1      48.999   2.465   7.352  0.00  0.00    +0.000 HD
ATOM     33  H   UNL     1      49.316   2.492   5.629  0.00  0.00    +0.000 HD
ENDBRANCH  25  29
ENDBRANCH  20  21
ENDBRANCH  19  20
ENDBRANCH   3  19
TORSDOF 6
ENDMDL
MODEL 2
REMARK VINA RESULT:    -8.038      3.105      3.789
REMARK INTER + INTRA:         -12.048
REMARK INTER:                 -11.151
REMARK INTRA:                  -0.897
REMARK UNBOUND:                -1.190
REMARK  Name = 
REMARK  8 active torsions:
REMARK  status: ('A' for Active; 'I' for Inactive)
REMARK    1  A    between atoms: C_1  and  C_2
REMARK    2  A    between atoms: N_4  and  C_5
REMARK    3  A    between atoms: C_7  and  C_8
REMARK    4  A    between atoms: C_8  and  C_9
REMARK    5  A    between atoms: C_9  and  N_10
REMARK    6  A    between atoms: C_14  and  C_15
REMARK    7  A    between atoms: C_21  and  C_22
REMARK    8  A    between atoms: C_28  and  C_29
REMARK                            x       y       z     vdW  Elec       q    Type
REMARK                         _______ _______ _______ _____ _____    ______ ____
ROOT
ATOM      1  C   UNL     1      46.678   6.945  12.713  0.00  0.00    +0.000 A 
ATOM      2  C   UNL     1      45.736   5.899  12.720  0.00  0.00    +0.000 A 
ATOM      3  C   UNL     1      44.410   6.070  12.285  0.00  0.00    +0.000 A 
ATOM      4  C   UNL     1      44.027   7.314  11.776  0.00  0.00    +0.000 A 
ATOM      5  C   UNL     1      44.934   8.379  11.745  0.00  0.00    +0.000 A 
ATOM      6  C   UNL     1      46.246   8.178  12.207  0.00  0.00    +0.000 A 
ENDROOT
BRANCH   1  10
ATOM      7  C   UNL     1      49.660   9.458  12.707  0.00  0.00    +0.000 C 
ATOM      8  C   UNL     1      50.085   8.031  13.040  0.00  0.00    +0.000 C 
ATOM      9  C   UNL     1      49.171   6.966  12.400  0.00  0.00    +0.000 C 
ATOM     10  N   UNL     1      47.956   6.763  13.196  0.00  0.00    +0.000 N 
ATOM     11  C   UNL     1      48.221   6.471  14.611  0.00  0.00    +0.000 C 
ATOM     12  C   UNL     1      49.111   7.567  15.230  0.00  0.00    +0.000 C 
ATOM     13  C   UNL     1      48.342   8.840  15.578  0.00  0.00    +0.000 C 
ATOM     14  O   UNL     1      50.289   7.841  14.451  0.00  0.00    +0.000 OA
ENDBRANCH   1  10
BRANCH   5  15
ATOM     15  C   UNL     1      44.517   9.747  11.269  0.00  0.00    +0.000 C 
ATOM     16  F   UNL     1      45.538  10.475  10.739  0.00  0.00    +0.000 F 
ATOM     17  F   UNL     1      43.560   9.687  10.300  0.00  0.00    +0.000 F 
ATOM     18  F   UNL     1      43.990  10.511  12.265  0.00  0.00    +0.000 F 
ENDBRANCH   5  15
BRANCH   3  19
ATOM     19  C   UNL     1      43.399   4.946  12.387  0.00  0.00    +0.000 C 
BRANCH  19  20
ATOM     20  C   UNL     1      43.306   4.125  11.093  0.00  0.00    +0.000 C 
BRANCH  20  21
ATOM     21  N   UNL     1      43.988   4.800   9.977  0.00  0.00    +0.000 N 
ATOM     22  C   UNL     1      44.820   3.921   9.251  0.00  0.00    +0.000 A 
ATOM     23  C   UNL     1      45.526   4.408   8.154  0.00  0.00    +0.000 A 
ATOM     24  C   UNL     1      46.340   3.541   7.423  0.00  0.00    +0.000 A 
ATOM     25  C   UNL     1      46.416   2.220   7.827  0.00  0.00    +0.000 A 
ATOM     26  N   UNL     1      45.727   1.752   8.888  0.00  0.00    +0.000 NA
ATOM     27  N   UNL     1      44.918   2.613   9.587  0.00  0.00    +0.000 NA
ATOM     28  H   UNL     1      44.543   5.596  10.286  0.00  0.00    +0.000 HD
BRANCH  25  29
ATOM     29  C   UNL     1      47.281   1.241   7.111  0.00  0.00    +0.000 C 
ATOM     30  N   UNL     1      48.274   1.767   6.324  0.00  0.00    +0.000 N 
ATOM     31  O   UNL     1      47.110   0.034   7.202  0.00  0.00    +0.000 OA
ATOM     32  H   UNL     1      48.410   2.768   6.249  0.00  0.00    +0.000 HD
ATOM     33  H   UNL     1      48.875   1.137   5.813  0.00  0.00    +0.000 HD
ENDBRANCH  25  29
ENDBRANCH  20  21
ENDBRANCH  19  20
ENDBRANCH   3  19
TORSDOF 6
ENDMDL
MODEL 3
REMARK VINA RESULT:    -7.567      3.323      4.079
REMARK INTER + INTRA:         -11.411
REMARK INTER:                 -10.321
REMARK INTRA:                  -1.090
REMARK UNBOUND:                -1.190
REMARK  Name = 
REMARK  8 active torsions:
REMARK  status: ('A' for Active; 'I' for Inactive)
REMARK    1  A    between atoms: C_1  and  C_2
REMARK    2  A    between atoms: N_4  and  C_5
REMARK    3  A    between atoms: C_7  and  C_8
REMARK    4  A    between atoms: C_8  and  C_9
REMARK    5  A    between atoms: C_9  and  N_10
REMARK    6  A    between atoms: C_14  and  C_15
REMARK    7  A    between atoms: C_21  and  C_22
REMARK    8  A    between atoms: C_28  and  C_29
REMARK                            x       y       z     vdW  Elec       q    Type
REMARK                         _______ _______ _______ _____ _____    ______ ____
ROOT
ATOM      1  C   UNL     1      46.234   8.666  12.592  0.00  0.00    +0.000 A 
ATOM      2  C   UNL     1      45.813   7.325  12.575  0.00  0.00    +0.000 A 
ATOM      3  C   UNL     1      44.600   6.918  11.990  0.00  0.00    +0.000 A 
ATOM      4  C   UNL     1      43.807   7.879  11.356  0.00  0.00    +0.000 A 
ATOM      5  C   UNL     1      44.193   9.223  11.345  0.00  0.00    +0.000 A 
ATOM      6  C   UNL     1      45.401   9.597  11.957  0.00  0.00    +0.000 A 
ENDROOT
BRANCH   1  10
ATOM      7  C   UNL     1      49.860   7.376  11.962  0.00  0.00    +0.000 C 
ATOM      8  C   UNL     1      49.732   8.185  13.250  0.00  0.00    +0.000 C 
ATOM      9  C   UNL     1      48.322   8.106  13.872  0.00  0.00    +0.000 C 
ATOM     10  N   UNL     1      47.402   9.044  13.221  0.00  0.00    +0.000 N 
ATOM     11  C   UNL     1      47.899  10.425  13.179  0.00  0.00    +0.000 C 
ATOM     12  C   UNL     1      49.295  10.475  12.526  0.00  0.00    +0.000 C 
ATOM     13  C   UNL     1      49.247  10.387  11.002  0.00  0.00    +0.000 C 
ATOM     14  O   UNL     1      50.217   9.531  13.095  0.00  0.00    +0.000 OA
ENDBRANCH   1  10
BRANCH   5  15
ATOM     15  C   UNL     1      43.314  10.283  10.731  0.00  0.00    +0.000 C 
ATOM     16  F   UNL     1      43.891  11.516  10.694  0.00  0.00    +0.000 F 
ATOM     17  F   UNL     1      42.975   9.991   9.443  0.00  0.00    +0.000 F 
ATOM     18  F   UNL     1      42.137  10.441  11.398  0.00  0.00    +0.000 F 
ENDBRANCH   5  15
BRANCH   3  19
ATOM     19  C   UNL     1      44.136   5.477  12.063  0.00  0.00    +0.000 C 
BRANCH  19  20
ATOM     20  C   UNL     1      43.561   4.980  10.729  0.00  0.00    +0.000 C 
BRANCH  20  21
ATOM     21  N   UNL     1      43.860   3.556  10.512  0.00  0.00    +0.000 N 
ATOM     22  C   UNL     1      44.735   3.355   9.422  0.00  0.00    +0.000 A 
ATOM     23  C   UNL     1      45.124   2.059   9.096  0.00  0.00    +0.000 A 
ATOM     24  C   UNL     1      46.001   1.854   8.029  0.00  0.00    +0.000 A 
ATOM     25  C   UNL     1      46.446   2.960   7.328  0.00  0.00    +0.000 A 
ATOM     26  N   UNL     1      46.070   4.214   7.651  0.00  0.00    +0.000 NA
ATOM     27  N   UNL     1      45.221   4.401   8.713  0.00  0.00    +0.000 NA
ATOM     28  H   UNL     1      43.020   3.001  10.362  0.00  0.00    +0.000 HD
BRANCH  25  29
ATOM     29  C   UNL     1      47.364   2.820   6.164  0.00  0.00    +0.000 C 
ATOM     30  N   UNL     1      48.673   2.527   6.452  0.00  0.00    +0.000 N 
ATOM     31  O   UNL     1      46.982   2.970   5.012  0.00  0.00    +0.000 OA
ATOM     32  H   UNL     1      48.986   2.405   7.407  0.00  0.00    +0.000 HD
ATOM     33  H   UNL     1      49.330   2.434   5.691  0.00  0.00    +0.000 HD
ENDBRANCH  25  29
ENDBRANCH  20  21
ENDBRANCH  19  20
ENDBRANCH   3  19
TORSDOF 6
ENDMDL
MODEL 4
REMARK VINA RESULT:    -7.328      3.145      4.001
REMARK INTER + INTRA:         -11.089
REMARK INTER:                 -10.392
REMARK INTRA:                  -0.697
REMARK UNBOUND:                -1.190
REMARK  Name = 
REMARK  8 active torsions:
REMARK  status: ('A' for Active; 'I' for Inactive)
REMARK    1  A    between atoms: C_1  and  C_2
REMARK    2  A    between atoms: N_4  and  C_5
REMARK    3  A    between atoms: C_7  and  C_8
REMARK    4  A    between atoms: C_8  and  C_9
REMARK    5  A    between atoms: C_9  and  N_10
REMARK    6  A    between atoms: C_14  and  C_15
REMARK    7  A    between atoms: C_21  and  C_22
REMARK    8  A    between atoms: C_28  and  C_29
REMARK                            x       y       z     vdW  Elec       q    Type
REMARK                         _______ _______ _______ _____ _____    ______ ____
ROOT
ATOM      1  C   UNL     1      46.738   5.953  13.572  0.00  0.00    +0.000 A 
ATOM      2  C   UNL     1      45.674   5.054  13.385  0.00  0.00    +0.000 A 
ATOM      3  C   UNL     1      44.478   5.417  12.739  0.00  0.00    +0.000 A 
ATOM      4  C   UNL     1      44.366   6.709  12.217  0.00  0.00    +0.000 A 
ATOM      5  C   UNL     1      45.404   7.633  12.376  0.00  0.00    +0.000 A 
ATOM      6  C   UNL     1      46.576   7.241  13.045  0.00  0.00    +0.000 A 
ENDROOT
BRANCH   1  10
ATOM      7  C   UNL     1      48.525   7.814  16.497  0.00  0.00    +0.000 C 
ATOM      8  C   UNL     1      49.376   6.701  15.893  0.00  0.00    +0.000 C 
ATOM      9  C   UNL     1      49.058   6.441  14.406  0.00  0.00    +0.000 C 
ATOM     10  N   UNL     1      47.877   5.585  14.257  0.00  0.00    +0.000 N 
ATOM     11  C   UNL     1      47.957   4.333  15.021  0.00  0.00    +0.000 C 
ATOM     12  C   UNL     1      48.246   4.626  16.507  0.00  0.00    +0.000 C 
ATOM     13  C   UNL     1      47.010   5.084  17.279  0.00  0.00    +0.000 C 
ATOM     14  O   UNL     1      49.363   5.509  16.700  0.00  0.00    +0.000 OA
ENDBRANCH   1  10
BRANCH   5  15
ATOM     15  C   UNL     1      45.270   9.051  11.885  0.00  0.00    +0.000 C 
ATOM     16  F   UNL     1      44.554   9.164  10.732  0.00  0.00    +0.000 F 
ATOM     17  F   UNL     1      44.644   9.854  12.791  0.00  0.00    +0.000 F 
ATOM     18  F   UNL     1      46.474   9.638  11.637  0.00  0.00    +0.000 F 
ENDBRANCH   5  15
BRANCH   3  19
ATOM     19  C   UNL     1      43.318   4.449  12.629  0.00  0.00    +0.000 C 
BRANCH  19  20
ATOM     20  C   UNL     1      43.049   4.022  11.180  0.00  0.00    +0.000 C 
BRANCH  20  21
ATOM     21  N   UNL     1      43.949   4.709  10.240  0.00  0.00    +0.000 N 
ATOM     22  C   UNL     1      44.738   3.802   9.499  0.00  0.00    +0.000 A 
ATOM     23  C   UNL     1      45.634   4.298   8.556  0.00  0.00    +0.000 A 
ATOM     24  C   UNL     1      46.406   3.407   7.809  0.00  0.00    +0.000 A 
ATOM     25  C   UNL     1      46.251   2.053   8.044  0.00  0.00    +0.000 A 
ATOM     26  N   UNL     1      45.379   1.577   8.955  0.00  0.00    +0.000 NA
ATOM     27  N   UNL     1      44.614   2.465   9.670  0.00  0.00    +0.000 NA
ATOM     28  H   UNL     1      44.565   5.372  10.707  0.00  0.00    +0.000 HD
BRANCH  25  29
ATOM     29  C   UNL     1      47.057   1.043   7.302  0.00  0.00    +0.000 C 
ATOM     30  N   UNL     1      46.868  -0.268   7.659  0.00  0.00    +0.000 N 
ATOM     31  O   UNL     1      47.855   1.359   6.432  0.00  0.00    +0.000 OA
ATOM     32  H   UNL     1      46.206  -0.526   8.382  0.00  0.00    +0.000 HD
ATOM     33  H   UNL     1      47.403  -0.983   7.188  0.00  0.00    +0.000 HD
ENDBRANCH  25  29
ENDBRANCH  20  21
ENDBRANCH  19  20
ENDBRANCH   3  19
TORSDOF 6
ENDMDL
MODEL 5
REMARK VINA RESULT:    -7.275      2.825      4.325
REMARK INTER + INTRA:         -11.017
REMARK INTER:                  -9.939
REMARK INTRA:                  -1.078
REMARK UNBOUND:                -1.190
REMARK  Name = 
REMARK  8 active torsions:
REMARK  status: ('A' for Active; 'I' for Inactive)
REMARK    1  A    between atoms: C_1  and  C_2
REMARK    2  A    between atoms: N_4  and  C_5
REMARK    3  A    between atoms: C_7  and  C_8
REMARK    4  A    between atoms: C_8  and  C_9
REMARK    5  A    between atoms: C_9  and  N_10
REMARK    6  A    between atoms: C_14  and  C_15
REMARK    7  A    between atoms: C_21  and  C_22
REMARK    8  A    between atoms: C_28  and  C_29
REMARK                            x       y       z     vdW  Elec       q    Type
REMARK                         _______ _______ _______ _____ _____    ______ ____
ROOT
ATOM      1  C   UNL     1      47.233   5.204  15.201  0.00  0.00    +0.000 A 
ATOM      2  C   UNL     1      46.006   4.915  14.575  0.00  0.00    +0.000 A 
ATOM      3  C   UNL     1      45.690   5.365  13.281  0.00  0.00    +0.000 A 
ATOM      4  C   UNL     1      46.654   6.084  12.568  0.00  0.00    +0.000 A 
ATOM      5  C   UNL     1      47.889   6.386  13.151  0.00  0.00    +0.000 A 
ATOM      6  C   UNL     1      48.163   5.939  14.454  0.00  0.00    +0.000 A 
ENDROOT
BRANCH   1  10
ATOM      7  C   UNL     1      49.442   2.225  16.408  0.00  0.00    +0.000 C 
ATOM      8  C   UNL     1      48.566   2.803  17.516  0.00  0.00    +0.000 C 
ATOM      9  C   UNL     1      47.262   3.433  16.984  0.00  0.00    +0.000 C 
ATOM     10  N   UNL     1      47.494   4.796  16.491  0.00  0.00    +0.000 N 
ATOM     11  C   UNL     1      48.160   5.669  17.466  0.00  0.00    +0.000 C 
ATOM     12  C   UNL     1      49.473   5.026  17.957  0.00  0.00    +0.000 C 
ATOM     13  C   UNL     1      50.621   5.170  16.959  0.00  0.00    +0.000 C 
ATOM     14  O   UNL     1      49.304   3.668  18.397  0.00  0.00    +0.000 OA
ENDBRANCH   1  10
BRANCH   5  15
ATOM     15  C   UNL     1      48.911   7.224  12.424  0.00  0.00    +0.000 C 
ATOM     16  F   UNL     1      49.455   8.208  13.192  0.00  0.00    +0.000 F 
ATOM     17  F   UNL     1      49.960   6.482  11.972  0.00  0.00    +0.000 F 
ATOM     18  F   UNL     1      48.395   7.847  11.328  0.00  0.00    +0.000 F 
ENDBRANCH   5  15
BRANCH   3  19
ATOM     19  C   UNL     1      44.327   5.108  12.671  0.00  0.00    +0.000 C 
BRANCH  19  20
ATOM     20  C   UNL     1      44.398   4.902  11.151  0.00  0.00    +0.000 C 
BRANCH  20  21
ATOM     21  N   UNL     1      44.511   3.475  10.807  0.00  0.00    +0.000 N 
ATOM     22  C   UNL     1      45.209   3.274   9.595  0.00  0.00    +0.000 A 
ATOM     23  C   UNL     1      45.411   1.975   9.138  0.00  0.00    +0.000 A 
ATOM     24  C   UNL     1      46.112   1.767   7.949  0.00  0.00    +0.000 A 
ATOM     25  C   UNL     1      46.577   2.875   7.264  0.00  0.00    +0.000 A 
ATOM     26  N   UNL     1      46.382   4.132   7.712  0.00  0.00    +0.000 NA
ATOM     27  N   UNL     1      45.705   4.319   8.892  0.00  0.00    +0.000 NA
ATOM     28  H   UNL     1      43.604   3.018  10.741  0.00  0.00    +0.000 HD
BRANCH  25  29
ATOM     29  C   UNL     1      47.313   2.734   5.977  0.00  0.00    +0.000 C 
ATOM     30  N   UNL     1      48.605   2.282   6.060  0.00  0.00    +0.000 N 
ATOM     31  O   UNL     1      46.805   3.019   4.902  0.00  0.00    +0.000 OA
ATOM     32  H   UNL     1      49.024   2.050   6.953  0.00  0.00    +0.000 HD
ATOM     33  H   UNL     1      49.143   2.184   5.211  0.00  0.00    +0.000 HD
ENDBRANCH  25  29
ENDBRANCH  20  21
ENDBRANCH  19  20
ENDBRANCH   3  19
TORSDOF 6
ENDMDL
MODEL 6
REMARK VINA RESULT:    -7.080      5.421      8.427
REMARK INTER + INTRA:         -10.753
REMARK INTER:                  -9.841
REMARK INTRA:                  -0.912
REMARK UNBOUND:                -1.190
REMARK  Name = 
REMARK  8 active torsions:
REMARK  status: ('A' for Active; 'I' for Inactive)
REMARK    1  A    between atoms: C_1  and  C_2
REMARK    2  A    between atoms: N_4  and  C_5
REMARK    3  A    between atoms: C_7  and  C_8
REMARK    4  A    between atoms: C_8  and  C_9
REMARK    5  A    between atoms: C_9  and  N_10
REMARK    6  A    between atoms: C_14  and  C_15
REMARK    7  A    between atoms: C_21  and  C_22
REMARK    8  A    between atoms: C_28  and  C_29
REMARK                            x       y       z     vdW  Elec       q    Type
REMARK                         _______ _______ _______ _____ _____    ______ ____
ROOT
ATOM      1  C   UNL     1      46.084   4.898  13.328  0.00  0.00    +0.000 A 
ATOM      2  C   UNL     1      46.448   4.761  14.680  0.00  0.00    +0.000 A 
ATOM      3  C   UNL     1      47.543   5.441  15.244  0.00  0.00    +0.000 A 
ATOM      4  C   UNL     1      48.266   6.328  14.440  0.00  0.00    +0.000 A 
ATOM      5  C   UNL     1      47.933   6.498  13.092  0.00  0.00    +0.000 A 
ATOM      6  C   UNL     1      46.846   5.786  12.557  0.00  0.00    +0.000 A 
ENDROOT
BRANCH   1  10
ATOM      7  C   UNL     1      42.976   6.212  11.374  0.00  0.00    +0.000 C 
ATOM      8  C   UNL     1      42.833   4.757  11.808  0.00  0.00    +0.000 C 
ATOM      9  C   UNL     1      43.627   4.431  13.091  0.00  0.00    +0.000 C 
ATOM     10  N   UNL     1      45.040   4.177  12.790  0.00  0.00    +0.000 N 
ATOM     11  C   UNL     1      45.247   3.159  11.752  0.00  0.00    +0.000 C 
ATOM     12  C   UNL     1      44.466   3.527  10.474  0.00  0.00    +0.000 C 
ATOM     13  C   UNL     1      45.157   4.602   9.637  0.00  0.00    +0.000 C 
ATOM     14  O   UNL     1      43.087   3.841  10.728  0.00  0.00    +0.000 OA
ENDBRANCH   1  10
BRANCH   5  15
ATOM     15  C   UNL     1      48.747   7.393  12.193  0.00  0.00    +0.000 C 
ATOM     16  F   UNL     1      50.068   7.065  12.149  0.00  0.00    +0.000 F 
ATOM     17  F   UNL     1      48.312   7.363  10.902  0.00  0.00    +0.000 F 
ATOM     18  F   UNL     1      48.700   8.700  12.571  0.00  0.00    +0.000 F 
ENDBRANCH   5  15
BRANCH   3  19
ATOM     19  C   UNL     1      47.959   5.206  16.681  0.00  0.00    +0.000 C 
BRANCH  19  20
ATOM     20  C   UNL     1      48.880   3.987  16.831  0.00  0.00    +0.000 C 
BRANCH  20  21
ATOM     21  N   UNL     1      50.141   4.343  17.500  0.00  0.00    +0.000 N 
ATOM     22  C   UNL     1      51.033   3.251  17.572  0.00  0.00    +0.000 A 
ATOM     23  C   UNL     1      52.279   3.432  18.167  0.00  0.00    +0.000 A 
ATOM     24  C   UNL     1      53.172   2.361  18.229  0.00  0.00    +0.000 A 
ATOM     25  C   UNL     1      52.774   1.149  17.695  0.00  0.00    +0.000 A 
ATOM     26  N   UNL     1      51.569   0.979  17.115  0.00  0.00    +0.000 NA
ATOM     27  N   UNL     1      50.708   2.046  17.047  0.00  0.00    +0.000 NA
ATOM     28  H   UNL     1      49.993   4.706  18.440  0.00  0.00    +0.000 HD
BRANCH  25  29
ATOM     29  C   UNL     1      53.663  -0.046  17.743  0.00  0.00    +0.000 C 
ATOM     30  N   UNL     1      53.354  -0.998  18.681  0.00  0.00    +0.000 N 
ATOM     31  O   UNL     1      54.626  -0.171  17.001  0.00  0.00    +0.000 OA
ATOM     32  H   UNL     1      52.556  -0.890  19.297  0.00  0.00    +0.000 HD
ATOM     33  H   UNL     1      53.939  -1.818  18.755  0.00  0.00    +0.000 HD
ENDBRANCH  25  29
ENDBRANCH  20  21
ENDBRANCH  19  20
ENDBRANCH   3  19
TORSDOF 6
ENDMDL
MODEL 7
REMARK VINA RESULT:    -6.717      4.643      7.109
REMARK INTER + INTRA:         -10.263
REMARK INTER:                  -9.516
REMARK INTRA:                  -0.747
REMARK UNBOUND:                -1.190
REMARK  Name = 
REMARK  8 active torsions:
REMARK  status: ('A' for Active; 'I' for Inactive)
REMARK    1  A    between atoms: C_1  and  C_2
REMARK    2  A    between atoms: N_4  and  C_5
REMARK    3  A    between atoms: C_7  and  C_8
REMARK    4  A    between atoms: C_8  and  C_9
REMARK    5  A    between atoms: C_9  and  N_10
REMARK    6  A    between atoms: C_14  and  C_15
REMARK    7  A    between atoms: C_21  and  C_22
REMARK    8  A    between atoms: C_28  and  C_29
REMARK                            x       y       z     vdW  Elec       q    Type
REMARK                         _______ _______ _______ _____ _____    ______ ____
ROOT
ATOM      1  C   UNL     1      46.786   7.076  13.288  0.00  0.00    +0.000 A 
ATOM      2  C   UNL     1      47.345   5.964  13.944  0.00  0.00    +0.000 A 
ATOM      3  C   UNL     1      46.699   4.716  14.007  0.00  0.00    +0.000 A 
ATOM      4  C   UNL     1      45.477   4.561  13.346  0.00  0.00    +0.000 A 
ATOM      5  C   UNL     1      44.890   5.639  12.675  0.00  0.00    +0.000 A 
ATOM      6  C   UNL     1      45.553   6.878  12.651  0.00  0.00    +0.000 A 
ENDROOT
BRANCH   1  10
ATOM      7  C   UNL     1      50.363   7.968  14.560  0.00  0.00    +0.000 C 
ATOM      8  C   UNL     1      49.500   9.199  14.301  0.00  0.00    +0.000 C 
ATOM      9  C   UNL     1      47.993   8.926  14.485  0.00  0.00    +0.000 C 
ATOM     10  N   UNL     1      47.416   8.302  13.289  0.00  0.00    +0.000 N 
ATOM     11  C   UNL     1      47.685   9.042  12.050  0.00  0.00    +0.000 C 
ATOM     12  C   UNL     1      49.200   9.274  11.879  0.00  0.00    +0.000 C 
ATOM     13  C   UNL     1      49.942   8.039  11.369  0.00  0.00    +0.000 C 
ATOM     14  O   UNL     1      49.820   9.833  13.049  0.00  0.00    +0.000 OA
ENDBRANCH   1  10
BRANCH   5  15
ATOM     15  C   UNL     1      43.538   5.510  12.021  0.00  0.00    +0.000 C 
ATOM     16  F   UNL     1      43.267   6.501  11.128  0.00  0.00    +0.000 F 
ATOM     17  F   UNL     1      43.408   4.342  11.331  0.00  0.00    +0.000 F 
ATOM     18  F   UNL     1      42.516   5.526  12.921  0.00  0.00    +0.000 F 
ENDBRANCH   5  15
BRANCH   3  19
ATOM     19  C   UNL     1      47.289   3.564  14.794  0.00  0.00    +0.000 C 
BRANCH  19  20
ATOM     20  C   UNL     1      47.151   3.762  16.310  0.00  0.00    +0.000 C 
BRANCH  20  21
ATOM     21  N   UNL     1      48.292   4.510  16.862  0.00  0.00    +0.000 N 
ATOM     22  C   UNL     1      49.415   3.682  17.082  0.00  0.00    +0.000 A 
ATOM     23  C   UNL     1      50.582   4.246  17.591  0.00  0.00    +0.000 A 
ATOM     24  C   UNL     1      51.701   3.437  17.797  0.00  0.00    +0.000 A 
ATOM     25  C   UNL     1      51.599   2.092  17.490  0.00  0.00    +0.000 A 
ATOM     26  N   UNL     1      50.468   1.552  16.993  0.00  0.00    +0.000 NA
ATOM     27  N   UNL     1      49.382   2.363  16.780  0.00  0.00    +0.000 NA
ATOM     28  H   UNL     1      48.061   4.985  17.732  0.00  0.00    +0.000 HD
BRANCH  25  29
ATOM     29  C   UNL     1      52.743   1.162  17.704  0.00  0.00    +0.000 C 
ATOM     30  N   UNL     1      52.443  -0.054  18.263  0.00  0.00    +0.000 N 
ATOM     31  O   UNL     1      53.891   1.466  17.415  0.00  0.00    +0.000 OA
ATOM     32  H   UNL     1      51.490  -0.301  18.503  0.00  0.00    +0.000 HD
ATOM     33  H   UNL     1      53.192  -0.709  18.435  0.00  0.00    +0.000 HD
ENDBRANCH  25  29
ENDBRANCH  20  21
ENDBRANCH  19  20
ENDBRANCH   3  19
TORSDOF 6
ENDMDL
MODEL 8
REMARK VINA RESULT:    -6.606      3.755      5.681
REMARK INTER + INTRA:         -10.113
REMARK INTER:                  -9.150
REMARK INTRA:                  -0.963
REMARK UNBOUND:                -1.190
REMARK  Name = 
REMARK  8 active torsions:
REMARK  status: ('A' for Active; 'I' for Inactive)
REMARK    1  A    between atoms: C_1  and  C_2
REMARK    2  A    between atoms: N_4  and  C_5
REMARK    3  A    between atoms: C_7  and  C_8
REMARK    4  A    between atoms: C_8  and  C_9
REMARK    5  A    between atoms: C_9  and  N_10
REMARK    6  A    between atoms: C_14  and  C_15
REMARK    7  A    between atoms: C_21  and  C_22
REMARK    8  A    between atoms: C_28  and  C_29
REMARK                            x       y       z     vdW  Elec       q    Type
REMARK                         _______ _______ _______ _____ _____    ______ ____
ROOT
ATOM      1  C   UNL     1      51.207   6.143  17.028  0.00  0.00    +0.000 A 
ATOM      2  C   UNL     1      49.825   5.882  17.049  0.00  0.00    +0.000 A 
ATOM      3  C   UNL     1      49.297   4.622  17.384  0.00  0.00    +0.000 A 
ATOM      4  C   UNL     1      50.178   3.606  17.762  0.00  0.00    +0.000 A 
ATOM      5  C   UNL     1      51.559   3.826  17.761  0.00  0.00    +0.000 A 
ATOM      6  C   UNL     1      52.054   5.090  17.400  0.00  0.00    +0.000 A 
ENDROOT
BRANCH   1  10
ATOM      7  C   UNL     1      50.430   8.163  13.783  0.00  0.00    +0.000 C 
ATOM      8  C   UNL     1      51.633   8.707  14.549  0.00  0.00    +0.000 C 
ATOM      9  C   UNL     1      52.369   7.622  15.361  0.00  0.00    +0.000 C 
ATOM     10  N   UNL     1      51.699   7.372  16.642  0.00  0.00    +0.000 N 
ATOM     11  C   UNL     1      51.476   8.586  17.437  0.00  0.00    +0.000 C 
ATOM     12  C   UNL     1      50.713   9.640  16.609  0.00  0.00    +0.000 C 
ATOM     13  C   UNL     1      49.215   9.358  16.515  0.00  0.00    +0.000 C 
ATOM     14  O   UNL     1      51.302   9.876  15.319  0.00  0.00    +0.000 OA
ENDBRANCH   1  10
BRANCH   5  15
ATOM     15  C   UNL     1      52.527   2.719  18.094  0.00  0.00    +0.000 C 
ATOM     16  F   UNL     1      52.996   2.770  19.371  0.00  0.00    +0.000 F 
ATOM     17  F   UNL     1      51.968   1.484  17.951  0.00  0.00    +0.000 F 
ATOM     18  F   UNL     1      53.627   2.724  17.291  0.00  0.00    +0.000 F 
ENDBRANCH   5  15
BRANCH   3  19
ATOM     19  C   UNL     1      47.807   4.351  17.314  0.00  0.00    +0.000 C 
BRANCH  19  20
ATOM     20  C   UNL     1      47.352   3.953  15.903  0.00  0.00    +0.000 C 
BRANCH  20  21
ATOM     21  N   UNL     1      47.116   5.135  15.060  0.00  0.00    +0.000 N 
ATOM     22  C   UNL     1      46.399   4.818  13.886  0.00  0.00    +0.000 A 
ATOM     23  C   UNL     1      46.086   5.835  12.988  0.00  0.00    +0.000 A 
ATOM     24  C   UNL     1      45.364   5.531  11.832  0.00  0.00    +0.000 A 
ATOM     25  C   UNL     1      44.993   4.215  11.622  0.00  0.00    +0.000 A 
ATOM     26  N   UNL     1      45.295   3.234  12.497  0.00  0.00    +0.000 NA
ATOM     27  N   UNL     1      45.990   3.552  13.637  0.00  0.00    +0.000 NA
ATOM     28  H   UNL     1      47.982   5.604  14.798  0.00  0.00    +0.000 HD
BRANCH  25  29
ATOM     29  C   UNL     1      44.241   3.810  10.401  0.00  0.00    +0.000 C 
ATOM     30  N   UNL     1      44.091   4.769   9.432  0.00  0.00    +0.000 N 
ATOM     31  O   UNL     1      43.769   2.691  10.270  0.00  0.00    +0.000 OA
ATOM     32  H   UNL     1      44.483   5.697   9.545  0.00  0.00    +0.000 HD
ATOM     33  H   UNL     1      43.578   4.538   8.594  0.00  0.00    +0.000 HD
ENDBRANCH  25  29
ENDBRANCH  20  21
ENDBRANCH  19  20
ENDBRANCH   3  19
TORSDOF 6
ENDMDL
MODEL 9
REMARK VINA RESULT:    -6.595      4.891      6.852
REMARK INTER + INTRA:         -10.098
REMARK INTER:                  -9.207
REMARK INTRA:                  -0.891
REMARK UNBOUND:                -1.190
REMARK  Name = 
REMARK  8 active torsions:
REMARK  status: ('A' for Active; 'I' for Inactive)
REMARK    1  A    between atoms: C_1  and  C_2
REMARK    2  A    between atoms: N_4  and  C_5
REMARK    3  A    between atoms: C_7  and  C_8
REMARK    4  A    between atoms: C_8  and  C_9
REMARK    5  A    between atoms: C_9  and  N_10
REMARK    6  A    between atoms: C_14  and  C_15
REMARK    7  A    between atoms: C_21  and  C_22
REMARK    8  A    between atoms: C_28  and  C_29
REMARK                            x       y       z     vdW  Elec       q    Type
REMARK                         _______ _______ _______ _____ _____    ______ ____
ROOT
ATOM      1  C   UNL     1      50.492   4.927  18.785  0.00  0.00    +0.000 A 
ATOM      2  C   UNL     1      49.382   4.494  18.038  0.00  0.00    +0.000 A 
ATOM      3  C   UNL     1      49.385   3.297  17.299  0.00  0.00    +0.000 A 
ATOM      4  C   UNL     1      50.519   2.481  17.353  0.00  0.00    +0.000 A 
ATOM      5  C   UNL     1      51.642   2.871  18.090  0.00  0.00    +0.000 A 
ATOM      6  C   UNL     1      51.611   4.084  18.798  0.00  0.00    +0.000 A 
ENDROOT
BRANCH   1  10
ATOM      7  C   UNL     1      48.222   8.035  18.157  0.00  0.00    +0.000 C 
ATOM      8  C   UNL     1      49.402   8.337  19.075  0.00  0.00    +0.000 C 
ATOM      9  C   UNL     1      50.624   7.437  18.800  0.00  0.00    +0.000 C 
ATOM     10  N   UNL     1      50.480   6.132  19.455  0.00  0.00    +0.000 N 
ATOM     11  C   UNL     1      50.187   6.224  20.891  0.00  0.00    +0.000 C 
ATOM     12  C   UNL     1      48.944   7.105  21.132  0.00  0.00    +0.000 C 
ATOM     13  C   UNL     1      47.630   6.378  20.852  0.00  0.00    +0.000 C 
ATOM     14  O   UNL     1      49.015   8.374  20.461  0.00  0.00    +0.000 OA
ENDBRANCH   1  10
BRANCH   5  15
ATOM     15  C   UNL     1      52.899   2.039  18.097  0.00  0.00    +0.000 C 
ATOM     16  F   UNL     1      53.771   2.360  17.102  0.00  0.00    +0.000 F 
ATOM     17  F   UNL     1      53.597   2.169  19.261  0.00  0.00    +0.000 F 
ATOM     18  F   UNL     1      52.648   0.708  17.960  0.00  0.00    +0.000 F 
ENDBRANCH   5  15
BRANCH   3  19
ATOM     19  C   UNL     1      48.203   2.902  16.437  0.00  0.00    +0.000 C 
BRANCH  19  20
ATOM     20  C   UNL     1      47.136   4.003  16.370  0.00  0.00    +0.000 C 
BRANCH  20  21
ATOM     21  N   UNL     1      47.515   5.064  15.424  0.00  0.00    +0.000 N 
ATOM     22  C   UNL     1      46.789   4.984  14.215  0.00  0.00    +0.000 A 
ATOM     23  C   UNL     1      47.025   5.928  13.220  0.00  0.00    +0.000 A 
ATOM     24  C   UNL     1      46.301   5.864  12.028  0.00  0.00    +0.000 A 
ATOM     25  C   UNL     1      45.373   4.849  11.882  0.00  0.00    +0.000 A 
ATOM     26  N   UNL     1      45.145   3.939  12.851  0.00  0.00    +0.000 NA
ATOM     27  N   UNL     1      45.853   4.025  14.024  0.00  0.00    +0.000 NA
ATOM     28  H   UNL     1      48.510   5.055  15.209  0.00  0.00    +0.000 HD
BRANCH  25  29
ATOM     29  C   UNL     1      44.579   4.702  10.631  0.00  0.00    +0.000 C 
ATOM     30  N   UNL     1      45.231   4.987   9.458  0.00  0.00    +0.000 N 
ATOM     31  O   UNL     1      43.405   4.362  10.641  0.00  0.00    +0.000 OA
ATOM     32  H   UNL     1      46.204   5.272   9.454  0.00  0.00    +0.000 HD
ATOM     33  H   UNL     1      44.725   4.911   8.588  0.00  0.00    +0.000 HD
ENDBRANCH  25  29
ENDBRANCH  20  21
ENDBRANCH  19  20
ENDBRANCH   3  19
TORSDOF 6
ENDMDL
