MODEL 1
REMARK VINA RESULT:    -8.652      0.000      0.000
REMARK INTER + INTRA:         -12.373
REMARK INTER:                 -11.181
REMARK INTRA:                  -1.192
REMARK UNBOUND:                -1.192
REMARK  Name = 
REMARK  5 active torsions:
REMARK  status: ('A' for Active; 'I' for Inactive)
REMARK    1  A    between atoms: C_2  and  C_3
REMARK    2  A    between atoms: C_6  and  N_7
REMARK    3  A    between atoms: N_7  and  C_8
REMARK    4  A    between atoms: C_8  and  C_9
REMARK    5  A    between atoms: C_13  and  C_14
REMARK                            x       y       z     vdW  Elec       q    Type
REMARK                         _______ _______ _______ _____ _____    ______ ____
ROOT
ATOM      1  C   UNL     1      43.919   4.901  11.504  0.00  0.00    +0.000 C 
ATOM      2  C   UNL     1      43.392   3.907  12.533  0.00  0.00    +0.000 C 
ATOM      3  C   UNL     1      42.659   5.187  12.318  0.00  0.00    +0.000 C 
ENDROOT
BRANCH   1   4
ATOM      4  C   UNL     1      45.131   5.744  11.881  0.00  0.00    +0.000 A 
ATOM      5  C   UNL     1      45.268   7.088  11.507  0.00  0.00    +0.000 A 
ATOM      6  C   UNL     1      46.263   7.893  12.072  0.00  0.00    +0.000 A 
ATOM      7  C   UNL     1      47.137   7.370  13.030  0.00  0.00    +0.000 A 
ATOM      8  C   UNL     1      47.056   6.024  13.388  0.00  0.00    +0.000 A 
ATOM      9  C   UNL     1      46.089   5.228  12.763  0.00  0.00    +0.000 A 
BRANCH   8  10
ATOM     10  C   UNL     1      47.892   5.433  14.505  0.00  0.00    +0.000 C 
ATOM     11  C   UNL     1      47.095   4.440  15.364  0.00  0.00    +0.000 C 
ATOM     12  C   UNL     1      47.912   3.999  16.571  0.00  0.00    +0.000 C 
ATOM     13  O   UNL     1      48.346   5.126  17.331  0.00  0.00    +0.000 OA
ATOM     14  C   UNL     1      49.212   5.978  16.584  0.00  0.00    +0.000 C 
ATOM     15  C   UNL     1      48.480   6.555  15.386  0.00  0.00    +0.000 C 
ENDBRANCH   8  10
ENDBRANCH   1   4
BRANCH   1  16
ATOM     16  N   UNL     1      43.755   4.618  10.065  0.00  0.00    +0.000 N 
ATOM     17  H   UNL     1      42.812   4.367   9.779  0.00  0.00    +0.000 HD
BRANCH  16  21
ATOM     18  C   UNL     1      46.611   2.697   7.575  0.00  0.00    +0.000 A 
ATOM     19  C   UNL     1      46.537   4.086   7.594  0.00  0.00    +0.000 A 
ATOM     20  C   UNL     1      45.613   4.735   8.428  0.00  0.00    +0.000 A 
ATOM     21  C   UNL     1      44.751   4.015   9.263  0.00  0.00    +0.000 A 
ATOM     22  C   UNL     1      44.816   2.620   9.214  0.00  0.00    +0.000 A 
ATOM     23  C   UNL     1      45.745   1.973   8.390  0.00  0.00    +0.000 A 
ATOM     24  F   UNL     1      45.780   0.633   8.395  0.00  0.00    +0.000 F 
BRANCH  18  26
ATOM     25  N   UNL     1      48.324   1.507   6.033  0.00  0.00    +0.000 NA
ATOM     26  C   UNL     1      47.549   2.023   6.726  0.00  0.00    +0.000 C 
ENDBRANCH  18  26
ENDBRANCH  16  21
ENDBRANCH   1  16
TORSDOF 5
ENDMDL
MODEL 2
REMARK VINA RESULT:    -8.466      1.988      3.150
REMARK INTER + INTRA:         -12.132
REMARK INTER:                 -10.928
REMARK INTRA:                  -1.204
REMARK UNBOUND:                -1.192
REMARK  Name = 
REMARK  5 active torsions:
REMARK  status: ('A' for Active; 'I' for Inactive)
REMARK    1  A    between atoms: C_2  and  C_3
REMARK    2  A    between atoms: C_6  and  N_7
REMARK    3  A    between atoms: N_7  and  C_8
REMARK    4  A    between atoms: C_8  and  C_9
REMARK    5  A    between atoms: C_13  and  C_14
REMARK                            x       y       z     vdW  Elec       q    Type
REMARK                         _______ _______ _______ _____ _____    ______ ____
ROOT
ATOM      1  C   UNL     1      43.991   4.784  11.510  0.00  0.00    +0.000 C 
ATOM      2  C   UNL     1      43.103   3.709  12.127  0.00  0.00    +0.000 C 
ATOM      3  C   UNL     1      42.676   5.136  12.202  0.00  0.00    +0.000 C 
ENDROOT
BRANCH   1   4
ATOM      4  C   UNL     1      45.246   5.197  12.269  0.00  0.00    +0.000 A 
ATOM      5  C   UNL     1      45.852   4.384  13.237  0.00  0.00    +0.000 A 
ATOM      6  C   UNL     1      47.126   4.682  13.731  0.00  0.00    +0.000 A 
ATOM      7  C   UNL     1      47.825   5.797  13.257  0.00  0.00    +0.000 A 
ATOM      8  C   UNL     1      47.230   6.651  12.329  0.00  0.00    +0.000 A 
ATOM      9  C   UNL     1      45.931   6.361  11.897  0.00  0.00    +0.000 A 
BRANCH   8  10
ATOM     10  C   UNL     1      47.983   7.802  11.691  0.00  0.00    +0.000 C 
ATOM     11  C   UNL     1      49.491   7.735  11.969  0.00  0.00    +0.000 C 
ATOM     12  C   UNL     1      50.187   8.990  11.460  0.00  0.00    +0.000 C 
ATOM     13  O   UNL     1      49.597  10.162  12.021  0.00  0.00    +0.000 OA
ATOM     14  C   UNL     1      48.230  10.312  11.642  0.00  0.00    +0.000 C 
ATOM     15  C   UNL     1      47.407   9.151  12.169  0.00  0.00    +0.000 C 
ENDBRANCH   8  10
ENDBRANCH   1   4
BRANCH   1  16
ATOM     16  N   UNL     1      44.052   4.927  10.041  0.00  0.00    +0.000 N 
ATOM     17  H   UNL     1      43.153   5.053   9.582  0.00  0.00    +0.000 HD
BRANCH  16  21
ATOM     18  C   UNL     1      46.750   2.840   7.509  0.00  0.00    +0.000 A 
ATOM     19  C   UNL     1      46.763   4.231   7.533  0.00  0.00    +0.000 A 
ATOM     20  C   UNL     1      45.892   4.934   8.380  0.00  0.00    +0.000 A 
ATOM     21  C   UNL     1      44.998   4.266   9.225  0.00  0.00    +0.000 A 
ATOM     22  C   UNL     1      44.975   2.869   9.171  0.00  0.00    +0.000 A 
ATOM     23  C   UNL     1      45.852   2.169   8.333  0.00  0.00    +0.000 A 
ATOM     24  F   UNL     1      45.803   0.829   8.335  0.00  0.00    +0.000 F 
BRANCH  18  26
ATOM     25  N   UNL     1      48.364   1.510   5.975  0.00  0.00    +0.000 NA
ATOM     26  C   UNL     1      47.633   2.112   6.647  0.00  0.00    +0.000 C 
ENDBRANCH  18  26
ENDBRANCH  16  21
ENDBRANCH   1  16
TORSDOF 5
ENDMDL
MODEL 3
REMARK VINA RESULT:    -8.312      1.752      2.162
REMARK INTER + INTRA:         -11.933
REMARK INTER:                 -10.904
REMARK INTRA:                  -1.029
REMARK UNBOUND:                -1.192
REMARK  Name = 
REMARK  5 active torsions:
REMARK  status: ('A' for Active; 'I' for Inactive)
REMARK    1  A    between atoms: C_2  and  C_3
REMARK    2  A    between atoms: C_6  and  N_7
REMARK    3  A    between atoms: N_7  and  C_8
REMARK    4  A    between atoms: C_8  and  C_9
REMARK    5  A    between atoms: C_13  and  C_14
REMARK                            x       y       z     vdW  Elec       q    Type
REMARK                         _______ _______ _______ _____ _____    ______ ____
ROOT
ATOM      1  C   UNL     1      44.345   4.373  11.598  0.00  0.00    +0.000 C 
ATOM      2  C   UNL     1      44.667   3.411  12.736  0.00  0.00    +0.000 C 
ATOM      3  C   UNL     1      43.362   4.131  12.741  0.00  0.00    +0.000 C 
ENDROOT
BRANCH   1   4
ATOM      4  C   UNL     1      45.016   5.741  11.607  0.00  0.00    +0.000 A 
ATOM      5  C   UNL     1      44.298   6.941  11.503  0.00  0.00    +0.000 A 
ATOM      6  C   UNL     1      44.912   8.171  11.761  0.00  0.00    +0.000 A 
ATOM      7  C   UNL     1      46.258   8.224  12.137  0.00  0.00    +0.000 A 
ATOM      8  C   UNL     1      47.011   7.051  12.202  0.00  0.00    +0.000 A 
ATOM      9  C   UNL     1      46.386   5.841  11.882  0.00  0.00    +0.000 A 
BRANCH   8  10
ATOM     10  C   UNL     1      48.436   7.034  12.720  0.00  0.00    +0.000 C 
ATOM     11  C   UNL     1      48.502   7.218  14.243  0.00  0.00    +0.000 C 
ATOM     12  C   UNL     1      49.947   7.365  14.703  0.00  0.00    +0.000 C 
ATOM     13  O   UNL     1      50.595   8.432  14.012  0.00  0.00    +0.000 OA
ATOM     14  C   UNL     1      50.671   8.197  12.608  0.00  0.00    +0.000 C 
ATOM     15  C   UNL     1      49.278   8.114  12.010  0.00  0.00    +0.000 C 
ENDBRANCH   8  10
ENDBRANCH   1   4
BRANCH   1  16
ATOM     16  N   UNL     1      43.994   3.838  10.267  0.00  0.00    +0.000 N 
ATOM     17  H   UNL     1      43.148   3.275  10.238  0.00  0.00    +0.000 HD
BRANCH  16  21
ATOM     18  C   UNL     1      46.731   2.539   7.289  0.00  0.00    +0.000 A 
ATOM     19  C   UNL     1      46.453   3.895   7.424  0.00  0.00    +0.000 A 
ATOM     20  C   UNL     1      45.567   4.341   8.418  0.00  0.00    +0.000 A 
ATOM     21  C   UNL     1      44.948   3.447   9.299  0.00  0.00    +0.000 A 
ATOM     22  C   UNL     1      45.214   2.085   9.135  0.00  0.00    +0.000 A 
ATOM     23  C   UNL     1      46.106   1.642   8.151  0.00  0.00    +0.000 A 
ATOM     24  F   UNL     1      46.343   0.326   8.048  0.00  0.00    +0.000 F 
BRANCH  18  26
ATOM     25  N   UNL     1      48.380   1.721   5.461  0.00  0.00    +0.000 NA
ATOM     26  C   UNL     1      47.632   2.072   6.277  0.00  0.00    +0.000 C 
ENDBRANCH  18  26
ENDBRANCH  16  21
ENDBRANCH   1  16
TORSDOF 5
ENDMDL
MODEL 4
REMARK VINA RESULT:    -7.514      2.133      2.848
REMARK INTER + INTRA:         -10.902
REMARK INTER:                  -9.837
REMARK INTRA:                  -1.066
REMARK UNBOUND:                -1.192
REMARK  Name = 
REMARK  5 active torsions:
REMARK  status: ('A' for Active; 'I' for Inactive)
REMARK    1  A    between atoms: C_2  and  C_3
REMARK    2  A    between atoms: C_6  and  N_7
REMARK    3  A    between atoms: N_7  and  C_8
REMARK    4  A    between atoms: C_8  and  C_9
REMARK    5  A    between atoms: C_13  and  C_14
REMARK                            x       y       z     vdW  Elec       q    Type
REMARK                         _______ _______ _______ _____ _____    ______ ____
ROOT
ATOM      1  C   UNL     1      44.309   5.807  11.689  0.00  0.00    +0.000 C 
ATOM      2  C   UNL     1      44.871   4.872  12.753  0.00  0.00    +0.000 C 
ATOM      3  C   UNL     1      43.545   5.514  12.978  0.00  0.00    +0.000 C 
ENDROOT
BRANCH   1   4
ATOM      4  C   UNL     1      44.890   7.213  11.594  0.00  0.00    +0.000 A 
ATOM      5  C   UNL     1      44.117   8.334  11.259  0.00  0.00    +0.000 A 
ATOM      6  C   UNL     1      44.622   9.629  11.421  0.00  0.00    +0.000 A 
ATOM      7  C   UNL     1      45.909   9.827  11.930  0.00  0.00    +0.000 A 
ATOM      8  C   UNL     1      46.719   8.731  12.227  0.00  0.00    +0.000 A 
ATOM      9  C   UNL     1      46.209   7.448  12.000  0.00  0.00    +0.000 A 
BRANCH   8  10
ATOM     10  C   UNL     1      48.072   8.882  12.893  0.00  0.00    +0.000 C 
ATOM     11  C   UNL     1      49.202   8.257  12.063  0.00  0.00    +0.000 C 
ATOM     12  C   UNL     1      50.512   8.277  12.839  0.00  0.00    +0.000 C 
ATOM     13  O   UNL     1      50.366   7.632  14.103  0.00  0.00    +0.000 OA
ATOM     14  C   UNL     1      49.424   8.298  14.942  0.00  0.00    +0.000 C 
ATOM     15  C   UNL     1      48.044   8.271  14.310  0.00  0.00    +0.000 C 
ENDBRANCH   8  10
ENDBRANCH   1   4
BRANCH   1  16
ATOM     16  N   UNL     1      43.773   5.247  10.432  0.00  0.00    +0.000 N 
ATOM     17  H   UNL     1      42.761   5.158  10.396  0.00  0.00    +0.000 HD
BRANCH  16  21
ATOM     18  C   UNL     1      45.941   2.376   8.172  0.00  0.00    +0.000 A 
ATOM     19  C   UNL     1      44.977   1.953   9.081  0.00  0.00    +0.000 A 
ATOM     20  C   UNL     1      44.238   2.890   9.820  0.00  0.00    +0.000 A 
ATOM     21  C   UNL     1      44.439   4.266   9.661  0.00  0.00    +0.000 A 
ATOM     22  C   UNL     1      45.429   4.679   8.766  0.00  0.00    +0.000 A 
ATOM     23  C   UNL     1      46.158   3.743   8.022  0.00  0.00    +0.000 A 
ATOM     24  F   UNL     1      47.083   4.192   7.161  0.00  0.00    +0.000 F 
BRANCH  18  26
ATOM     25  N   UNL     1      47.338   0.653   6.827  0.00  0.00    +0.000 NA
ATOM     26  C   UNL     1      46.703   1.428   7.414  0.00  0.00    +0.000 C 
ENDBRANCH  18  26
ENDBRANCH  16  21
ENDBRANCH   1  16
TORSDOF 5
ENDMDL
MODEL 5
REMARK VINA RESULT:    -6.470      3.905      7.530
REMARK INTER + INTRA:          -9.553
REMARK INTER:                  -9.056
REMARK INTRA:                  -0.497
REMARK UNBOUND:                -1.192
REMARK  Name = 
REMARK  5 active torsions:
REMARK  status: ('A' for Active; 'I' for Inactive)
REMARK    1  A    between atoms: C_2  and  C_3
REMARK    2  A    between atoms: C_6  and  N_7
REMARK    3  A    between atoms: N_7  and  C_8
REMARK    4  A    between atoms: C_8  and  C_9
REMARK    5  A    between atoms: C_13  and  C_14
REMARK                            x       y       z     vdW  Elec       q    Type
REMARK                         _______ _______ _______ _____ _____    ______ ____
ROOT
ATOM      1  C   UNL     1      46.227   7.165  12.432  0.00  0.00    +0.000 C 
ATOM      2  C   UNL     1      46.117   8.498  11.699  0.00  0.00    +0.000 C 
ATOM      3  C   UNL     1      45.637   8.401  13.108  0.00  0.00    +0.000 C 
ENDROOT
BRANCH   1   4
ATOM      4  C   UNL     1      45.216   6.077  12.091  0.00  0.00    +0.000 A 
ATOM      5  C   UNL     1      43.944   6.009  12.678  0.00  0.00    +0.000 A 
ATOM      6  C   UNL     1      42.962   5.154  12.167  0.00  0.00    +0.000 A 
ATOM      7  C   UNL     1      43.230   4.355  11.051  0.00  0.00    +0.000 A 
ATOM      8  C   UNL     1      44.501   4.365  10.475  0.00  0.00    +0.000 A 
ATOM      9  C   UNL     1      45.481   5.187  11.042  0.00  0.00    +0.000 A 
BRANCH   8  10
ATOM     10  C   UNL     1      44.813   3.616   9.195  0.00  0.00    +0.000 C 
ATOM     11  C   UNL     1      45.338   2.198   9.465  0.00  0.00    +0.000 C 
ATOM     12  C   UNL     1      45.799   1.542   8.171  0.00  0.00    +0.000 C 
ATOM     13  O   UNL     1      46.773   2.349   7.509  0.00  0.00    +0.000 OA
ATOM     14  C   UNL     1      46.247   3.615   7.119  0.00  0.00    +0.000 C 
ATOM     15  C   UNL     1      45.824   4.410   8.341  0.00  0.00    +0.000 C 
ENDBRANCH   8  10
ENDBRANCH   1   4
BRANCH   1  16
ATOM     16  N   UNL     1      47.546   6.694  12.897  0.00  0.00    +0.000 N 
ATOM     17  H   UNL     1      48.174   6.375  12.163  0.00  0.00    +0.000 HD
BRANCH  16  21
ATOM     18  C   UNL     1      48.125   4.856  16.683  0.00  0.00    +0.000 A 
ATOM     19  C   UNL     1      47.300   4.249  15.741  0.00  0.00    +0.000 A 
ATOM     20  C   UNL     1      47.116   4.834  14.478  0.00  0.00    +0.000 A 
ATOM     21  C   UNL     1      47.756   6.028  14.126  0.00  0.00    +0.000 A 
ATOM     22  C   UNL     1      48.560   6.642  15.090  0.00  0.00    +0.000 A 
ATOM     23  C   UNL     1      48.751   6.052  16.346  0.00  0.00    +0.000 A 
ATOM     24  F   UNL     1      49.549   6.672  17.228  0.00  0.00    +0.000 F 
BRANCH  18  26
ATOM     25  N   UNL     1      48.484   3.824  19.035  0.00  0.00    +0.000 NA
ATOM     26  C   UNL     1      48.319   4.269  17.976  0.00  0.00    +0.000 C 
ENDBRANCH  18  26
ENDBRANCH  16  21
ENDBRANCH   1  16
TORSDOF 5
ENDMDL
MODEL 6
REMARK VINA RESULT:    -6.399      3.980      7.637
REMARK INTER + INTRA:          -9.461
REMARK INTER:                  -9.004
REMARK INTRA:                  -0.457
REMARK UNBOUND:                -1.192
REMARK  Name = 
REMARK  5 active torsions:
REMARK  status: ('A' for Active; 'I' for Inactive)
REMARK    1  A    between atoms: C_2  and  C_3
REMARK    2  A    between atoms: C_6  and  N_7
REMARK    3  A    between atoms: N_7  and  C_8
REMARK    4  A    between atoms: C_8  and  C_9
REMARK    5  A    between atoms: C_13  and  C_14
REMARK                            x       y       z     vdW  Elec       q    Type
REMARK                         _______ _______ _______ _____ _____    ______ ____
ROOT
ATOM      1  C   UNL     1      46.314   5.299  13.693  0.00  0.00    +0.000 C 
ATOM      2  C   UNL     1      47.655   5.545  13.010  0.00  0.00    +0.000 C 
ATOM      3  C   UNL     1      46.866   6.710  13.501  0.00  0.00    +0.000 C 
ENDROOT
BRANCH   1   4
ATOM      4  C   UNL     1      45.117   4.953  12.814  0.00  0.00    +0.000 A 
ATOM      5  C   UNL     1      43.837   5.480  13.033  0.00  0.00    +0.000 A 
ATOM      6  C   UNL     1      42.829   5.338  12.073  0.00  0.00    +0.000 A 
ATOM      7  C   UNL     1      43.086   4.673  10.870  0.00  0.00    +0.000 A 
ATOM      8  C   UNL     1      44.337   4.097  10.644  0.00  0.00    +0.000 A 
ATOM      9  C   UNL     1      45.307   4.204  11.647  0.00  0.00    +0.000 A 
BRANCH   8  10
ATOM     10  C   UNL     1      44.711   3.473   9.315  0.00  0.00    +0.000 C 
ATOM     11  C   UNL     1      45.316   2.072   9.481  0.00  0.00    +0.000 C 
ATOM     12  C   UNL     1      45.834   1.550   8.147  0.00  0.00    +0.000 C 
ATOM     13  O   UNL     1      46.766   2.463   7.570  0.00  0.00    +0.000 OA
ATOM     14  C   UNL     1      46.169   3.724   7.272  0.00  0.00    +0.000 C 
ATOM     15  C   UNL     1      45.683   4.391   8.546  0.00  0.00    +0.000 C 
ENDBRANCH   8  10
ENDBRANCH   1   4
BRANCH   1  16
ATOM     16  N   UNL     1      46.282   4.757  15.066  0.00  0.00    +0.000 N 
ATOM     17  H   UNL     1      45.477   5.036  15.621  0.00  0.00    +0.000 HD
BRANCH  16  21
ATOM     18  C   UNL     1      49.826   3.969  17.272  0.00  0.00    +0.000 A 
ATOM     19  C   UNL     1      49.380   5.279  17.129  0.00  0.00    +0.000 A 
ATOM     20  C   UNL     1      48.199   5.553  16.421  0.00  0.00    +0.000 A 
ATOM     21  C   UNL     1      47.436   4.528  15.849  0.00  0.00    +0.000 A 
ATOM     22  C   UNL     1      47.910   3.219  15.975  0.00  0.00    +0.000 A 
ATOM     23  C   UNL     1      49.082   2.946  16.690  0.00  0.00    +0.000 A 
ATOM     24  F   UNL     1      49.482   1.671  16.799  0.00  0.00    +0.000 F 
BRANCH  18  26
ATOM     25  N   UNL     1      52.017   3.424  18.548  0.00  0.00    +0.000 NA
ATOM     26  C   UNL     1      51.031   3.678  17.990  0.00  0.00    +0.000 C 
ENDBRANCH  18  26
ENDBRANCH  16  21
ENDBRANCH   1  16
TORSDOF 5
ENDMDL
MODEL 7
REMARK VINA RESULT:    -6.072      3.939      6.126
REMARK INTER + INTRA:          -9.039
REMARK INTER:                  -7.584
REMARK INTRA:                  -1.455
REMARK UNBOUND:                -1.192
REMARK  Name = 
REMARK  5 active torsions:
REMARK  status: ('A' for Active; 'I' for Inactive)
REMARK    1  A    between atoms: C_2  and  C_3
REMARK    2  A    between atoms: C_6  and  N_7
REMARK    3  A    between atoms: N_7  and  C_8
REMARK    4  A    between atoms: C_8  and  C_9
REMARK    5  A    between atoms: C_13  and  C_14
REMARK                            x       y       z     vdW  Elec       q    Type
REMARK                         _______ _______ _______ _____ _____    ______ ____
ROOT
ATOM      1  C   UNL     1      49.566   8.270  14.436  0.00  0.00    +0.000 C 
ATOM      2  C   UNL     1      49.592   9.777  14.211  0.00  0.00    +0.000 C 
ATOM      3  C   UNL     1      50.879   9.026  14.246  0.00  0.00    +0.000 C 
ENDROOT
BRANCH   1   4
ATOM      4  C   UNL     1      49.318   7.763  15.852  0.00  0.00    +0.000 A 
ATOM      5  C   UNL     1      48.710   8.545  16.845  0.00  0.00    +0.000 A 
ATOM      6  C   UNL     1      48.278   7.973  18.046  0.00  0.00    +0.000 A 
ATOM      7  C   UNL     1      48.437   6.603  18.274  0.00  0.00    +0.000 A 
ATOM      8  C   UNL     1      49.081   5.807  17.326  0.00  0.00    +0.000 A 
ATOM      9  C   UNL     1      49.555   6.417  16.159  0.00  0.00    +0.000 A 
BRANCH   8  10
ATOM     10  C   UNL     1      49.173   4.301  17.464  0.00  0.00    +0.000 C 
ATOM     11  C   UNL     1      50.615   3.792  17.329  0.00  0.00    +0.000 C 
ATOM     12  C   UNL     1      50.647   2.270  17.302  0.00  0.00    +0.000 C 
ATOM     13  O   UNL     1      49.808   1.761  16.265  0.00  0.00    +0.000 OA
ATOM     14  C   UNL     1      48.438   2.104  16.465  0.00  0.00    +0.000 C 
ATOM     15  C   UNL     1      48.260   3.611  16.428  0.00  0.00    +0.000 C 
ENDBRANCH   8  10
ENDBRANCH   1   4
BRANCH   1  16
ATOM     16  N   UNL     1      49.125   7.375  13.347  0.00  0.00    +0.000 N 
ATOM     17  H   UNL     1      49.623   7.489  12.468  0.00  0.00    +0.000 HD
BRANCH  16  21
ATOM     18  C   UNL     1      45.121   6.003  12.989  0.00  0.00    +0.000 A 
ATOM     19  C   UNL     1      45.401   7.358  12.843  0.00  0.00    +0.000 A 
ATOM     20  C   UNL     1      46.722   7.824  12.938  0.00  0.00    +0.000 A 
ATOM     21  C   UNL     1      47.789   6.949  13.172  0.00  0.00    +0.000 A 
ATOM     22  C   UNL     1      47.492   5.594  13.344  0.00  0.00    +0.000 A 
ATOM     23  C   UNL     1      46.175   5.130  13.239  0.00  0.00    +0.000 A 
ATOM     24  F   UNL     1      45.946   3.817  13.393  0.00  0.00    +0.000 F 
BRANCH  18  26
ATOM     25  N   UNL     1      42.689   5.112  12.852  0.00  0.00    +0.000 NA
ATOM     26  C   UNL     1      43.776   5.518  12.897  0.00  0.00    +0.000 C 
ENDBRANCH  18  26
ENDBRANCH  16  21
ENDBRANCH   1  16
TORSDOF 5
ENDMDL
MODEL 8
REMARK VINA RESULT:    -6.064      3.281      5.007
REMARK INTER + INTRA:          -9.029
REMARK INTER:                  -8.423
REMARK INTRA:                  -0.605
REMARK UNBOUND:                -1.192
REMARK  Name = 
REMARK  5 active torsions:
REMARK  status: ('A' for Active; 'I' for Inactive)
REMARK    1  A    between atoms: C_2  and  C_3
REMARK    2  A    between atoms: C_6  and  N_7
REMARK    3  A    between atoms: N_7  and  C_8
REMARK    4  A    between atoms: C_8  and  C_9
REMARK    5  A    between atoms: C_13  and  C_14
REMARK                            x       y       z     vdW  Elec       q    Type
REMARK                         _______ _______ _______ _____ _____    ______ ____
ROOT
ATOM      1  C   UNL     1      47.734   8.042  13.199  0.00  0.00    +0.000 C 
ATOM      2  C   UNL     1      48.488   8.824  12.130  0.00  0.00    +0.000 C 
ATOM      3  C   UNL     1      48.561   7.335  12.128  0.00  0.00    +0.000 C 
ENDROOT
BRANCH   1   4
ATOM      4  C   UNL     1      48.328   7.996  14.603  0.00  0.00    +0.000 A 
ATOM      5  C   UNL     1      48.474   9.136  15.405  0.00  0.00    +0.000 A 
ATOM      6  C   UNL     1      48.789   9.023  16.763  0.00  0.00    +0.000 A 
ATOM      7  C   UNL     1      48.955   7.764  17.348  0.00  0.00    +0.000 A 
ATOM      8  C   UNL     1      48.863   6.613  16.565  0.00  0.00    +0.000 A 
ATOM      9  C   UNL     1      48.605   6.759  15.198  0.00  0.00    +0.000 A 
BRANCH   8  10
ATOM     10  C   UNL     1      48.913   5.222  17.165  0.00  0.00    +0.000 C 
ATOM     11  C   UNL     1      50.338   4.649  17.187  0.00  0.00    +0.000 C 
ATOM     12  C   UNL     1      50.324   3.194  17.635  0.00  0.00    +0.000 C 
ATOM     13  O   UNL     1      49.454   2.416  16.813  0.00  0.00    +0.000 OA
ATOM     14  C   UNL     1      48.098   2.848  16.905  0.00  0.00    +0.000 C 
ATOM     15  C   UNL     1      47.965   4.274  16.401  0.00  0.00    +0.000 C 
ENDBRANCH   8  10
ENDBRANCH   1   4
BRANCH   1  16
ATOM     16  N   UNL     1      46.264   7.925  13.120  0.00  0.00    +0.000 N 
ATOM     17  H   UNL     1      45.748   8.539  13.744  0.00  0.00    +0.000 HD
BRANCH  16  21
ATOM     18  C   UNL     1      44.262   4.311  12.133  0.00  0.00    +0.000 A 
ATOM     19  C   UNL     1      45.259   4.304  13.103  0.00  0.00    +0.000 A 
ATOM     20  C   UNL     1      45.915   5.494  13.455  0.00  0.00    +0.000 A 
ATOM     21  C   UNL     1      45.585   6.714  12.854  0.00  0.00    +0.000 A 
ATOM     22  C   UNL     1      44.601   6.704  11.862  0.00  0.00    +0.000 A 
ATOM     23  C   UNL     1      43.940   5.518  11.519  0.00  0.00    +0.000 A 
ATOM     24  F   UNL     1      42.989   5.566  10.575  0.00  0.00    +0.000 F 
BRANCH  18  26
ATOM     25  N   UNL     1      43.013   2.133  11.481  0.00  0.00    +0.000 NA
ATOM     26  C   UNL     1      43.587   3.102  11.765  0.00  0.00    +0.000 C 
ENDBRANCH  18  26
ENDBRANCH  16  21
ENDBRANCH   1  16
TORSDOF 5
ENDMDL
MODEL 9
REMARK VINA RESULT:    -6.044      4.625      7.598
REMARK INTER + INTRA:          -9.003
REMARK INTER:                  -7.579
REMARK INTRA:                  -1.424
REMARK UNBOUND:                -1.192
REMARK  Name = 
REMARK  5 active torsions:
REMARK  status: ('A' for Active; 'I' for Inactive)
REMARK    1  A    between atoms: C_2  and  C_3
REMARK    2  A    between atoms: C_6  and  N_7
REMARK    3  A    between atoms: N_7  and  C_8
REMARK    4  A    between atoms: C_8  and  C_9
REMARK    5  A    between atoms: C_13  and  C_14
REMARK                            x       y       z     vdW  Elec       q    Type
REMARK                         _______ _______ _______ _____ _____    ______ ____
ROOT
ATOM      1  C   UNL     1      48.723   8.313  16.427  0.00  0.00    +0.000 C 
ATOM      2  C   UNL     1      49.717   9.331  16.973  0.00  0.00    +0.000 C 
ATOM      3  C   UNL     1      48.291   9.729  16.800  0.00  0.00    +0.000 C 
ENDROOT
BRANCH   1   4
ATOM      4  C   UNL     1      48.746   8.022  14.931  0.00  0.00    +0.000 A 
ATOM      5  C   UNL     1      49.870   8.261  14.127  0.00  0.00    +0.000 A 
ATOM      6  C   UNL     1      49.941   7.758  12.824  0.00  0.00    +0.000 A 
ATOM      7  C   UNL     1      48.890   6.998  12.301  0.00  0.00    +0.000 A 
ATOM      8  C   UNL     1      47.739   6.783  13.059  0.00  0.00    +0.000 A 
ATOM      9  C   UNL     1      47.672   7.347  14.338  0.00  0.00    +0.000 A 
BRANCH   8  10
ATOM     10  C   UNL     1      46.624   5.868  12.594  0.00  0.00    +0.000 C 
ATOM     11  C   UNL     1      45.234   6.456  12.878  0.00  0.00    +0.000 C 
ATOM     12  C   UNL     1      44.146   5.441  12.555  0.00  0.00    +0.000 C 
ATOM     13  O   UNL     1      44.360   4.222  13.266  0.00  0.00    +0.000 OA
ATOM     14  C   UNL     1      45.583   3.590  12.895  0.00  0.00    +0.000 C 
ATOM     15  C   UNL     1      46.763   4.477  13.248  0.00  0.00    +0.000 C 
ENDBRANCH   8  10
ENDBRANCH   1   4
BRANCH   1  16
ATOM     16  N   UNL     1      48.262   7.206  17.290  0.00  0.00    +0.000 N 
ATOM     17  H   UNL     1      47.844   7.492  18.171  0.00  0.00    +0.000 HD
BRANCH  16  21
ATOM     18  C   UNL     1      50.112   3.382  17.359  0.00  0.00    +0.000 A 
ATOM     19  C   UNL     1      50.890   4.527  17.500  0.00  0.00    +0.000 A 
ATOM     20  C   UNL     1      50.290   5.796  17.500  0.00  0.00    +0.000 A 
ATOM     21  C   UNL     1      48.905   5.950  17.368  0.00  0.00    +0.000 A 
ATOM     22  C   UNL     1      48.138   4.794  17.199  0.00  0.00    +0.000 A 
ATOM     23  C   UNL     1      48.736   3.528  17.209  0.00  0.00    +0.000 A 
ATOM     24  F   UNL     1      47.951   2.450  17.063  0.00  0.00    +0.000 F 
BRANCH  18  26
ATOM     25  N   UNL     1      51.229   1.041  17.343  0.00  0.00    +0.000 NA
ATOM     26  C   UNL     1      50.713   2.082  17.355  0.00  0.00    +0.000 C 
ENDBRANCH  18  26
ENDBRANCH  16  21
ENDBRANCH   1  16
TORSDOF 5
ENDMDL
