MODEL 1
REMARK VINA RESULT:    -8.689      0.000      0.000
REMARK INTER + INTRA:         -10.394
REMARK INTER:                 -10.720
REMARK INTRA:                   0.327
REMARK UNBOUND:                 0.327
REMARK  Name = 
REMARK  5 active torsions:
REMARK  status: ('A' for Active; 'I' for Inactive)
REMARK    1  A    between atoms: C_1  and  O_2
REMARK    2  A    between atoms: O_2  and  C_3
REMARK    3  A    between atoms: C_6  and  C_7
REMARK    4  A    between atoms: C_7  and  N_8
REMARK    5  A    between atoms: C_12  and  C_13
REMARK                            x       y       z     vdW  Elec       q    Type
REMARK                         _______ _______ _______ _____ _____    ______ ____
ROOT
ATOM      1  N   UNL     1      44.153   5.115   9.710  0.00  0.00    +0.000 N 
ATOM      2  C   UNL     1      44.874   4.082   9.109  0.00  0.00    +0.000 A 
ATOM      3  N   UNL     1      44.902   2.854   9.653  0.00  0.00    +0.000 NA
ATOM      4  C   UNL     1      45.619   1.905   9.013  0.00  0.00    +0.000 A 
ATOM      5  C   UNL     1      46.318   2.133   7.853  0.00  0.00    +0.000 A 
ATOM      6  C   UNL     1      46.254   3.424   7.384  0.00  0.00    +0.000 A 
ATOM      7  N   UNL     1      45.537   4.404   7.984  0.00  0.00    +0.000 NA
ATOM      8  H   UNL     1      44.442   5.974   9.260  0.00  0.00    +0.000 HD
ENDROOT
BRANCH   5   9
ATOM      9  C   UNL     1      47.093   1.048   7.234  0.00  0.00    +0.000 C 
ATOM     10  N   UNL     1      46.819  -0.236   7.604  0.00  0.00    +0.000 N 
ATOM     11  O   UNL     1      47.981   1.293   6.428  0.00  0.00    +0.000 OA
ATOM     12  H   UNL     1      46.278  -0.483   8.421  0.00  0.00    +0.000 HD
ATOM     13  H   UNL     1      47.443  -0.946   7.236  0.00  0.00    +0.000 HD
ENDBRANCH   5   9
BRANCH   1  14
ATOM     14  C   UNL     1      43.899   5.123  11.160  0.00  0.00    +0.000 C 
ATOM     15  C   UNL     1      42.544   5.544  11.704  0.00  0.00    +0.000 C 
ATOM     16  C   UNL     1      42.897   4.094  11.680  0.00  0.00    +0.000 C 
BRANCH  14  20
ATOM     17  C   UNL     1      47.489   5.840  13.553  0.00  0.00    +0.000 A 
ATOM     18  C   UNL     1      46.765   4.662  13.711  0.00  0.00    +0.000 A 
ATOM     19  C   UNL     1      45.606   4.446  12.953  0.00  0.00    +0.000 A 
ATOM     20  C   UNL     1      45.131   5.391  12.027  0.00  0.00    +0.000 A 
ATOM     21  C   UNL     1      45.862   6.584  11.913  0.00  0.00    +0.000 A 
ATOM     22  C   UNL     1      47.028   6.801  12.654  0.00  0.00    +0.000 A 
BRANCH  17  24
ATOM     23  C   UNL     1      49.367   7.289  13.703  0.00  0.00    +0.000 C 
ATOM     24  O   UNL     1      48.643   6.174  14.206  0.00  0.00    +0.000 OA
ENDBRANCH  17  24
ENDBRANCH  14  20
ENDBRANCH   1  14
TORSDOF 4
ENDMDL
MODEL 2
REMARK VINA RESULT:    -7.603      2.444      6.785
REMARK INTER + INTRA:          -9.055
REMARK INTER:                  -9.055
REMARK INTRA:                   0.000
REMARK UNBOUND:                 0.327
REMARK  Name = 
REMARK  5 active torsions:
REMARK  status: ('A' for Active; 'I' for Inactive)
REMARK    1  A    between atoms: C_1  and  O_2
REMARK    2  A    between atoms: O_2  and  C_3
REMARK    3  A    between atoms: C_6  and  C_7
REMARK    4  A    between atoms: C_7  and  N_8
REMARK    5  A    between atoms: C_12  and  C_13
REMARK                            x       y       z     vdW  Elec       q    Type
REMARK                         _______ _______ _______ _____ _____    ______ ____
ROOT
ATOM      1  N   UNL     1      44.446   6.160  10.797  0.00  0.00    +0.000 N 
ATOM      2  C   UNL     1      45.325   6.833  11.649  0.00  0.00    +0.000 A 
ATOM      3  N   UNL     1      46.403   6.213  12.158  0.00  0.00    +0.000 NA
ATOM      4  C   UNL     1      47.207   6.929  12.971  0.00  0.00    +0.000 A 
ATOM      5  C   UNL     1      46.977   8.241  13.308  0.00  0.00    +0.000 A 
ATOM      6  C   UNL     1      45.837   8.785  12.764  0.00  0.00    +0.000 A 
ATOM      7  N   UNL     1      45.009   8.109  11.931  0.00  0.00    +0.000 NA
ATOM      8  H   UNL     1      43.619   6.737  10.715  0.00  0.00    +0.000 HD
ENDROOT
BRANCH   5   9
ATOM      9  C   UNL     1      47.892   8.941  14.221  0.00  0.00    +0.000 C 
ATOM     10  N   UNL     1      47.533   9.060  15.532  0.00  0.00    +0.000 N 
ATOM     11  O   UNL     1      48.935   9.431  13.809  0.00  0.00    +0.000 OA
ATOM     12  H   UNL     1      46.598   8.893  15.877  0.00  0.00    +0.000 HD
ATOM     13  H   UNL     1      48.136   9.638  16.105  0.00  0.00    +0.000 HD
ENDBRANCH   5   9
BRANCH   1  14
ATOM     14  C   UNL     1      44.290   4.698  10.868  0.00  0.00    +0.000 C 
ATOM     15  C   UNL     1      44.167   4.000  12.212  0.00  0.00    +0.000 C 
ATOM     16  C   UNL     1      42.945   4.183  11.375  0.00  0.00    +0.000 C 
BRANCH  14  20
ATOM     17  C   UNL     1      46.255   2.488   7.645  0.00  0.00    +0.000 A 
ATOM     18  C   UNL     1      46.222   3.879   7.623  0.00  0.00    +0.000 A 
ATOM     19  C   UNL     1      45.576   4.581   8.650  0.00  0.00    +0.000 A 
ATOM     20  C   UNL     1      44.941   3.925   9.720  0.00  0.00    +0.000 A 
ATOM     21  C   UNL     1      44.961   2.521   9.698  0.00  0.00    +0.000 A 
ATOM     22  C   UNL     1      45.617   1.814   8.685  0.00  0.00    +0.000 A 
BRANCH  17  24
ATOM     23  C   UNL     1      47.928   2.246   5.975  0.00  0.00    +0.000 C 
ATOM     24  O   UNL     1      46.863   1.679   6.727  0.00  0.00    +0.000 OA
ENDBRANCH  17  24
ENDBRANCH  14  20
ENDBRANCH   1  14
TORSDOF 4
ENDMDL
MODEL 3
REMARK VINA RESULT:    -7.525      2.695      6.478
REMARK INTER + INTRA:          -8.958
REMARK INTER:                  -8.622
REMARK INTRA:                  -0.336
REMARK UNBOUND:                 0.327
REMARK  Name = 
REMARK  5 active torsions:
REMARK  status: ('A' for Active; 'I' for Inactive)
REMARK    1  A    between atoms: C_1  and  O_2
REMARK    2  A    between atoms: O_2  and  C_3
REMARK    3  A    between atoms: C_6  and  C_7
REMARK    4  A    between atoms: C_7  and  N_8
REMARK    5  A    between atoms: C_12  and  C_13
REMARK                            x       y       z     vdW  Elec       q    Type
REMARK                         _______ _______ _______ _____ _____    ______ ____
ROOT
ATOM      1  N   UNL     1      45.574   5.576  11.813  0.00  0.00    +0.000 N 
ATOM      2  C   UNL     1      46.163   5.044  12.962  0.00  0.00    +0.000 A 
ATOM      3  N   UNL     1      46.253   3.715  13.138  0.00  0.00    +0.000 NA
ATOM      4  C   UNL     1      46.838   3.276  14.272  0.00  0.00    +0.000 A 
ATOM      5  C   UNL     1      47.332   4.109  15.247  0.00  0.00    +0.000 A 
ATOM      6  C   UNL     1      47.171   5.451  14.994  0.00  0.00    +0.000 A 
ATOM      7  N   UNL     1      46.604   5.938  13.864  0.00  0.00    +0.000 NA
ATOM      8  H   UNL     1      45.425   6.560  11.990  0.00  0.00    +0.000 HD
ENDROOT
BRANCH   5   9
ATOM      9  C   UNL     1      47.933   3.547  16.464  0.00  0.00    +0.000 C 
ATOM     10  N   UNL     1      47.103   3.050  17.426  0.00  0.00    +0.000 N 
ATOM     11  O   UNL     1      49.147   3.551  16.624  0.00  0.00    +0.000 OA
ATOM     12  H   UNL     1      46.110   3.231  17.461  0.00  0.00    +0.000 HD
ATOM     13  H   UNL     1      47.548   2.769  18.293  0.00  0.00    +0.000 HD
ENDBRANCH   5   9
BRANCH   1  14
ATOM     14  C   UNL     1      44.551   4.824  11.066  0.00  0.00    +0.000 C 
ATOM     15  C   UNL     1      43.322   4.282  11.776  0.00  0.00    +0.000 C 
ATOM     16  C   UNL     1      43.187   5.496  10.919  0.00  0.00    +0.000 C 
BRANCH  14  20
ATOM     17  C   UNL     1      46.162   2.600   7.662  0.00  0.00    +0.000 A 
ATOM     18  C   UNL     1      46.234   3.989   7.689  0.00  0.00    +0.000 A 
ATOM     19  C   UNL     1      45.701   4.697   8.775  0.00  0.00    +0.000 A 
ATOM     20  C   UNL     1      45.077   4.050   9.856  0.00  0.00    +0.000 A 
ATOM     21  C   UNL     1      44.989   2.650   9.786  0.00  0.00    +0.000 A 
ATOM     22  C   UNL     1      45.532   1.936   8.714  0.00  0.00    +0.000 A 
BRANCH  17  24
ATOM     23  C   UNL     1      47.957   2.079   6.194  0.00  0.00    +0.000 C 
ATOM     24  O   UNL     1      46.656   1.783   6.684  0.00  0.00    +0.000 OA
ENDBRANCH  17  24
ENDBRANCH  14  20
ENDBRANCH   1  14
TORSDOF 4
ENDMDL
MODEL 4
REMARK VINA RESULT:    -7.318      2.485      6.456
REMARK INTER + INTRA:          -8.702
REMARK INTER:                  -8.422
REMARK INTRA:                  -0.280
REMARK UNBOUND:                 0.327
REMARK  Name = 
REMARK  5 active torsions:
REMARK  status: ('A' for Active; 'I' for Inactive)
REMARK    1  A    between atoms: C_1  and  O_2
REMARK    2  A    between atoms: O_2  and  C_3
REMARK    3  A    between atoms: C_6  and  C_7
REMARK    4  A    between atoms: C_7  and  N_8
REMARK    5  A    between atoms: C_12  and  C_13
REMARK                            x       y       z     vdW  Elec       q    Type
REMARK                         _______ _______ _______ _____ _____    ______ ____
ROOT
ATOM      1  N   UNL     1      44.783   6.568  11.355  0.00  0.00    +0.000 N 
ATOM      2  C   UNL     1      45.876   6.757  12.203  0.00  0.00    +0.000 A 
ATOM      3  N   UNL     1      46.709   5.743  12.490  0.00  0.00    +0.000 NA
ATOM      4  C   UNL     1      47.746   6.002  13.315  0.00  0.00    +0.000 A 
ATOM      5  C   UNL     1      47.983   7.234  13.874  0.00  0.00    +0.000 A 
ATOM      6  C   UNL     1      47.066   8.204  13.546  0.00  0.00    +0.000 A 
ATOM      7  N   UNL     1      46.019   7.993  12.712  0.00  0.00    +0.000 NA
ATOM      8  H   UNL     1      44.193   7.384  11.452  0.00  0.00    +0.000 HD
ENDROOT
BRANCH   5   9
ATOM      9  C   UNL     1      49.124   7.425  14.781  0.00  0.00    +0.000 C 
ATOM     10  N   UNL     1      50.382   7.396  14.255  0.00  0.00    +0.000 N 
ATOM     11  O   UNL     1      48.950   7.577  15.984  0.00  0.00    +0.000 OA
ATOM     12  H   UNL     1      50.598   7.043  13.333  0.00  0.00    +0.000 HD
ATOM     13  H   UNL     1      51.143   7.425  14.924  0.00  0.00    +0.000 HD
ENDBRANCH   5   9
BRANCH   1  14
ATOM     14  C   UNL     1      44.150   5.246  11.214  0.00  0.00    +0.000 C 
ATOM     15  C   UNL     1      43.485   4.579  12.406  0.00  0.00    +0.000 C 
ATOM     16  C   UNL     1      42.630   5.202  11.353  0.00  0.00    +0.000 C 
BRANCH  14  20
ATOM     17  C   UNL     1      45.838   2.675   8.104  0.00  0.00    +0.000 A 
ATOM     18  C   UNL     1      45.165   2.117   9.186  0.00  0.00    +0.000 A 
ATOM     19  C   UNL     1      44.641   2.945  10.188  0.00  0.00    +0.000 A 
ATOM     20  C   UNL     1      44.776   4.344  10.148  0.00  0.00    +0.000 A 
ATOM     21  C   UNL     1      45.489   4.878   9.062  0.00  0.00    +0.000 A 
ATOM     22  C   UNL     1      46.001   4.059   8.051  0.00  0.00    +0.000 A 
BRANCH  17  24
ATOM     23  C   UNL     1      47.792   2.055   6.902  0.00  0.00    +0.000 C 
ATOM     24  O   UNL     1      46.379   1.995   7.049  0.00  0.00    +0.000 OA
ENDBRANCH  17  24
ENDBRANCH  14  20
ENDBRANCH   1  14
TORSDOF 4
ENDMDL
MODEL 5
REMARK VINA RESULT:    -6.987      2.567      6.626
REMARK INTER + INTRA:          -8.294
REMARK INTER:                  -8.705
REMARK INTRA:                   0.411
REMARK UNBOUND:                 0.327
REMARK  Name = 
REMARK  5 active torsions:
REMARK  status: ('A' for Active; 'I' for Inactive)
REMARK    1  A    between atoms: C_1  and  O_2
REMARK    2  A    between atoms: O_2  and  C_3
REMARK    3  A    between atoms: C_6  and  C_7
REMARK    4  A    between atoms: C_7  and  N_8
REMARK    5  A    between atoms: C_12  and  C_13
REMARK                            x       y       z     vdW  Elec       q    Type
REMARK                         _______ _______ _______ _____ _____    ______ ____
ROOT
ATOM      1  N   UNL     1      45.433   3.797  12.448  0.00  0.00    +0.000 N 
ATOM      2  C   UNL     1      45.849   5.113  12.661  0.00  0.00    +0.000 A 
ATOM      3  N   UNL     1      45.052   6.147  12.345  0.00  0.00    +0.000 NA
ATOM      4  C   UNL     1      45.521   7.390  12.582  0.00  0.00    +0.000 A 
ATOM      5  C   UNL     1      46.761   7.647  13.116  0.00  0.00    +0.000 A 
ATOM      6  C   UNL     1      47.517   6.530  13.383  0.00  0.00    +0.000 A 
ATOM      7  N   UNL     1      47.082   5.264  13.175  0.00  0.00    +0.000 NA
ATOM      8  H   UNL     1      46.250   3.211  12.553  0.00  0.00    +0.000 HD
ENDROOT
BRANCH   5   9
ATOM      9  C   UNL     1      47.204   9.033  13.320  0.00  0.00    +0.000 C 
ATOM     10  N   UNL     1      47.772   9.362  14.517  0.00  0.00    +0.000 N 
ATOM     11  O   UNL     1      47.040   9.879  12.450  0.00  0.00    +0.000 OA
ATOM     12  H   UNL     1      47.718   8.783  15.343  0.00  0.00    +0.000 HD
ATOM     13  H   UNL     1      47.968  10.346  14.659  0.00  0.00    +0.000 HD
ENDBRANCH   5   9
BRANCH   1  14
ATOM     14  C   UNL     1      44.453   3.470  11.398  0.00  0.00    +0.000 C 
ATOM     15  C   UNL     1      43.251   2.595  11.713  0.00  0.00    +0.000 C 
ATOM     16  C   UNL     1      43.057   4.067  11.563  0.00  0.00    +0.000 C 
BRANCH  14  20
ATOM     17  C   UNL     1      46.193   3.312   7.389  0.00  0.00    +0.000 A 
ATOM     18  C   UNL     1      45.970   4.537   8.009  0.00  0.00    +0.000 A 
ATOM     19  C   UNL     1      45.396   4.582   9.287  0.00  0.00    +0.000 A 
ATOM     20  C   UNL     1      45.023   3.417   9.980  0.00  0.00    +0.000 A 
ATOM     21  C   UNL     1      45.228   2.196   9.317  0.00  0.00    +0.000 A 
ATOM     22  C   UNL     1      45.815   2.143   8.048  0.00  0.00    +0.000 A 
BRANCH  17  24
ATOM     23  C   UNL     1      47.866   2.226   6.097  0.00  0.00    +0.000 C 
ATOM     24  O   UNL     1      46.761   3.117   6.161  0.00  0.00    +0.000 OA
ENDBRANCH  17  24
ENDBRANCH  14  20
ENDBRANCH   1  14
TORSDOF 4
ENDMDL
MODEL 6
REMARK VINA RESULT:    -6.575      4.748      6.945
REMARK INTER + INTRA:          -7.786
REMARK INTER:                  -7.721
REMARK INTRA:                  -0.065
REMARK UNBOUND:                 0.327
REMARK  Name = 
REMARK  5 active torsions:
REMARK  status: ('A' for Active; 'I' for Inactive)
REMARK    1  A    between atoms: C_1  and  O_2
REMARK    2  A    between atoms: O_2  and  C_3
REMARK    3  A    between atoms: C_6  and  C_7
REMARK    4  A    between atoms: C_7  and  N_8
REMARK    5  A    between atoms: C_12  and  C_13
REMARK                            x       y       z     vdW  Elec       q    Type
REMARK                         _______ _______ _______ _____ _____    ______ ____
ROOT
ATOM      1  N   UNL     1      47.658   2.846  15.312  0.00  0.00    +0.000 N 
ATOM      2  C   UNL     1      47.180   3.761  14.372  0.00  0.00    +0.000 A 
ATOM      3  N   UNL     1      47.503   5.063  14.451  0.00  0.00    +0.000 NA
ATOM      4  C   UNL     1      47.006   5.887  13.505  0.00  0.00    +0.000 A 
ATOM      5  C   UNL     1      46.188   5.467  12.483  0.00  0.00    +0.000 A 
ATOM      6  C   UNL     1      45.888   4.125  12.498  0.00  0.00    +0.000 A 
ATOM      7  N   UNL     1      46.376   3.259  13.418  0.00  0.00    +0.000 NA
ATOM      8  H   UNL     1      47.128   1.993  15.186  0.00  0.00    +0.000 HD
ENDROOT
BRANCH   5   9
ATOM      9  C   UNL     1      45.670   6.436  11.507  0.00  0.00    +0.000 C 
ATOM     10  N   UNL     1      45.288   5.977  10.280  0.00  0.00    +0.000 N 
ATOM     11  O   UNL     1      45.612   7.629  11.777  0.00  0.00    +0.000 OA
ATOM     12  H   UNL     1      45.530   5.065   9.920  0.00  0.00    +0.000 HD
ATOM     13  H   UNL     1      45.037   6.686   9.601  0.00  0.00    +0.000 HD
ENDBRANCH   5   9
BRANCH   1  14
ATOM     14  C   UNL     1      48.006   3.271  16.678  0.00  0.00    +0.000 C 
ATOM     15  C   UNL     1      47.195   4.347  17.381  0.00  0.00    +0.000 C 
ATOM     16  C   UNL     1      47.003   2.921  17.775  0.00  0.00    +0.000 C 
BRANCH  14  20
ATOM     17  C   UNL     1      52.219   2.908  17.798  0.00  0.00    +0.000 A 
ATOM     18  C   UNL     1      51.594   4.151  17.813  0.00  0.00    +0.000 A 
ATOM     19  C   UNL     1      50.248   4.263  17.437  0.00  0.00    +0.000 A 
ATOM     20  C   UNL     1      49.490   3.151  17.030  0.00  0.00    +0.000 A 
ATOM     21  C   UNL     1      50.156   1.915  16.992  0.00  0.00    +0.000 A 
ATOM     22  C   UNL     1      51.493   1.793  17.381  0.00  0.00    +0.000 A 
BRANCH  17  24
ATOM     23  C   UNL     1      54.199   1.653  17.411  0.00  0.00    +0.000 C 
ATOM     24  O   UNL     1      53.512   2.648  18.157  0.00  0.00    +0.000 OA
ENDBRANCH  17  24
ENDBRANCH  14  20
ENDBRANCH   1  14
TORSDOF 4
ENDMDL
MODEL 7
REMARK VINA RESULT:    -5.956      3.616      6.918
REMARK INTER + INTRA:          -7.022
REMARK INTER:                  -6.825
REMARK INTRA:                  -0.196
REMARK UNBOUND:                 0.327
REMARK  Name = 
REMARK  5 active torsions:
REMARK  status: ('A' for Active; 'I' for Inactive)
REMARK    1  A    between atoms: C_1  and  O_2
REMARK    2  A    between atoms: O_2  and  C_3
REMARK    3  A    between atoms: C_6  and  C_7
REMARK    4  A    between atoms: C_7  and  N_8
REMARK    5  A    between atoms: C_12  and  C_13
REMARK                            x       y       z     vdW  Elec       q    Type
REMARK                         _______ _______ _______ _____ _____    ______ ____
ROOT
ATOM      1  N   UNL     1      47.033   6.484  12.661  0.00  0.00    +0.000 N 
ATOM      2  C   UNL     1      47.346   5.880  13.880  0.00  0.00    +0.000 A 
ATOM      3  N   UNL     1      46.701   4.773  14.286  0.00  0.00    +0.000 NA
ATOM      4  C   UNL     1      47.061   4.244  15.474  0.00  0.00    +0.000 A 
ATOM      5  C   UNL     1      48.035   4.779  16.283  0.00  0.00    +0.000 A 
ATOM      6  C   UNL     1      48.621   5.925  15.800  0.00  0.00    +0.000 A 
ATOM      7  N   UNL     1      48.302   6.483  14.607  0.00  0.00    +0.000 NA
ATOM      8  H   UNL     1      47.476   7.394  12.663  0.00  0.00    +0.000 HD
ENDROOT
BRANCH   5   9
ATOM      9  C   UNL     1      48.348   4.152  17.574  0.00  0.00    +0.000 C 
ATOM     10  N   UNL     1      48.432   4.949  18.678  0.00  0.00    +0.000 N 
ATOM     11  O   UNL     1      48.559   2.948  17.653  0.00  0.00    +0.000 OA
ATOM     12  H   UNL     1      48.505   5.957  18.640  0.00  0.00    +0.000 HD
ATOM     13  H   UNL     1      48.753   4.498  19.527  0.00  0.00    +0.000 HD
ENDBRANCH   5   9
BRANCH   1  14
ATOM     14  C   UNL     1      45.692   6.347  12.066  0.00  0.00    +0.000 C 
ATOM     15  C   UNL     1      44.452   6.671  12.881  0.00  0.00    +0.000 C 
ATOM     16  C   UNL     1      44.912   7.641  11.845  0.00  0.00    +0.000 C 
BRANCH  14  20
ATOM     17  C   UNL     1      45.249   3.316   8.944  0.00  0.00    +0.000 A 
ATOM     18  C   UNL     1      44.867   3.037  10.252  0.00  0.00    +0.000 A 
ATOM     19  C   UNL     1      45.027   4.007  11.252  0.00  0.00    +0.000 A 
ATOM     20  C   UNL     1      45.576   5.273  10.984  0.00  0.00    +0.000 A 
ATOM     21  C   UNL     1      45.984   5.515   9.662  0.00  0.00    +0.000 A 
ATOM     22  C   UNL     1      45.814   4.558   8.657  0.00  0.00    +0.000 A 
BRANCH  17  24
ATOM     23  C   UNL     1      46.308   1.794   7.458  0.00  0.00    +0.000 C 
ATOM     24  O   UNL     1      45.133   2.478   7.871  0.00  0.00    +0.000 OA
ENDBRANCH  17  24
ENDBRANCH  14  20
ENDBRANCH   1  14
TORSDOF 4
ENDMDL
MODEL 8
REMARK VINA RESULT:    -5.942      3.383      5.288
REMARK INTER + INTRA:          -7.005
REMARK INTER:                  -6.635
REMARK INTRA:                  -0.370
REMARK UNBOUND:                 0.327
REMARK  Name = 
REMARK  5 active torsions:
REMARK  status: ('A' for Active; 'I' for Inactive)
REMARK    1  A    between atoms: C_1  and  O_2
REMARK    2  A    between atoms: O_2  and  C_3
REMARK    3  A    between atoms: C_6  and  C_7
REMARK    4  A    between atoms: C_7  and  N_8
REMARK    5  A    between atoms: C_12  and  C_13
REMARK                            x       y       z     vdW  Elec       q    Type
REMARK                         _______ _______ _______ _____ _____    ______ ____
ROOT
ATOM      1  N   UNL     1      46.751   8.073  12.422  0.00  0.00    +0.000 N 
ATOM      2  C   UNL     1      46.083   6.867  12.204  0.00  0.00    +0.000 A 
ATOM      3  N   UNL     1      46.523   5.725  12.758  0.00  0.00    +0.000 NA
ATOM      4  C   UNL     1      45.824   4.599  12.504  0.00  0.00    +0.000 A 
ATOM      5  C   UNL     1      44.704   4.561  11.709  0.00  0.00    +0.000 A 
ATOM      6  C   UNL     1      44.343   5.770  11.163  0.00  0.00    +0.000 A 
ATOM      7  N   UNL     1      45.005   6.927  11.402  0.00  0.00    +0.000 NA
ATOM      8  H   UNL     1      46.381   8.737  11.754  0.00  0.00    +0.000 HD
ENDROOT
BRANCH   5   9
ATOM      9  C   UNL     1      44.015   3.286  11.465  0.00  0.00    +0.000 C 
ATOM     10  N   UNL     1      43.759   2.474  12.532  0.00  0.00    +0.000 N 
ATOM     11  O   UNL     1      43.705   2.947  10.330  0.00  0.00    +0.000 OA
ATOM     12  H   UNL     1      44.192   2.582  13.438  0.00  0.00    +0.000 HD
ATOM     13  H   UNL     1      43.379   1.560  12.312  0.00  0.00    +0.000 HD
ENDBRANCH   5   9
BRANCH   1  14
ATOM     14  C   UNL     1      48.190   8.101  12.730  0.00  0.00    +0.000 C 
ATOM     15  C   UNL     1      49.198   7.517  11.755  0.00  0.00    +0.000 C 
ATOM     16  C   UNL     1      49.056   8.999  11.850  0.00  0.00    +0.000 C 
BRANCH  14  20
ATOM     17  C   UNL     1      49.059   7.908  17.012  0.00  0.00    +0.000 A 
ATOM     18  C   UNL     1      48.366   8.994  16.486  0.00  0.00    +0.000 A 
ATOM     19  C   UNL     1      48.106   9.058  15.110  0.00  0.00    +0.000 A 
ATOM     20  C   UNL     1      48.530   8.054  14.221  0.00  0.00    +0.000 A 
ATOM     21  C   UNL     1      49.256   6.988  14.775  0.00  0.00    +0.000 A 
ATOM     22  C   UNL     1      49.507   6.909  16.149  0.00  0.00    +0.000 A 
BRANCH  17  24
ATOM     23  C   UNL     1      48.540   6.795  19.047  0.00  0.00    +0.000 C 
ATOM     24  O   UNL     1      49.364   7.705  18.329  0.00  0.00    +0.000 OA
ENDBRANCH  17  24
ENDBRANCH  14  20
ENDBRANCH   1  14
TORSDOF 4
ENDMDL
MODEL 9
REMARK VINA RESULT:    -5.696      3.329      5.609
REMARK INTER + INTRA:          -6.701
REMARK INTER:                  -6.722
REMARK INTRA:                   0.020
REMARK UNBOUND:                 0.327
REMARK  Name = 
REMARK  5 active torsions:
REMARK  status: ('A' for Active; 'I' for Inactive)
REMARK    1  A    between atoms: C_1  and  O_2
REMARK    2  A    between atoms: O_2  and  C_3
REMARK    3  A    between atoms: C_6  and  C_7
REMARK    4  A    between atoms: C_7  and  N_8
REMARK    5  A    between atoms: C_12  and  C_13
REMARK                            x       y       z     vdW  Elec       q    Type
REMARK                         _______ _______ _______ _____ _____    ______ ____
ROOT
ATOM      1  N   UNL     1      47.686   6.475  13.929  0.00  0.00    +0.000 N 
ATOM      2  C   UNL     1      46.748   5.889  13.078  0.00  0.00    +0.000 A 
ATOM      3  N   UNL     1      46.634   6.285  11.800  0.00  0.00    +0.000 NA
ATOM      4  C   UNL     1      45.706   5.670  11.037  0.00  0.00    +0.000 A 
ATOM      5  C   UNL     1      44.876   4.677  11.500  0.00  0.00    +0.000 A 
ATOM      6  C   UNL     1      45.044   4.356  12.826  0.00  0.00    +0.000 A 
ATOM      7  N   UNL     1      45.972   4.936  13.625  0.00  0.00    +0.000 NA
ATOM      8  H   UNL     1      47.453   6.182  14.869  0.00  0.00    +0.000 HD
ENDROOT
BRANCH   5   9
ATOM      9  C   UNL     1      43.875   4.076  10.607  0.00  0.00    +0.000 C 
ATOM     10  N   UNL     1      43.856   4.466   9.300  0.00  0.00    +0.000 N 
ATOM     11  O   UNL     1      43.060   3.267  11.033  0.00  0.00    +0.000 OA
ATOM     12  H   UNL     1      44.333   5.286   8.950  0.00  0.00    +0.000 HD
ATOM     13  H   UNL     1      43.088   4.110   8.743  0.00  0.00    +0.000 HD
ENDBRANCH   5   9
BRANCH   1  14
ATOM     14  C   UNL     1      48.155   7.854  13.710  0.00  0.00    +0.000 C 
ATOM     15  C   UNL     1      47.160   8.975  13.459  0.00  0.00    +0.000 C 
ATOM     16  C   UNL     1      47.812   8.869  14.798  0.00  0.00    +0.000 C 
BRANCH  14  20
ATOM     17  C   UNL     1      52.087   8.297  11.847  0.00  0.00    +0.000 A 
ATOM     18  C   UNL     1      50.981   7.955  11.076  0.00  0.00    +0.000 A 
ATOM     19  C   UNL     1      49.726   7.798  11.682  0.00  0.00    +0.000 A 
ATOM     20  C   UNL     1      49.537   7.968  13.064  0.00  0.00    +0.000 A 
ATOM     21  C   UNL     1      50.677   8.280  13.822  0.00  0.00    +0.000 A 
ATOM     22  C   UNL     1      51.929   8.453  13.223  0.00  0.00    +0.000 A 
BRANCH  17  24
ATOM     23  C   UNL     1      54.410   7.873  12.110  0.00  0.00    +0.000 C 
ATOM     24  O   UNL     1      53.359   8.503  11.390  0.00  0.00    +0.000 OA
ENDBRANCH  17  24
ENDBRANCH  14  20
ENDBRANCH   1  14
TORSDOF 4
ENDMDL
