MODEL 1
REMARK VINA RESULT:    -7.953      0.000      0.000
REMARK INTER + INTRA:         -11.919
REMARK INTER:                 -10.975
REMARK INTRA:                  -0.944
REMARK UNBOUND:                -0.944
REMARK  Name = 
REMARK  7 active torsions:
REMARK  status: ('A' for Active; 'I' for Inactive)
REMARK    1  A    between atoms: C_2  and  C_20
REMARK    2  A    between atoms: N_3  and  C_4
REMARK    3  A    between atoms: C_4  and  C_5
REMARK    4  A    between atoms: C_8  and  C_9
REMARK    5  A    between atoms: C_9  and  C_10
REMARK    6  A    between atoms: C_10  and  O_11
REMARK    7  A    between atoms: C_10  and  C_12
REMARK                            x       y       z     vdW  Elec       q    Type
REMARK                         _______ _______ _______ _____ _____    ______ ____
ROOT
ATOM      1  C   UNL     1      47.907   7.187  13.965  0.00  0.00    +0.000 C 
ENDROOT
BRANCH   1   2
ATOM      2  C   UNL     1      46.990   6.410  13.054  0.00  0.00    +0.000 A 
ATOM      3  C   UNL     1      46.553   6.959  11.841  0.00  0.00    +0.000 A 
ATOM      4  C   UNL     1      45.720   6.226  10.986  0.00  0.00    +0.000 A 
ATOM      5  C   UNL     1      45.286   4.943  11.341  0.00  0.00    +0.000 A 
ATOM      6  C   UNL     1      45.691   4.415  12.575  0.00  0.00    +0.000 A 
ATOM      7  C   UNL     1      46.525   5.144  13.428  0.00  0.00    +0.000 A 
BRANCH   5   8
ATOM      8  C   UNL     1      44.411   4.119  10.415  0.00  0.00    +0.000 C 
BRANCH   8   9
ATOM      9  C   UNL     1      44.917   2.682  10.204  0.00  0.00    +0.000 C 
BRANCH   9  10
ATOM     10  C   UNL     1      45.620   2.563   8.853  0.00  0.00    +0.000 A 
ATOM     11  N   UNL     1      45.719   3.666   8.084  0.00  0.00    +0.000 NA
ATOM     12  C   UNL     1      46.393   3.537   6.922  0.00  0.00    +0.000 A 
ATOM     13  C   UNL     1      46.959   2.359   6.498  0.00  0.00    +0.000 A 
ATOM     14  C   UNL     1      46.788   1.284   7.339  0.00  0.00    +0.000 A 
ATOM     15  N   UNL     1      46.122   1.349   8.511  0.00  0.00    +0.000 NA
ENDBRANCH   9  10
BRANCH   9  16
ATOM     16  O   UNL     1      43.801   1.772  10.272  0.00  0.00    +0.000 OA
ATOM     17  H   UNL     1      43.815   1.413  11.179  0.00  0.00    +0.000 HD
ENDBRANCH   9  16
ENDBRANCH   8   9
ENDBRANCH   5   8
ENDBRANCH   1   2
BRANCH   1  20
ATOM     18  O   UNL     1      48.580   8.118  16.571  0.00  0.00    +0.000 OA
ATOM     19  C   UNL     1      48.671   6.937  16.289  0.00  0.00    +0.000 C 
ATOM     20  N   UNL     1      48.276   6.380  15.092  0.00  0.00    +0.000 N 
ATOM     21  H   UNL     1      48.648   5.470  14.857  0.00  0.00    +0.000 HD
BRANCH  19  22
ATOM     22  C   UNL     1      49.426   5.967  17.071  0.00  0.00    +0.000 A 
ATOM     23  C   UNL     1      50.603   6.296  17.716  0.00  0.00    +0.000 A 
ATOM     24  S   UNL     1      51.602   4.912  17.918  0.00  0.00    +0.000 S 
ATOM     25  C   UNL     1      50.378   3.876  17.336  0.00  0.00    +0.000 A 
ATOM     26  N   UNL     1      50.595   2.555  17.089  0.00  0.00    +0.000 NA
ATOM     27  C   UNL     1      49.539   1.906  16.719  0.00  0.00    +0.000 A 
ATOM     28  N   UNL     1      48.277   2.444  16.618  0.00  0.00    +0.000 N 
ATOM     29  C   UNL     1      48.002   3.776  16.845  0.00  0.00    +0.000 A 
ATOM     30  O   UNL     1      46.872   4.225  16.810  0.00  0.00    +0.000 OA
ATOM     31  C   UNL     1      49.195   4.554  17.142  0.00  0.00    +0.000 A 
ATOM     32  H   UNL     1      47.480   1.858  16.417  0.00  0.00    +0.000 HD
ENDBRANCH  19  22
ENDBRANCH   1  20
TORSDOF 7
ENDMDL
MODEL 2
REMARK VINA RESULT:    -7.503      1.737      2.194
REMARK INTER + INTRA:         -11.299
REMARK INTER:                 -10.104
REMARK INTRA:                  -1.194
REMARK UNBOUND:                -0.944
REMARK  Name = 
REMARK  7 active torsions:
REMARK  status: ('A' for Active; 'I' for Inactive)
REMARK    1  A    between atoms: C_2  and  C_20
REMARK    2  A    between atoms: N_3  and  C_4
REMARK    3  A    between atoms: C_4  and  C_5
REMARK    4  A    between atoms: C_8  and  C_9
REMARK    5  A    between atoms: C_9  and  C_10
REMARK    6  A    between atoms: C_10  and  O_11
REMARK    7  A    between atoms: C_10  and  C_12
REMARK                            x       y       z     vdW  Elec       q    Type
REMARK                         _______ _______ _______ _____ _____    ______ ____
ROOT
ATOM      1  C   UNL     1      48.379   8.770  14.077  0.00  0.00    +0.000 C 
ENDROOT
BRANCH   1   2
ATOM      2  C   UNL     1      47.355   8.078  13.213  0.00  0.00    +0.000 A 
ATOM      3  C   UNL     1      47.723   7.017  12.375  0.00  0.00    +0.000 A 
ATOM      4  C   UNL     1      46.766   6.362  11.591  0.00  0.00    +0.000 A 
ATOM      5  C   UNL     1      45.427   6.774  11.608  0.00  0.00    +0.000 A 
ATOM      6  C   UNL     1      45.071   7.864  12.415  0.00  0.00    +0.000 A 
ATOM      7  C   UNL     1      46.025   8.516  13.200  0.00  0.00    +0.000 A 
BRANCH   5   8
ATOM      8  C   UNL     1      44.368   6.057  10.792  0.00  0.00    +0.000 C 
BRANCH   8   9
ATOM      9  C   UNL     1      44.351   4.534  11.004  0.00  0.00    +0.000 C 
BRANCH   9  10
ATOM     10  C   UNL     1      45.000   3.828   9.815  0.00  0.00    +0.000 A 
ATOM     11  N   UNL     1      45.076   2.482   9.833  0.00  0.00    +0.000 NA
ATOM     12  C   UNL     1      45.607   1.889   8.743  0.00  0.00    +0.000 A 
ATOM     13  C   UNL     1      46.069   2.582   7.649  0.00  0.00    +0.000 A 
ATOM     14  C   UNL     1      45.968   3.951   7.732  0.00  0.00    +0.000 A 
ATOM     15  N   UNL     1      45.452   4.602   8.795  0.00  0.00    +0.000 NA
ENDBRANCH   9  10
BRANCH   9  16
ATOM     16  O   UNL     1      42.988   4.094  11.167  0.00  0.00    +0.000 OA
ATOM     17  H   UNL     1      42.474   4.594  10.506  0.00  0.00    +0.000 HD
ENDBRANCH   9  16
ENDBRANCH   8   9
ENDBRANCH   5   8
ENDBRANCH   1   2
BRANCH   1  20
ATOM     18  O   UNL     1      50.117   6.776  15.132  0.00  0.00    +0.000 OA
ATOM     19  C   UNL     1      49.180   7.195  15.787  0.00  0.00    +0.000 C 
ATOM     20  N   UNL     1      48.348   8.225  15.403  0.00  0.00    +0.000 N 
ATOM     21  H   UNL     1      47.456   8.301  15.872  0.00  0.00    +0.000 HD
BRANCH  19  22
ATOM     22  C   UNL     1      48.641   6.526  16.965  0.00  0.00    +0.000 A 
ATOM     23  C   UNL     1      48.785   7.044  18.237  0.00  0.00    +0.000 A 
ATOM     24  S   UNL     1      48.730   5.797  19.419  0.00  0.00    +0.000 S 
ATOM     25  C   UNL     1      48.314   4.629  18.247  0.00  0.00    +0.000 A 
ATOM     26  N   UNL     1      48.258   3.299  18.529  0.00  0.00    +0.000 NA
ATOM     27  C   UNL     1      47.859   2.566  17.540  0.00  0.00    +0.000 A 
ATOM     28  N   UNL     1      47.466   3.043  16.312  0.00  0.00    +0.000 N 
ATOM     29  C   UNL     1      47.512   4.378  15.969  0.00  0.00    +0.000 A 
ATOM     30  O   UNL     1      47.106   4.793  14.900  0.00  0.00    +0.000 OA
ATOM     31  C   UNL     1      48.076   5.210  17.021  0.00  0.00    +0.000 A 
ATOM     32  H   UNL     1      47.073   2.424  15.618  0.00  0.00    +0.000 HD
ENDBRANCH  19  22
ENDBRANCH   1  20
TORSDOF 7
ENDMDL
MODEL 3
REMARK VINA RESULT:    -7.439      2.141      3.615
REMARK INTER + INTRA:         -11.210
REMARK INTER:                 -10.252
REMARK INTRA:                  -0.958
REMARK UNBOUND:                -0.944
REMARK  Name = 
REMARK  7 active torsions:
REMARK  status: ('A' for Active; 'I' for Inactive)
REMARK    1  A    between atoms: C_2  and  C_20
REMARK    2  A    between atoms: N_3  and  C_4
REMARK    3  A    between atoms: C_4  and  C_5
REMARK    4  A    between atoms: C_8  and  C_9
REMARK    5  A    between atoms: C_9  and  C_10
REMARK    6  A    between atoms: C_10  and  O_11
REMARK    7  A    between atoms: C_10  and  C_12
REMARK                            x       y       z     vdW  Elec       q    Type
REMARK                         _______ _______ _______ _____ _____    ______ ____
ROOT
ATOM      1  C   UNL     1      47.456   4.509  15.803  0.00  0.00    +0.000 C 
ENDROOT
BRANCH   1   2
ATOM      2  C   UNL     1      46.936   4.783  14.414  0.00  0.00    +0.000 A 
ATOM      3  C   UNL     1      47.292   5.956  13.734  0.00  0.00    +0.000 A 
ATOM      4  C   UNL     1      46.827   6.197  12.436  0.00  0.00    +0.000 A 
ATOM      5  C   UNL     1      45.972   5.284  11.804  0.00  0.00    +0.000 A 
ATOM      6  C   UNL     1      45.584   4.133  12.504  0.00  0.00    +0.000 A 
ATOM      7  C   UNL     1      46.051   3.890  13.798  0.00  0.00    +0.000 A 
BRANCH   5   8
ATOM      8  C   UNL     1      45.483   5.509  10.386  0.00  0.00    +0.000 C 
BRANCH   8   9
ATOM      9  C   UNL     1      44.633   4.352   9.834  0.00  0.00    +0.000 C 
BRANCH   9  10
ATOM     10  C   UNL     1      45.433   3.552   8.807  0.00  0.00    +0.000 A 
ATOM     11  N   UNL     1      46.032   4.221   7.801  0.00  0.00    +0.000 NA
ATOM     12  C   UNL     1      46.775   3.489   6.944  0.00  0.00    +0.000 A 
ATOM     13  C   UNL     1      46.934   2.128   7.046  0.00  0.00    +0.000 A 
ATOM     14  C   UNL     1      46.268   1.532   8.092  0.00  0.00    +0.000 A 
ATOM     15  N   UNL     1      45.508   2.208   8.978  0.00  0.00    +0.000 NA
ENDBRANCH   9  10
BRANCH   9  16
ATOM     16  O   UNL     1      43.437   4.887   9.233  0.00  0.00    +0.000 OA
ATOM     17  H   UNL     1      43.162   4.225   8.571  0.00  0.00    +0.000 HD
ENDBRANCH   9  16
ENDBRANCH   8   9
ENDBRANCH   5   8
ENDBRANCH   1   2
BRANCH   1  20
ATOM     18  O   UNL     1      50.146   4.738  16.707  0.00  0.00    +0.000 OA
ATOM     19  C   UNL     1      49.369   5.668  16.825  0.00  0.00    +0.000 C 
ATOM     20  N   UNL     1      48.082   5.687  16.331  0.00  0.00    +0.000 N 
ATOM     21  H   UNL     1      47.445   6.368  16.720  0.00  0.00    +0.000 HD
BRANCH  19  22
ATOM     22  C   UNL     1      49.586   6.807  17.708  0.00  0.00    +0.000 A 
ATOM     23  C   UNL     1      50.075   6.661  18.992  0.00  0.00    +0.000 A 
ATOM     24  S   UNL     1      49.566   7.961  19.995  0.00  0.00    +0.000 S 
ATOM     25  C   UNL     1      48.886   8.791  18.668  0.00  0.00    +0.000 A 
ATOM     26  N   UNL     1      48.138   9.918  18.816  0.00  0.00    +0.000 NA
ATOM     27  C   UNL     1      47.761  10.453  17.700  0.00  0.00    +0.000 A 
ATOM     28  N   UNL     1      48.102   9.993  16.450  0.00  0.00    +0.000 N 
ATOM     29  C   UNL     1      48.847   8.851  16.241  0.00  0.00    +0.000 A 
ATOM     30  O   UNL     1      49.191   8.489  15.131  0.00  0.00    +0.000 OA
ATOM     31  C   UNL     1      49.178   8.161  17.478  0.00  0.00    +0.000 A 
ATOM     32  H   UNL     1      47.853  10.514  15.621  0.00  0.00    +0.000 HD
ENDBRANCH  19  22
ENDBRANCH   1  20
TORSDOF 7
ENDMDL
MODEL 4
REMARK VINA RESULT:    -7.383      2.157      2.535
REMARK INTER + INTRA:         -11.133
REMARK INTER:                 -10.049
REMARK INTRA:                  -1.084
REMARK UNBOUND:                -0.944
REMARK  Name = 
REMARK  7 active torsions:
REMARK  status: ('A' for Active; 'I' for Inactive)
REMARK    1  A    between atoms: C_2  and  C_20
REMARK    2  A    between atoms: N_3  and  C_4
REMARK    3  A    between atoms: C_4  and  C_5
REMARK    4  A    between atoms: C_8  and  C_9
REMARK    5  A    between atoms: C_9  and  C_10
REMARK    6  A    between atoms: C_10  and  O_11
REMARK    7  A    between atoms: C_10  and  C_12
REMARK                            x       y       z     vdW  Elec       q    Type
REMARK                         _______ _______ _______ _____ _____    ______ ____
ROOT
ATOM      1  C   UNL     1      48.884   6.961  14.464  0.00  0.00    +0.000 C 
ENDROOT
BRANCH   1   2
ATOM      2  C   UNL     1      47.831   6.452  13.512  0.00  0.00    +0.000 A 
ATOM      3  C   UNL     1      47.058   5.328  13.833  0.00  0.00    +0.000 A 
ATOM      4  C   UNL     1      46.065   4.871  12.958  0.00  0.00    +0.000 A 
ATOM      5  C   UNL     1      45.846   5.512  11.732  0.00  0.00    +0.000 A 
ATOM      6  C   UNL     1      46.650   6.610  11.395  0.00  0.00    +0.000 A 
ATOM      7  C   UNL     1      47.639   7.068  12.270  0.00  0.00    +0.000 A 
BRANCH   5   8
ATOM      8  C   UNL     1      44.753   5.054  10.784  0.00  0.00    +0.000 C 
BRANCH   8   9
ATOM      9  C   UNL     1      44.722   3.531  10.567  0.00  0.00    +0.000 C 
BRANCH   9  10
ATOM     10  C   UNL     1      45.383   3.174   9.237  0.00  0.00    +0.000 A 
ATOM     11  N   UNL     1      45.629   4.166   8.358  0.00  0.00    +0.000 NA
ATOM     12  C   UNL     1      46.262   3.822   7.217  0.00  0.00    +0.000 A 
ATOM     13  C   UNL     1      46.647   2.537   6.918  0.00  0.00    +0.000 A 
ATOM     14  C   UNL     1      46.334   1.591   7.866  0.00  0.00    +0.000 A 
ATOM     15  N   UNL     1      45.700   1.872   9.023  0.00  0.00    +0.000 NA
ENDBRANCH   9  10
BRANCH   9  16
ATOM     16  O   UNL     1      43.353   3.079  10.586  0.00  0.00    +0.000 OA
ATOM     17  H   UNL     1      42.812   3.889  10.530  0.00  0.00    +0.000 HD
ENDBRANCH   9  16
ENDBRANCH   8   9
ENDBRANCH   5   8
ENDBRANCH   1   2
BRANCH   1  20
ATOM     18  O   UNL     1      50.232   7.921  16.781  0.00  0.00    +0.000 OA
ATOM     19  C   UNL     1      49.050   7.631  16.824  0.00  0.00    +0.000 C 
ATOM     20  N   UNL     1      48.291   7.255  15.736  0.00  0.00    +0.000 N 
ATOM     21  H   UNL     1      47.422   6.773  15.921  0.00  0.00    +0.000 HD
BRANCH  19  22
ATOM     22  C   UNL     1      48.309   7.405  18.058  0.00  0.00    +0.000 A 
ATOM     23  C   UNL     1      47.742   8.439  18.777  0.00  0.00    +0.000 A 
ATOM     24  S   UNL     1      47.591   8.023  20.438  0.00  0.00    +0.000 S 
ATOM     25  C   UNL     1      48.086   6.419  20.138  0.00  0.00    +0.000 A 
ATOM     26  N   UNL     1      48.335   5.531  21.139  0.00  0.00    +0.000 NA
ATOM     27  C   UNL     1      48.633   4.341  20.728  0.00  0.00    +0.000 A 
ATOM     28  N   UNL     1      48.659   3.944  19.412  0.00  0.00    +0.000 N 
ATOM     29  C   UNL     1      48.426   4.802  18.358  0.00  0.00    +0.000 A 
ATOM     30  O   UNL     1      48.394   4.424  17.202  0.00  0.00    +0.000 OA
ATOM     31  C   UNL     1      48.212   6.175  18.787  0.00  0.00    +0.000 A 
ATOM     32  H   UNL     1      48.805   2.975  19.166  0.00  0.00    +0.000 HD
ENDBRANCH  19  22
ENDBRANCH   1  20
TORSDOF 7
ENDMDL
MODEL 5
REMARK VINA RESULT:    -7.051      3.019      8.585
REMARK INTER + INTRA:         -10.674
REMARK INTER:                  -9.735
REMARK INTRA:                  -0.940
REMARK UNBOUND:                -0.944
REMARK  Name = 
REMARK  7 active torsions:
REMARK  status: ('A' for Active; 'I' for Inactive)
REMARK    1  A    between atoms: C_2  and  C_20
REMARK    2  A    between atoms: N_3  and  C_4
REMARK    3  A    between atoms: C_4  and  C_5
REMARK    4  A    between atoms: C_8  and  C_9
REMARK    5  A    between atoms: C_9  and  C_10
REMARK    6  A    between atoms: C_10  and  O_11
REMARK    7  A    between atoms: C_10  and  C_12
REMARK                            x       y       z     vdW  Elec       q    Type
REMARK                         _______ _______ _______ _____ _____    ______ ____
ROOT
ATOM      1  C   UNL     1      47.587   6.718  12.923  0.00  0.00    +0.000 C 
ENDROOT
BRANCH   1   2
ATOM      2  C   UNL     1      47.802   6.035  14.250  0.00  0.00    +0.000 A 
ATOM      3  C   UNL     1      47.113   4.857  14.570  0.00  0.00    +0.000 A 
ATOM      4  C   UNL     1      47.332   4.212  15.793  0.00  0.00    +0.000 A 
ATOM      5  C   UNL     1      48.222   4.748  16.732  0.00  0.00    +0.000 A 
ATOM      6  C   UNL     1      48.877   5.950  16.426  0.00  0.00    +0.000 A 
ATOM      7  C   UNL     1      48.662   6.592  15.204  0.00  0.00    +0.000 A 
BRANCH   5   8
ATOM      8  C   UNL     1      48.499   4.048  18.049  0.00  0.00    +0.000 C 
BRANCH   8   9
ATOM      9  C   UNL     1      49.860   4.412  18.668  0.00  0.00    +0.000 C 
BRANCH   9  10
ATOM     10  C   UNL     1      50.916   3.387  18.261  0.00  0.00    +0.000 A 
ATOM     11  N   UNL     1      52.198   3.616  18.612  0.00  0.00    +0.000 NA
ATOM     12  C   UNL     1      53.096   2.664  18.283  0.00  0.00    +0.000 A 
ATOM     13  C   UNL     1      52.769   1.507  17.616  0.00  0.00    +0.000 A 
ATOM     14  C   UNL     1      51.441   1.373  17.283  0.00  0.00    +0.000 A 
ATOM     15  N   UNL     1      50.498   2.291  17.580  0.00  0.00    +0.000 NA
ENDBRANCH   9  10
BRANCH   9  16
ATOM     16  O   UNL     1      49.729   4.459  20.103  0.00  0.00    +0.000 OA
ATOM     17  H   UNL     1      50.111   3.620  20.424  0.00  0.00    +0.000 HD
ENDBRANCH   9  16
ENDBRANCH   8   9
ENDBRANCH   5   8
ENDBRANCH   1   2
BRANCH   1  20
ATOM     18  O   UNL     1      45.372   7.664  11.403  0.00  0.00    +0.000 OA
ATOM     19  C   UNL     1      45.614   6.473  11.477  0.00  0.00    +0.000 C 
ATOM     20  N   UNL     1      46.715   5.929  12.103  0.00  0.00    +0.000 N 
ATOM     21  H   UNL     1      46.673   4.950  12.348  0.00  0.00    +0.000 HD
BRANCH  19  22
ATOM     22  C   UNL     1      44.664   5.424  11.127  0.00  0.00    +0.000 A 
ATOM     23  C   UNL     1      43.553   5.148  11.900  0.00  0.00    +0.000 A 
ATOM     24  S   UNL     1      43.055   3.515  11.700  0.00  0.00    +0.000 S 
ATOM     25  C   UNL     1      44.185   3.266  10.447  0.00  0.00    +0.000 A 
ATOM     26  N   UNL     1      44.421   2.039   9.908  0.00  0.00    +0.000 NA
ATOM     27  C   UNL     1      45.259   2.046   8.922  0.00  0.00    +0.000 A 
ATOM     28  N   UNL     1      45.846   3.172   8.394  0.00  0.00    +0.000 N 
ATOM     29  C   UNL     1      45.653   4.437   8.906  0.00  0.00    +0.000 A 
ATOM     30  O   UNL     1      46.132   5.431   8.393  0.00  0.00    +0.000 OA
ATOM     31  C   UNL     1      44.813   4.441  10.095  0.00  0.00    +0.000 A 
ATOM     32  H   UNL     1      46.416   3.116   7.563  0.00  0.00    +0.000 HD
ENDBRANCH  19  22
ENDBRANCH   1  20
TORSDOF 7
ENDMDL
MODEL 6
REMARK VINA RESULT:    -6.894      2.268      3.454
REMARK INTER + INTRA:         -10.457
REMARK INTER:                  -9.560
REMARK INTRA:                  -0.898
REMARK UNBOUND:                -0.944
REMARK  Name = 
REMARK  7 active torsions:
REMARK  status: ('A' for Active; 'I' for Inactive)
REMARK    1  A    between atoms: C_2  and  C_20
REMARK    2  A    between atoms: N_3  and  C_4
REMARK    3  A    between atoms: C_4  and  C_5
REMARK    4  A    between atoms: C_8  and  C_9
REMARK    5  A    between atoms: C_9  and  C_10
REMARK    6  A    between atoms: C_10  and  O_11
REMARK    7  A    between atoms: C_10  and  C_12
REMARK                            x       y       z     vdW  Elec       q    Type
REMARK                         _______ _______ _______ _____ _____    ______ ____
ROOT
ATOM      1  C   UNL     1      47.570   4.350  16.105  0.00  0.00    +0.000 C 
ENDROOT
BRANCH   1   2
ATOM      2  C   UNL     1      47.061   4.653  14.718  0.00  0.00    +0.000 A 
ATOM      3  C   UNL     1      46.419   3.666  13.958  0.00  0.00    +0.000 A 
ATOM      4  C   UNL     1      45.928   3.956  12.680  0.00  0.00    +0.000 A 
ATOM      5  C   UNL     1      46.095   5.231  12.125  0.00  0.00    +0.000 A 
ATOM      6  C   UNL     1      46.775   6.204  12.870  0.00  0.00    +0.000 A 
ATOM      7  C   UNL     1      47.263   5.916  14.148  0.00  0.00    +0.000 A 
BRANCH   5   8
ATOM      8  C   UNL     1      45.541   5.577  10.755  0.00  0.00    +0.000 C 
BRANCH   8   9
ATOM      9  C   UNL     1      44.615   4.495  10.172  0.00  0.00    +0.000 C 
BRANCH   9  10
ATOM     10  C   UNL     1      45.333   3.726   9.066  0.00  0.00    +0.000 A 
ATOM     11  N   UNL     1      45.870   4.425   8.045  0.00  0.00    +0.000 NA
ATOM     12  C   UNL     1      46.543   3.718   7.114  0.00  0.00    +0.000 A 
ATOM     13  C   UNL     1      46.692   2.352   7.156  0.00  0.00    +0.000 A 
ATOM     14  C   UNL     1      46.092   1.725   8.223  0.00  0.00    +0.000 A 
ATOM     15  N   UNL     1      45.404   2.376   9.183  0.00  0.00    +0.000 NA
ENDBRANCH   9  10
BRANCH   9  16
ATOM     16  O   UNL     1      43.422   5.120   9.658  0.00  0.00    +0.000 OA
ATOM     17  H   UNL     1      43.716   5.977   9.295  0.00  0.00    +0.000 HD
ENDBRANCH   9  16
ENDBRANCH   8   9
ENDBRANCH   5   8
ENDBRANCH   1   2
BRANCH   1  20
ATOM     18  O   UNL     1      47.683   5.688  18.616  0.00  0.00    +0.000 OA
ATOM     19  C   UNL     1      48.440   5.994  17.713  0.00  0.00    +0.000 C 
ATOM     20  N   UNL     1      48.527   5.341  16.502  0.00  0.00    +0.000 N 
ATOM     21  H   UNL     1      48.968   5.834  15.739  0.00  0.00    +0.000 HD
BRANCH  19  22
ATOM     22  C   UNL     1      49.201   7.236  17.671  0.00  0.00    +0.000 A 
ATOM     23  C   UNL     1      48.725   8.412  18.218  0.00  0.00    +0.000 A 
ATOM     24  S   UNL     1      49.415   9.778  17.437  0.00  0.00    +0.000 S 
ATOM     25  C   UNL     1      50.478   8.795  16.536  0.00  0.00    +0.000 A 
ATOM     26  N   UNL     1      51.263   9.289  15.539  0.00  0.00    +0.000 NA
ATOM     27  C   UNL     1      52.057   8.415  15.010  0.00  0.00    +0.000 A 
ATOM     28  N   UNL     1      52.173   7.106  15.415  0.00  0.00    +0.000 N 
ATOM     29  C   UNL     1      51.397   6.551  16.411  0.00  0.00    +0.000 A 
ATOM     30  O   UNL     1      51.552   5.408  16.799  0.00  0.00    +0.000 OA
ATOM     31  C   UNL     1      50.408   7.479  16.937  0.00  0.00    +0.000 A 
ATOM     32  H   UNL     1      52.882   6.504  15.023  0.00  0.00    +0.000 HD
ENDBRANCH  19  22
ENDBRANCH   1  20
TORSDOF 7
ENDMDL
MODEL 7
REMARK VINA RESULT:    -6.868      3.104      7.784
REMARK INTER + INTRA:         -10.422
REMARK INTER:                  -9.249
REMARK INTRA:                  -1.173
REMARK UNBOUND:                -0.944
REMARK  Name = 
REMARK  7 active torsions:
REMARK  status: ('A' for Active; 'I' for Inactive)
REMARK    1  A    between atoms: C_2  and  C_20
REMARK    2  A    between atoms: N_3  and  C_4
REMARK    3  A    between atoms: C_4  and  C_5
REMARK    4  A    between atoms: C_8  and  C_9
REMARK    5  A    between atoms: C_9  and  C_10
REMARK    6  A    between atoms: C_10  and  O_11
REMARK    7  A    between atoms: C_10  and  C_12
REMARK                            x       y       z     vdW  Elec       q    Type
REMARK                         _______ _______ _______ _____ _____    ______ ____
ROOT
ATOM      1  C   UNL     1      47.050   8.703  12.410  0.00  0.00    +0.000 C 
ENDROOT
BRANCH   1   2
ATOM      2  C   UNL     1      47.729   8.223  13.668  0.00  0.00    +0.000 A 
ATOM      3  C   UNL     1      48.210   6.911  13.766  0.00  0.00    +0.000 A 
ATOM      4  C   UNL     1      48.861   6.475  14.927  0.00  0.00    +0.000 A 
ATOM      5  C   UNL     1      49.016   7.334  16.022  0.00  0.00    +0.000 A 
ATOM      6  C   UNL     1      48.495   8.632  15.936  0.00  0.00    +0.000 A 
ATOM      7  C   UNL     1      47.849   9.069  14.776  0.00  0.00    +0.000 A 
BRANCH   5   8
ATOM      8  C   UNL     1      49.747   6.893  17.276  0.00  0.00    +0.000 C 
BRANCH   8   9
ATOM      9  C   UNL     1      48.956   5.888  18.132  0.00  0.00    +0.000 C 
BRANCH   9  10
ATOM     10  C   UNL     1      49.285   4.458  17.706  0.00  0.00    +0.000 A 
ATOM     11  N   UNL     1      48.302   3.708  17.169  0.00  0.00    +0.000 NA
ATOM     12  C   UNL     1      48.641   2.469  16.756  0.00  0.00    +0.000 A 
ATOM     13  C   UNL     1      49.909   1.951  16.865  0.00  0.00    +0.000 A 
ATOM     14  C   UNL     1      50.839   2.783  17.444  0.00  0.00    +0.000 A 
ATOM     15  N   UNL     1      50.561   4.029  17.880  0.00  0.00    +0.000 NA
ENDBRANCH   9  10
BRANCH   9  16
ATOM     16  O   UNL     1      47.546   6.146  17.981  0.00  0.00    +0.000 OA
ATOM     17  H   UNL     1      47.308   6.724  18.730  0.00  0.00    +0.000 HD
ENDBRANCH   9  16
ENDBRANCH   8   9
ENDBRANCH   5   8
ENDBRANCH   1   2
BRANCH   1  20
ATOM     18  O   UNL     1      44.500   7.844  11.478  0.00  0.00    +0.000 OA
ATOM     19  C   UNL     1      45.504   7.205  11.221  0.00  0.00    +0.000 C 
ATOM     20  N   UNL     1      46.788   7.592  11.541  0.00  0.00    +0.000 N 
ATOM     21  H   UNL     1      47.502   6.877  11.540  0.00  0.00    +0.000 HD
BRANCH  19  22
ATOM     22  C   UNL     1      45.497   5.826  10.750  0.00  0.00    +0.000 A 
ATOM     23  C   UNL     1      45.821   5.490   9.449  0.00  0.00    +0.000 A 
ATOM     24  S   UNL     1      45.066   4.015   8.989  0.00  0.00    +0.000 S 
ATOM     25  C   UNL     1      44.497   3.748  10.575  0.00  0.00    +0.000 A 
ATOM     26  N   UNL     1      43.636   2.740  10.882  0.00  0.00    +0.000 NA
ATOM     27  C   UNL     1      43.364   2.643  12.143  0.00  0.00    +0.000 A 
ATOM     28  N   UNL     1      43.909   3.429  13.131  0.00  0.00    +0.000 N 
ATOM     29  C   UNL     1      44.777   4.470  12.876  0.00  0.00    +0.000 A 
ATOM     30  O   UNL     1      45.297   5.119  13.764  0.00  0.00    +0.000 OA
ATOM     31  C   UNL     1      45.001   4.681  11.454  0.00  0.00    +0.000 A 
ATOM     32  H   UNL     1      43.727   3.236  14.105  0.00  0.00    +0.000 HD
ENDBRANCH  19  22
ENDBRANCH   1  20
TORSDOF 7
ENDMDL
MODEL 8
REMARK VINA RESULT:    -6.832      1.864      2.439
REMARK INTER + INTRA:         -10.373
REMARK INTER:                  -9.489
REMARK INTRA:                  -0.884
REMARK UNBOUND:                -0.944
REMARK  Name = 
REMARK  7 active torsions:
REMARK  status: ('A' for Active; 'I' for Inactive)
REMARK    1  A    between atoms: C_2  and  C_20
REMARK    2  A    between atoms: N_3  and  C_4
REMARK    3  A    between atoms: C_4  and  C_5
REMARK    4  A    between atoms: C_8  and  C_9
REMARK    5  A    between atoms: C_9  and  C_10
REMARK    6  A    between atoms: C_10  and  O_11
REMARK    7  A    between atoms: C_10  and  C_12
REMARK                            x       y       z     vdW  Elec       q    Type
REMARK                         _______ _______ _______ _____ _____    ______ ____
ROOT
ATOM      1  C   UNL     1      49.187   7.732  14.424  0.00  0.00    +0.000 C 
ENDROOT
BRANCH   1   2
ATOM      2  C   UNL     1      47.927   7.573  13.610  0.00  0.00    +0.000 A 
ATOM      3  C   UNL     1      47.762   6.477  12.752  0.00  0.00    +0.000 A 
ATOM      4  C   UNL     1      46.582   6.319  12.015  0.00  0.00    +0.000 A 
ATOM      5  C   UNL     1      45.557   7.269  12.101  0.00  0.00    +0.000 A 
ATOM      6  C   UNL     1      45.743   8.386  12.927  0.00  0.00    +0.000 A 
ATOM      7  C   UNL     1      46.919   8.542  13.666  0.00  0.00    +0.000 A 
BRANCH   5   8
ATOM      8  C   UNL     1      44.257   7.101  11.337  0.00  0.00    +0.000 C 
BRANCH   8   9
ATOM      9  C   UNL     1      43.452   5.858  11.753  0.00  0.00    +0.000 C 
BRANCH   9  10
ATOM     10  C   UNL     1      43.798   4.677  10.848  0.00  0.00    +0.000 A 
ATOM     11  N   UNL     1      44.246   4.936   9.602  0.00  0.00    +0.000 NA
ATOM     12  C   UNL     1      44.593   3.872   8.849  0.00  0.00    +0.000 A 
ATOM     13  C   UNL     1      44.501   2.570   9.283  0.00  0.00    +0.000 A 
ATOM     14  C   UNL     1      44.013   2.406  10.558  0.00  0.00    +0.000 A 
ATOM     15  N   UNL     1      43.647   3.429  11.358  0.00  0.00    +0.000 NA
ENDBRANCH   9  10
BRANCH   9  16
ATOM     16  O   UNL     1      42.044   6.157  11.675  0.00  0.00    +0.000 OA
ATOM     17  H   UNL     1      41.984   7.129  11.723  0.00  0.00    +0.000 HD
ENDBRANCH   9  16
ENDBRANCH   8   9
ENDBRANCH   5   8
ENDBRANCH   1   2
BRANCH   1  20
ATOM     18  O   UNL     1      48.596   7.997  17.196  0.00  0.00    +0.000 OA
ATOM     19  C   UNL     1      49.040   6.954  16.751  0.00  0.00    +0.000 C 
ATOM     20  N   UNL     1      49.262   6.698  15.415  0.00  0.00    +0.000 N 
ATOM     21  H   UNL     1      49.882   5.934  15.185  0.00  0.00    +0.000 HD
BRANCH  19  22
ATOM     22  C   UNL     1      49.628   5.902  17.570  0.00  0.00    +0.000 A 
ATOM     23  C   UNL     1      50.651   6.150  18.465  0.00  0.00    +0.000 A 
ATOM     24  S   UNL     1      51.596   4.738  18.726  0.00  0.00    +0.000 S 
ATOM     25  C   UNL     1      50.518   3.781  17.815  0.00  0.00    +0.000 A 
ATOM     26  N   UNL     1      50.786   2.487  17.489  0.00  0.00    +0.000 NA
ATOM     27  C   UNL     1      49.828   1.893  16.855  0.00  0.00    +0.000 A 
ATOM     28  N   UNL     1      48.609   2.456  16.558  0.00  0.00    +0.000 N 
ATOM     29  C   UNL     1      48.288   3.764  16.854  0.00  0.00    +0.000 A 
ATOM     30  O   UNL     1      47.185   4.231  16.638  0.00  0.00    +0.000 OA
ATOM     31  C   UNL     1      49.394   4.493  17.456  0.00  0.00    +0.000 A 
ATOM     32  H   UNL     1      47.871   1.904  16.146  0.00  0.00    +0.000 HD
ENDBRANCH  19  22
ENDBRANCH   1  20
TORSDOF 7
ENDMDL
MODEL 9
REMARK VINA RESULT:    -6.661      3.319      9.144
REMARK INTER + INTRA:         -10.136
REMARK INTER:                  -9.225
REMARK INTRA:                  -0.911
REMARK UNBOUND:                -0.944
REMARK  Name = 
REMARK  7 active torsions:
REMARK  status: ('A' for Active; 'I' for Inactive)
REMARK    1  A    between atoms: C_2  and  C_20
REMARK    2  A    between atoms: N_3  and  C_4
REMARK    3  A    between atoms: C_4  and  C_5
REMARK    4  A    between atoms: C_8  and  C_9
REMARK    5  A    between atoms: C_9  and  C_10
REMARK    6  A    between atoms: C_10  and  O_11
REMARK    7  A    between atoms: C_10  and  C_12
REMARK                            x       y       z     vdW  Elec       q    Type
REMARK                         _______ _______ _______ _____ _____    ______ ____
ROOT
ATOM      1  C   UNL     1      47.485   6.766  13.128  0.00  0.00    +0.000 C 
ENDROOT
BRANCH   1   2
ATOM      2  C   UNL     1      47.847   6.059  14.410  0.00  0.00    +0.000 A 
ATOM      3  C   UNL     1      47.204   4.869  14.778  0.00  0.00    +0.000 A 
ATOM      4  C   UNL     1      47.558   4.203  15.957  0.00  0.00    +0.000 A 
ATOM      5  C   UNL     1      48.542   4.728  16.805  0.00  0.00    +0.000 A 
ATOM      6  C   UNL     1      49.153   5.940  16.455  0.00  0.00    +0.000 A 
ATOM      7  C   UNL     1      48.802   6.604  15.276  0.00  0.00    +0.000 A 
BRANCH   5   8
ATOM      8  C   UNL     1      48.964   4.004  18.070  0.00  0.00    +0.000 C 
BRANCH   8   9
ATOM      9  C   UNL     1      48.084   4.328  19.290  0.00  0.00    +0.000 C 
BRANCH   9  10
ATOM     10  C   UNL     1      48.404   5.725  19.817  0.00  0.00    +0.000 A 
ATOM     11  N   UNL     1      49.619   5.941  20.362  0.00  0.00    +0.000 NA
ATOM     12  C   UNL     1      49.886   7.199  20.768  0.00  0.00    +0.000 A 
ATOM     13  C   UNL     1      48.994   8.239  20.660  0.00  0.00    +0.000 A 
ATOM     14  C   UNL     1      47.775   7.917  20.112  0.00  0.00    +0.000 A 
ATOM     15  N   UNL     1      47.446   6.679  19.691  0.00  0.00    +0.000 NA
ENDBRANCH   9  10
BRANCH   9  16
ATOM     16  O   UNL     1      48.312   3.339  20.314  0.00  0.00    +0.000 OA
ATOM     17  H   UNL     1      48.612   3.841  21.095  0.00  0.00    +0.000 HD
ENDBRANCH   9  16
ENDBRANCH   8   9
ENDBRANCH   5   8
ENDBRANCH   1   2
BRANCH   1  20
ATOM     18  O   UNL     1      45.441   7.570  11.317  0.00  0.00    +0.000 OA
ATOM     19  C   UNL     1      45.660   6.390  11.524  0.00  0.00    +0.000 C 
ATOM     20  N   UNL     1      46.688   5.905  12.303  0.00  0.00    +0.000 N 
ATOM     21  H   UNL     1      46.611   4.953  12.633  0.00  0.00    +0.000 HD
BRANCH  19  22
ATOM     22  C   UNL     1      44.737   5.316  11.182  0.00  0.00    +0.000 A 
ATOM     23  C   UNL     1      43.670   4.975  11.991  0.00  0.00    +0.000 A 
ATOM     24  S   UNL     1      43.225   3.330  11.764  0.00  0.00    +0.000 S 
ATOM     25  C   UNL     1      44.312   3.160  10.460  0.00  0.00    +0.000 A 
ATOM     26  N   UNL     1      44.571   1.958   9.877  0.00  0.00    +0.000 NA
ATOM     27  C   UNL     1      45.366   2.025   8.858  0.00  0.00    +0.000 A 
ATOM     28  N   UNL     1      45.889   3.187   8.340  0.00  0.00    +0.000 N 
ATOM     29  C   UNL     1      45.669   4.429   8.896  0.00  0.00    +0.000 A 
ATOM     30  O   UNL     1      46.089   5.454   8.393  0.00  0.00    +0.000 OA
ATOM     31  C   UNL     1      44.879   4.368  10.117  0.00  0.00    +0.000 A 
ATOM     32  H   UNL     1      46.426   3.177   7.485  0.00  0.00    +0.000 HD
ENDBRANCH  19  22
ENDBRANCH   1  20
TORSDOF 7
ENDMDL
