MODEL 1
REMARK VINA RESULT:    -7.846      0.000      0.000
REMARK INTER + INTRA:         -11.475
REMARK INTER:                 -10.598
REMARK INTRA:                  -0.877
REMARK UNBOUND:                -0.877
REMARK  Name = 
REMARK  6 active torsions:
REMARK  status: ('A' for Active; 'I' for Inactive)
REMARK    1  A    between atoms: C_2  and  C_3
REMARK    2  A    between atoms: C_7  and  C_8
REMARK    3  A    between atoms: C_8  and  C_9
REMARK    4  A    between atoms: C_12  and  C_13
REMARK    5  A    between atoms: C_13  and  N_14
REMARK    6  A    between atoms: C_15  and  C_17
REMARK                            x       y       z     vdW  Elec       q    Type
REMARK                         _______ _______ _______ _____ _____    ______ ____
ROOT
ATOM      1  C   UNL     1      46.853   7.750  13.456  0.00  0.00    +0.000 C 
ENDROOT
BRANCH   1   5
ATOM      2  C   UNL     1      44.839   4.829  11.098  0.00  0.00    +0.000 A 
ATOM      3  C   UNL     1      44.408   6.153  11.026  0.00  0.00    +0.000 A 
ATOM      4  C   UNL     1      45.059   7.119  11.788  0.00  0.00    +0.000 A 
ATOM      5  C   UNL     1      46.101   6.745  12.638  0.00  0.00    +0.000 A 
ATOM      6  C   UNL     1      46.432   5.395  12.679  0.00  0.00    +0.000 A 
ATOM      7  N   UNL     1      45.833   4.436  11.935  0.00  0.00    +0.000 NA
BRANCH   2   8
ATOM      8  C   UNL     1      44.277   3.797  10.149  0.00  0.00    +0.000 C 
BRANCH   8  13
ATOM      9  C   UNL     1      46.335   1.769   7.852  0.00  0.00    +0.000 A 
ATOM     10  C   UNL     1      46.924   2.678   6.984  0.00  0.00    +0.000 A 
ATOM     11  C   UNL     1      46.655   4.027   7.176  0.00  0.00    +0.000 A 
ATOM     12  C   UNL     1      45.814   4.414   8.218  0.00  0.00    +0.000 A 
ATOM     13  C   UNL     1      45.233   3.438   9.030  0.00  0.00    +0.000 A 
ATOM     14  N   UNL     1      45.496   2.117   8.859  0.00  0.00    +0.000 NA
BRANCH   9  16
ATOM     15  N   UNL     1      46.820  -0.773   7.662  0.00  0.00    +0.000 NA
ATOM     16  C   UNL     1      46.602   0.364   7.722  0.00  0.00    +0.000 C 
ENDBRANCH   9  16
ENDBRANCH   8  13
ENDBRANCH   2   8
ENDBRANCH   1   5
BRANCH   1  17
ATOM     17  N   UNL     1      47.445   7.163  14.630  0.00  0.00    +0.000 N 
ATOM     18  C   UNL     1      48.769   6.817  14.710  0.00  0.00    +0.000 C 
ATOM     19  O   UNL     1      49.547   6.954  13.772  0.00  0.00    +0.000 OA
ATOM     20  H   UNL     1      46.807   6.814  15.336  0.00  0.00    +0.000 HD
BRANCH  18  21
ATOM     21  C   UNL     1      49.220   6.353  16.028  0.00  0.00    +0.000 A 
ATOM     22  C   UNL     1      50.232   7.028  16.696  0.00  0.00    +0.000 A 
ATOM     23  S   UNL     1      50.572   6.387  18.242  0.00  0.00    +0.000 S 
ATOM     24  C   UNL     1      49.414   5.156  18.048  0.00  0.00    +0.000 A 
ATOM     25  N   UNL     1      49.205   4.226  19.019  0.00  0.00    +0.000 NA
ATOM     26  C   UNL     1      48.319   3.337  18.725  0.00  0.00    +0.000 A 
ATOM     27  N   UNL     1      47.617   3.289  17.549  0.00  0.00    +0.000 N 
ATOM     28  C   UNL     1      47.753   4.236  16.566  0.00  0.00    +0.000 A 
ATOM     29  O   UNL     1      47.033   4.228  15.575  0.00  0.00    +0.000 OA
ATOM     30  C   UNL     1      48.763   5.245  16.832  0.00  0.00    +0.000 A 
ATOM     31  H   UNL     1      46.915   2.581  17.389  0.00  0.00    +0.000 HD
ENDBRANCH  18  21
ENDBRANCH   1  17
TORSDOF 6
ENDMDL
MODEL 2
REMARK VINA RESULT:    -7.353      2.228      3.862
REMARK INTER + INTRA:         -10.809
REMARK INTER:                  -9.681
REMARK INTRA:                  -1.129
REMARK UNBOUND:                -0.877
REMARK  Name = 
REMARK  6 active torsions:
REMARK  status: ('A' for Active; 'I' for Inactive)
REMARK    1  A    between atoms: C_2  and  C_3
REMARK    2  A    between atoms: C_7  and  C_8
REMARK    3  A    between atoms: C_8  and  C_9
REMARK    4  A    between atoms: C_12  and  C_13
REMARK    5  A    between atoms: C_13  and  N_14
REMARK    6  A    between atoms: C_15  and  C_17
REMARK                            x       y       z     vdW  Elec       q    Type
REMARK                         _______ _______ _______ _____ _____    ______ ____
ROOT
ATOM      1  C   UNL     1      46.998   5.059  14.470  0.00  0.00    +0.000 C 
ENDROOT
BRANCH   1   5
ATOM      2  C   UNL     1      44.988   4.433  10.766  0.00  0.00    +0.000 A 
ATOM      3  C   UNL     1      45.530   5.691  11.023  0.00  0.00    +0.000 A 
ATOM      4  C   UNL     1      46.193   5.909  12.228  0.00  0.00    +0.000 A 
ATOM      5  C   UNL     1      46.271   4.884  13.172  0.00  0.00    +0.000 A 
ATOM      6  C   UNL     1      45.662   3.677  12.848  0.00  0.00    +0.000 A 
ATOM      7  N   UNL     1      45.029   3.427  11.677  0.00  0.00    +0.000 NA
BRANCH   2   8
ATOM      8  C   UNL     1      44.430   4.114   9.399  0.00  0.00    +0.000 C 
BRANCH   8  13
ATOM      9  C   UNL     1      46.527   1.679   7.583  0.00  0.00    +0.000 A 
ATOM     10  C   UNL     1      47.303   2.435   6.715  0.00  0.00    +0.000 A 
ATOM     11  C   UNL     1      47.150   3.815   6.744  0.00  0.00    +0.000 A 
ATOM     12  C   UNL     1      46.237   4.383   7.630  0.00  0.00    +0.000 A 
ATOM     13  C   UNL     1      45.469   3.554   8.450  0.00  0.00    +0.000 A 
ATOM     14  N   UNL     1      45.616   2.205   8.439  0.00  0.00    +0.000 NA
BRANCH   9  16
ATOM     15  N   UNL     1      46.819  -0.898   7.654  0.00  0.00    +0.000 NA
ATOM     16  C   UNL     1      46.664   0.250   7.622  0.00  0.00    +0.000 C 
ENDBRANCH   9  16
ENDBRANCH   8  13
ENDBRANCH   2   8
ENDBRANCH   1   5
BRANCH   1  17
ATOM     17  N   UNL     1      47.570   6.373  14.602  0.00  0.00    +0.000 N 
ATOM     18  C   UNL     1      48.705   6.629  15.327  0.00  0.00    +0.000 C 
ATOM     19  O   UNL     1      49.306   5.757  15.947  0.00  0.00    +0.000 OA
ATOM     20  H   UNL     1      46.991   7.153  14.313  0.00  0.00    +0.000 HD
BRANCH  18  21
ATOM     21  C   UNL     1      49.211   8.004  15.239  0.00  0.00    +0.000 A 
ATOM     22  C   UNL     1      49.321   8.781  16.385  0.00  0.00    +0.000 A 
ATOM     23  S   UNL     1      49.995  10.323  16.098  0.00  0.00    +0.000 S 
ATOM     24  C   UNL     1      50.112  10.024  14.428  0.00  0.00    +0.000 A 
ATOM     25  N   UNL     1      50.601  10.966  13.576  0.00  0.00    +0.000 NA
ATOM     26  C   UNL     1      50.605  10.613  12.336  0.00  0.00    +0.000 A 
ATOM     27  N   UNL     1      50.169   9.403  11.864  0.00  0.00    +0.000 N 
ATOM     28  C   UNL     1      49.722   8.403  12.690  0.00  0.00    +0.000 A 
ATOM     29  O   UNL     1      49.443   7.295  12.249  0.00  0.00    +0.000 OA
ATOM     30  C   UNL     1      49.666   8.759  14.096  0.00  0.00    +0.000 A 
ATOM     31  H   UNL     1      50.224   9.176  10.881  0.00  0.00    +0.000 HD
ENDBRANCH  18  21
ENDBRANCH   1  17
TORSDOF 6
ENDMDL
MODEL 3
REMARK VINA RESULT:    -7.186      3.267      7.988
REMARK INTER + INTRA:         -10.584
REMARK INTER:                  -9.447
REMARK INTRA:                  -1.137
REMARK UNBOUND:                -0.877
REMARK  Name = 
REMARK  6 active torsions:
REMARK  status: ('A' for Active; 'I' for Inactive)
REMARK    1  A    between atoms: C_2  and  C_3
REMARK    2  A    between atoms: C_7  and  C_8
REMARK    3  A    between atoms: C_8  and  C_9
REMARK    4  A    between atoms: C_12  and  C_13
REMARK    5  A    between atoms: C_13  and  N_14
REMARK    6  A    between atoms: C_15  and  C_17
REMARK                            x       y       z     vdW  Elec       q    Type
REMARK                         _______ _______ _______ _____ _____    ______ ____
ROOT
ATOM      1  C   UNL     1      48.305   8.183  11.866  0.00  0.00    +0.000 C 
ENDROOT
BRANCH   1   5
ATOM      2  C   UNL     1      49.870   7.590  15.784  0.00  0.00    +0.000 A 
ATOM      3  C   UNL     1      48.520   7.906  15.650  0.00  0.00    +0.000 A 
ATOM      4  C   UNL     1      47.993   8.099  14.375  0.00  0.00    +0.000 A 
ATOM      5  C   UNL     1      48.827   8.013  13.260  0.00  0.00    +0.000 A 
ATOM      6  C   UNL     1      50.171   7.738  13.493  0.00  0.00    +0.000 A 
ATOM      7  N   UNL     1      50.708   7.525  14.717  0.00  0.00    +0.000 NA
BRANCH   2   8
ATOM      8  C   UNL     1      50.425   7.194  17.132  0.00  0.00    +0.000 C 
BRANCH   8  13
ATOM      9  C   UNL     1      49.225   3.728  17.542  0.00  0.00    +0.000 A 
ATOM     10  C   UNL     1      48.548   3.712  18.753  0.00  0.00    +0.000 A 
ATOM     11  C   UNL     1      48.458   4.904  19.461  0.00  0.00    +0.000 A 
ATOM     12  C   UNL     1      49.041   6.056  18.937  0.00  0.00    +0.000 A 
ATOM     13  C   UNL     1      49.733   5.985  17.726  0.00  0.00    +0.000 A 
ATOM     14  N   UNL     1      49.821   4.829  17.020  0.00  0.00    +0.000 NA
BRANCH   9  16
ATOM     15  N   UNL     1      49.409   1.596  16.074  0.00  0.00    +0.000 NA
ATOM     16  C   UNL     1      49.323   2.534  16.750  0.00  0.00    +0.000 C 
ENDBRANCH   9  16
ENDBRANCH   8  13
ENDBRANCH   2   8
ENDBRANCH   1   5
BRANCH   1  17
ATOM     17  N   UNL     1      47.562   7.034  11.419  0.00  0.00    +0.000 N 
ATOM     18  C   UNL     1      46.192   6.981  11.413  0.00  0.00    +0.000 C 
ATOM     19  O   UNL     1      45.492   7.902  11.820  0.00  0.00    +0.000 OA
ATOM     20  H   UNL     1      48.083   6.173  11.300  0.00  0.00    +0.000 HD
BRANCH  18  21
ATOM     21  C   UNL     1      45.611   5.779  10.802  0.00  0.00    +0.000 A 
ATOM     22  C   UNL     1      45.806   5.520   9.452  0.00  0.00    +0.000 A 
ATOM     23  S   UNL     1      45.118   4.045   8.937  0.00  0.00    +0.000 S 
ATOM     24  C   UNL     1      44.493   3.730  10.487  0.00  0.00    +0.000 A 
ATOM     25  N   UNL     1      43.764   2.609  10.739  0.00  0.00    +0.000 NA
ATOM     26  C   UNL     1      43.330   2.514  11.949  0.00  0.00    +0.000 A 
ATOM     27  N   UNL     1      43.559   3.435  12.938  0.00  0.00    +0.000 N 
ATOM     28  C   UNL     1      44.334   4.551  12.746  0.00  0.00    +0.000 A 
ATOM     29  O   UNL     1      44.611   5.297  13.677  0.00  0.00    +0.000 OA
ATOM     30  C   UNL     1      44.823   4.723  11.390  0.00  0.00    +0.000 A 
ATOM     31  H   UNL     1      43.214   3.290  13.876  0.00  0.00    +0.000 HD
ENDBRANCH  18  21
ENDBRANCH   1  17
TORSDOF 6
ENDMDL
MODEL 4
REMARK VINA RESULT:    -7.136      2.955      8.639
REMARK INTER + INTRA:         -10.516
REMARK INTER:                  -9.490
REMARK INTRA:                  -1.026
REMARK UNBOUND:                -0.877
REMARK  Name = 
REMARK  6 active torsions:
REMARK  status: ('A' for Active; 'I' for Inactive)
REMARK    1  A    between atoms: C_2  and  C_3
REMARK    2  A    between atoms: C_7  and  C_8
REMARK    3  A    between atoms: C_8  and  C_9
REMARK    4  A    between atoms: C_12  and  C_13
REMARK    5  A    between atoms: C_13  and  N_14
REMARK    6  A    between atoms: C_15  and  C_17
REMARK                            x       y       z     vdW  Elec       q    Type
REMARK                         _______ _______ _______ _____ _____    ______ ____
ROOT
ATOM      1  C   UNL     1      47.279   7.796  11.728  0.00  0.00    +0.000 C 
ENDROOT
BRANCH   1   5
ATOM      2  C   UNL     1      49.303   8.020  15.470  0.00  0.00    +0.000 A 
ATOM      3  C   UNL     1      48.271   8.922  15.219  0.00  0.00    +0.000 A 
ATOM      4  C   UNL     1      47.597   8.858  14.002  0.00  0.00    +0.000 A 
ATOM      5  C   UNL     1      47.989   7.925  13.041  0.00  0.00    +0.000 A 
ATOM      6  C   UNL     1      49.059   7.097  13.361  0.00  0.00    +0.000 A 
ATOM      7  N   UNL     1      49.720   7.120  14.543  0.00  0.00    +0.000 NA
BRANCH   2   8
ATOM      8  C   UNL     1      49.924   7.944  16.845  0.00  0.00    +0.000 C 
BRANCH   8  13
ATOM      9  C   UNL     1      47.756   5.302  18.239  0.00  0.00    +0.000 A 
ATOM     10  C   UNL     1      47.572   5.640  19.572  0.00  0.00    +0.000 A 
ATOM     11  C   UNL     1      48.169   6.807  20.033  0.00  0.00    +0.000 A 
ATOM     12  C   UNL     1      48.918   7.585  19.153  0.00  0.00    +0.000 A 
ATOM     13  C   UNL     1      49.083   7.162  17.833  0.00  0.00    +0.000 A 
ATOM     14  N   UNL     1      48.499   6.029  17.368  0.00  0.00    +0.000 NA
BRANCH   9  16
ATOM     15  N   UNL     1      46.669   3.150  17.281  0.00  0.00    +0.000 NA
ATOM     16  C   UNL     1      47.138   4.125  17.697  0.00  0.00    +0.000 C 
ENDBRANCH   9  16
ENDBRANCH   8  13
ENDBRANCH   2   8
ENDBRANCH   1   5
BRANCH   1  17
ATOM     17  N   UNL     1      46.599   6.534  11.599  0.00  0.00    +0.000 N 
ATOM     18  C   UNL     1      45.234   6.417  11.558  0.00  0.00    +0.000 C 
ATOM     19  O   UNL     1      44.483   7.382  11.660  0.00  0.00    +0.000 OA
ATOM     20  H   UNL     1      47.154   5.700  11.748  0.00  0.00    +0.000 HD
BRANCH  18  21
ATOM     21  C   UNL     1      44.725   5.066  11.292  0.00  0.00    +0.000 A 
ATOM     22  C   UNL     1      43.947   4.415  12.239  0.00  0.00    +0.000 A 
ATOM     23  S   UNL     1      43.389   2.885  11.725  0.00  0.00    +0.000 S 
ATOM     24  C   UNL     1      44.211   3.021  10.242  0.00  0.00    +0.000 A 
ATOM     25  N   UNL     1      44.166   2.022   9.319  0.00  0.00    +0.000 NA
ATOM     26  C   UNL     1      44.859   2.249   8.254  0.00  0.00    +0.000 A 
ATOM     27  N   UNL     1      45.592   3.383   8.023  0.00  0.00    +0.000 N 
ATOM     28  C   UNL     1      45.621   4.438   8.899  0.00  0.00    +0.000 A 
ATOM     29  O   UNL     1      46.196   5.482   8.615  0.00  0.00    +0.000 OA
ATOM     30  C   UNL     1      44.883   4.223  10.130  0.00  0.00    +0.000 A 
ATOM     31  H   UNL     1      46.093   3.513   7.155  0.00  0.00    +0.000 HD
ENDBRANCH  18  21
ENDBRANCH   1  17
TORSDOF 6
ENDMDL
MODEL 5
REMARK VINA RESULT:    -7.064      2.116      2.953
REMARK INTER + INTRA:         -10.419
REMARK INTER:                  -9.637
REMARK INTRA:                  -0.782
REMARK UNBOUND:                -0.877
REMARK  Name = 
REMARK  6 active torsions:
REMARK  status: ('A' for Active; 'I' for Inactive)
REMARK    1  A    between atoms: C_2  and  C_3
REMARK    2  A    between atoms: C_7  and  C_8
REMARK    3  A    between atoms: C_8  and  C_9
REMARK    4  A    between atoms: C_12  and  C_13
REMARK    5  A    between atoms: C_13  and  N_14
REMARK    6  A    between atoms: C_15  and  C_17
REMARK                            x       y       z     vdW  Elec       q    Type
REMARK                         _______ _______ _______ _____ _____    ______ ____
ROOT
ATOM      1  C   UNL     1      46.433   4.464  14.454  0.00  0.00    +0.000 C 
ENDROOT
BRANCH   1   5
ATOM      2  C   UNL     1      44.905   4.374  10.478  0.00  0.00    +0.000 A 
ATOM      3  C   UNL     1      45.606   5.505  10.895  0.00  0.00    +0.000 A 
ATOM      4  C   UNL     1      46.115   5.546  12.190  0.00  0.00    +0.000 A 
ATOM      5  C   UNL     1      45.883   4.481  13.060  0.00  0.00    +0.000 A 
ATOM      6  C   UNL     1      45.135   3.415  12.572  0.00  0.00    +0.000 A 
ATOM      7  N   UNL     1      44.645   3.336  11.313  0.00  0.00    +0.000 NA
BRANCH   2   8
ATOM      8  C   UNL     1      44.505   4.222   9.029  0.00  0.00    +0.000 C 
BRANCH   8  13
ATOM      9  C   UNL     1      46.634   1.640   7.474  0.00  0.00    +0.000 A 
ATOM     10  C   UNL     1      47.490   2.328   6.626  0.00  0.00    +0.000 A 
ATOM     11  C   UNL     1      47.382   3.712   6.580  0.00  0.00    +0.000 A 
ATOM     12  C   UNL     1      46.433   4.350   7.375  0.00  0.00    +0.000 A 
ATOM     13  C   UNL     1      45.585   3.586   8.180  0.00  0.00    +0.000 A 
ATOM     14  N   UNL     1      45.686   2.234   8.241  0.00  0.00    +0.000 NA
BRANCH   9  16
ATOM     15  N   UNL     1      46.764  -0.946   7.645  0.00  0.00    +0.000 NA
ATOM     16  C   UNL     1      46.720   0.211   7.589  0.00  0.00    +0.000 C 
ENDBRANCH   9  16
ENDBRANCH   8  13
ENDBRANCH   2   8
ENDBRANCH   1   5
BRANCH   1  17
ATOM     17  N   UNL     1      47.192   5.649  14.754  0.00  0.00    +0.000 N 
ATOM     18  C   UNL     1      48.254   5.662  15.621  0.00  0.00    +0.000 C 
ATOM     19  O   UNL     1      48.622   4.665  16.233  0.00  0.00    +0.000 OA
ATOM     20  H   UNL     1      46.789   6.534  14.465  0.00  0.00    +0.000 HD
BRANCH  18  21
ATOM     21  C   UNL     1      48.986   6.933  15.702  0.00  0.00    +0.000 A 
ATOM     22  C   UNL     1      49.674   7.413  14.596  0.00  0.00    +0.000 A 
ATOM     23  S   UNL     1      50.402   8.935  14.858  0.00  0.00    +0.000 S 
ATOM     24  C   UNL     1      49.867   8.977  16.471  0.00  0.00    +0.000 A 
ATOM     25  N   UNL     1      50.170  10.024  17.287  0.00  0.00    +0.000 NA
ATOM     26  C   UNL     1      49.723   9.909  18.491  0.00  0.00    +0.000 A 
ATOM     27  N   UNL     1      48.997   8.845  18.960  0.00  0.00    +0.000 N 
ATOM     28  C   UNL     1      48.621   7.795  18.160  0.00  0.00    +0.000 A 
ATOM     29  O   UNL     1      47.881   6.914  18.580  0.00  0.00    +0.000 OA
ATOM     30  C   UNL     1      49.125   7.859  16.800  0.00  0.00    +0.000 A 
ATOM     31  H   UNL     1      48.653   8.826  19.909  0.00  0.00    +0.000 HD
ENDBRANCH  18  21
ENDBRANCH   1  17
TORSDOF 6
ENDMDL
MODEL 6
REMARK VINA RESULT:    -7.063      2.003      3.185
REMARK INTER + INTRA:         -10.418
REMARK INTER:                  -9.052
REMARK INTRA:                  -1.366
REMARK UNBOUND:                -0.877
REMARK  Name = 
REMARK  6 active torsions:
REMARK  status: ('A' for Active; 'I' for Inactive)
REMARK    1  A    between atoms: C_2  and  C_3
REMARK    2  A    between atoms: C_7  and  C_8
REMARK    3  A    between atoms: C_8  and  C_9
REMARK    4  A    between atoms: C_12  and  C_13
REMARK    5  A    between atoms: C_13  and  N_14
REMARK    6  A    between atoms: C_15  and  C_17
REMARK                            x       y       z     vdW  Elec       q    Type
REMARK                         _______ _______ _______ _____ _____    ______ ____
ROOT
ATOM      1  C   UNL     1      49.342   8.346  14.222  0.00  0.00    +0.000 C 
ENDROOT
BRANCH   1   5
ATOM      2  C   UNL     1      45.876   7.511  11.891  0.00  0.00    +0.000 A 
ATOM      3  C   UNL     1      47.056   6.832  11.592  0.00  0.00    +0.000 A 
ATOM      4  C   UNL     1      48.196   7.091  12.349  0.00  0.00    +0.000 A 
ATOM      5  C   UNL     1      48.152   8.050  13.361  0.00  0.00    +0.000 A 
ATOM      6  C   UNL     1      46.944   8.710  13.558  0.00  0.00    +0.000 A 
ATOM      7  N   UNL     1      45.813   8.465  12.855  0.00  0.00    +0.000 NA
BRANCH   2   8
ATOM      8  C   UNL     1      44.583   7.117  11.215  0.00  0.00    +0.000 C 
BRANCH   8  13
ATOM      9  C   UNL     1      44.142   3.477  10.787  0.00  0.00    +0.000 A 
ATOM     10  C   UNL     1      43.524   3.041  11.951  0.00  0.00    +0.000 A 
ATOM     11  C   UNL     1      43.212   3.991  12.915  0.00  0.00    +0.000 A 
ATOM     12  C   UNL     1      43.526   5.328  12.682  0.00  0.00    +0.000 A 
ATOM     13  C   UNL     1      44.177   5.686  11.500  0.00  0.00    +0.000 A 
ATOM     14  N   UNL     1      44.479   4.768  10.546  0.00  0.00    +0.000 NA
BRANCH   9  16
ATOM     15  N   UNL     1      44.747   1.776   8.924  0.00  0.00    +0.000 NA
ATOM     16  C   UNL     1      44.460   2.546   9.741  0.00  0.00    +0.000 C 
ENDBRANCH   9  16
ENDBRANCH   8  13
ENDBRANCH   2   8
ENDBRANCH   1   5
BRANCH   1  17
ATOM     17  N   UNL     1      49.474   7.411  15.309  0.00  0.00    +0.000 N 
ATOM     18  C   UNL     1      48.990   7.650  16.569  0.00  0.00    +0.000 C 
ATOM     19  O   UNL     1      48.431   8.698  16.876  0.00  0.00    +0.000 OA
ATOM     20  H   UNL     1      50.126   6.646  15.174  0.00  0.00    +0.000 HD
BRANCH  18  21
ATOM     21  C   UNL     1      49.104   6.529  17.510  0.00  0.00    +0.000 A 
ATOM     22  C   UNL     1      49.805   6.684  18.697  0.00  0.00    +0.000 A 
ATOM     23  S   UNL     1      49.768   5.298  19.695  0.00  0.00    +0.000 S 
ATOM     24  C   UNL     1      48.858   4.430  18.550  0.00  0.00    +0.000 A 
ATOM     25  N   UNL     1      48.492   3.139  18.775  0.00  0.00    +0.000 NA
ATOM     26  C   UNL     1      47.830   2.596  17.810  0.00  0.00    +0.000 A 
ATOM     27  N   UNL     1      47.495   3.224  16.639  0.00  0.00    +0.000 N 
ATOM     28  C   UNL     1      47.794   4.540  16.392  0.00  0.00    +0.000 A 
ATOM     29  O   UNL     1      47.386   5.103  15.384  0.00  0.00    +0.000 OA
ATOM     30  C   UNL     1      48.568   5.191  17.434  0.00  0.00    +0.000 A 
ATOM     31  H   UNL     1      46.951   2.752  15.931  0.00  0.00    +0.000 HD
ENDBRANCH  18  21
ENDBRANCH   1  17
TORSDOF 6
ENDMDL
MODEL 7
REMARK VINA RESULT:    -6.913      4.273      9.114
REMARK INTER + INTRA:         -10.215
REMARK INTER:                  -9.658
REMARK INTRA:                  -0.557
REMARK UNBOUND:                -0.877
REMARK  Name = 
REMARK  6 active torsions:
REMARK  status: ('A' for Active; 'I' for Inactive)
REMARK    1  A    between atoms: C_2  and  C_3
REMARK    2  A    between atoms: C_7  and  C_8
REMARK    3  A    between atoms: C_8  and  C_9
REMARK    4  A    between atoms: C_12  and  C_13
REMARK    5  A    between atoms: C_13  and  N_14
REMARK    6  A    between atoms: C_15  and  C_17
REMARK                            x       y       z     vdW  Elec       q    Type
REMARK                         _______ _______ _______ _____ _____    ______ ____
ROOT
ATOM      1  C   UNL     1      47.450   3.305  16.760  0.00  0.00    +0.000 C 
ENDROOT
BRANCH   1   5
ATOM      2  C   UNL     1      51.568   3.250  17.849  0.00  0.00    +0.000 A 
ATOM      3  C   UNL     1      50.877   4.458  17.928  0.00  0.00    +0.000 A 
ATOM      4  C   UNL     1      49.529   4.490  17.580  0.00  0.00    +0.000 A 
ATOM      5  C   UNL     1      48.904   3.330  17.120  0.00  0.00    +0.000 A 
ATOM      6  C   UNL     1      49.685   2.182  17.031  0.00  0.00    +0.000 A 
ATOM      7  N   UNL     1      50.990   2.114  17.383  0.00  0.00    +0.000 NA
BRANCH   2   8
ATOM      8  C   UNL     1      52.973   3.145  18.395  0.00  0.00    +0.000 C 
BRANCH   8  13
ATOM      9  C   UNL     1      54.010  -0.396  18.291  0.00  0.00    +0.000 A 
ATOM     10  C   UNL     1      54.889  -0.492  17.221  0.00  0.00    +0.000 A 
ATOM     11  C   UNL     1      55.177   0.667  16.513  0.00  0.00    +0.000 A 
ATOM     12  C   UNL     1      54.583   1.868  16.896  0.00  0.00    +0.000 A 
ATOM     13  C   UNL     1      53.683   1.878  17.964  0.00  0.00    +0.000 A 
ATOM     14  N   UNL     1      53.400   0.754  18.670  0.00  0.00    +0.000 NA
BRANCH   9  16
ATOM     15  N   UNL     1      53.407  -2.490  19.699  0.00  0.00    +0.000 NA
ATOM     16  C   UNL     1      53.698  -1.554  19.080  0.00  0.00    +0.000 C 
ENDBRANCH   9  16
ENDBRANCH   8  13
ENDBRANCH   2   8
ENDBRANCH   1   5
BRANCH   1  17
ATOM     17  N   UNL     1      47.105   4.334  15.814  0.00  0.00    +0.000 N 
ATOM     18  C   UNL     1      47.021   4.115  14.464  0.00  0.00    +0.000 C 
ATOM     19  O   UNL     1      47.265   3.027  13.953  0.00  0.00    +0.000 OA
ATOM     20  H   UNL     1      47.127   5.289  16.153  0.00  0.00    +0.000 HD
BRANCH  18  21
ATOM     21  C   UNL     1      46.530   5.249  13.671  0.00  0.00    +0.000 A 
ATOM     22  C   UNL     1      47.299   6.398  13.548  0.00  0.00    +0.000 A 
ATOM     23  S   UNL     1      46.599   7.579  12.532  0.00  0.00    +0.000 S 
ATOM     24  C   UNL     1      45.222   6.616  12.268  0.00  0.00    +0.000 A 
ATOM     25  N   UNL     1      44.197   7.052  11.486  0.00  0.00    +0.000 NA
ATOM     26  C   UNL     1      43.207   6.230  11.397  0.00  0.00    +0.000 A 
ATOM     27  N   UNL     1      43.144   5.009  12.015  0.00  0.00    +0.000 N 
ATOM     28  C   UNL     1      44.176   4.504  12.766  0.00  0.00    +0.000 A 
ATOM     29  O   UNL     1      44.134   3.365  13.214  0.00  0.00    +0.000 OA
ATOM     30  C   UNL     1      45.304   5.403  12.925  0.00  0.00    +0.000 A 
ATOM     31  H   UNL     1      42.350   4.398  11.884  0.00  0.00    +0.000 HD
ENDBRANCH  18  21
ENDBRANCH   1  17
TORSDOF 6
ENDMDL
MODEL 8
REMARK VINA RESULT:    -6.878      3.914      8.780
REMARK INTER + INTRA:         -10.168
REMARK INTER:                  -9.216
REMARK INTRA:                  -0.952
REMARK UNBOUND:                -0.877
REMARK  Name = 
REMARK  6 active torsions:
REMARK  status: ('A' for Active; 'I' for Inactive)
REMARK    1  A    between atoms: C_2  and  C_3
REMARK    2  A    between atoms: C_7  and  C_8
REMARK    3  A    between atoms: C_8  and  C_9
REMARK    4  A    between atoms: C_12  and  C_13
REMARK    5  A    between atoms: C_13  and  N_14
REMARK    6  A    between atoms: C_15  and  C_17
REMARK                            x       y       z     vdW  Elec       q    Type
REMARK                         _______ _______ _______ _____ _____    ______ ____
ROOT
ATOM      1  C   UNL     1      47.137   3.383  16.823  0.00  0.00    +0.000 C 
ENDROOT
BRANCH   1   5
ATOM      2  C   UNL     1      51.080   4.012  18.308  0.00  0.00    +0.000 A 
ATOM      3  C   UNL     1      50.838   2.886  17.524  0.00  0.00    +0.000 A 
ATOM      4  C   UNL     1      49.555   2.669  17.028  0.00  0.00    +0.000 A 
ATOM      5  C   UNL     1      48.527   3.555  17.354  0.00  0.00    +0.000 A 
ATOM      6  C   UNL     1      48.852   4.626  18.180  0.00  0.00    +0.000 A 
ATOM      7  N   UNL     1      50.093   4.875  18.660  0.00  0.00    +0.000 NA
BRANCH   2   8
ATOM      8  C   UNL     1      52.494   4.371  18.703  0.00  0.00    +0.000 C 
BRANCH   8  13
ATOM      9  C   UNL     1      53.376   6.592  15.890  0.00  0.00    +0.000 A 
ATOM     10  C   UNL     1      54.666   6.233  15.526  0.00  0.00    +0.000 A 
ATOM     11  C   UNL     1      55.270   5.193  16.221  0.00  0.00    +0.000 A 
ATOM     12  C   UNL     1      54.568   4.556  17.243  0.00  0.00    +0.000 A 
ATOM     13  C   UNL     1      53.284   4.995  17.572  0.00  0.00    +0.000 A 
ATOM     14  N   UNL     1      52.680   6.004  16.895  0.00  0.00    +0.000 NA
BRANCH   9  16
ATOM     15  N   UNL     1      52.122   8.453  14.588  0.00  0.00    +0.000 NA
ATOM     16  C   UNL     1      52.688   7.638  15.187  0.00  0.00    +0.000 C 
ENDBRANCH   9  16
ENDBRANCH   8  13
ENDBRANCH   2   8
ENDBRANCH   1   5
BRANCH   1  17
ATOM     17  N   UNL     1      46.803   4.378  15.838  0.00  0.00    +0.000 N 
ATOM     18  C   UNL     1      46.849   4.144  14.488  0.00  0.00    +0.000 C 
ATOM     19  O   UNL     1      47.208   3.072  14.014  0.00  0.00    +0.000 OA
ATOM     20  H   UNL     1      46.731   5.335  16.164  0.00  0.00    +0.000 HD
BRANCH  18  21
ATOM     21  C   UNL     1      46.349   5.236  13.642  0.00  0.00    +0.000 A 
ATOM     22  C   UNL     1      47.125   6.368  13.436  0.00  0.00    +0.000 A 
ATOM     23  S   UNL     1      46.412   7.494  12.369  0.00  0.00    +0.000 S 
ATOM     24  C   UNL     1      45.022   6.531  12.191  0.00  0.00    +0.000 A 
ATOM     25  N   UNL     1      43.983   6.932  11.408  0.00  0.00    +0.000 NA
ATOM     26  C   UNL     1      42.984   6.116  11.389  0.00  0.00    +0.000 A 
ATOM     27  N   UNL     1      42.925   4.933  12.078  0.00  0.00    +0.000 N 
ATOM     28  C   UNL     1      43.969   4.462  12.833  0.00  0.00    +0.000 A 
ATOM     29  O   UNL     1      43.928   3.351  13.347  0.00  0.00    +0.000 OA
ATOM     30  C   UNL     1      45.108   5.358  12.916  0.00  0.00    +0.000 A 
ATOM     31  H   UNL     1      42.123   4.324  12.000  0.00  0.00    +0.000 HD
ENDBRANCH  18  21
ENDBRANCH   1  17
TORSDOF 6
ENDMDL
MODEL 9
REMARK VINA RESULT:    -6.655      2.198      2.775
REMARK INTER + INTRA:          -9.866
REMARK INTER:                  -9.080
REMARK INTRA:                  -0.786
REMARK UNBOUND:                -0.877
REMARK  Name = 
REMARK  6 active torsions:
REMARK  status: ('A' for Active; 'I' for Inactive)
REMARK    1  A    between atoms: C_2  and  C_3
REMARK    2  A    between atoms: C_7  and  C_8
REMARK    3  A    between atoms: C_8  and  C_9
REMARK    4  A    between atoms: C_12  and  C_13
REMARK    5  A    between atoms: C_13  and  N_14
REMARK    6  A    between atoms: C_15  and  C_17
REMARK                            x       y       z     vdW  Elec       q    Type
REMARK                         _______ _______ _______ _____ _____    ______ ____
ROOT
ATOM      1  C   UNL     1      46.321   8.148  13.249  0.00  0.00    +0.000 C 
ENDROOT
BRANCH   1   5
ATOM      2  C   UNL     1      44.650   4.835  11.155  0.00  0.00    +0.000 A 
ATOM      3  C   UNL     1      43.871   5.980  11.316  0.00  0.00    +0.000 A 
ATOM      4  C   UNL     1      44.406   7.072  11.995  0.00  0.00    +0.000 A 
ATOM      5  C   UNL     1      45.689   6.991  12.536  0.00  0.00    +0.000 A 
ATOM      6  C   UNL     1      46.375   5.793  12.365  0.00  0.00    +0.000 A 
ATOM      7  N   UNL     1      45.891   4.723  11.692  0.00  0.00    +0.000 NA
BRANCH   2   8
ATOM      8  C   UNL     1      44.169   3.711  10.267  0.00  0.00    +0.000 C 
BRANCH   8  13
ATOM      9  C   UNL     1      46.252   1.761   7.926  0.00  0.00    +0.000 A 
ATOM     10  C   UNL     1      46.840   2.697   7.086  0.00  0.00    +0.000 A 
ATOM     11  C   UNL     1      46.560   4.038   7.315  0.00  0.00    +0.000 A 
ATOM     12  C   UNL     1      45.712   4.390   8.363  0.00  0.00    +0.000 A 
ATOM     13  C   UNL     1      45.133   3.389   9.145  0.00  0.00    +0.000 A 
ATOM     14  N   UNL     1      45.406   2.075   8.938  0.00  0.00    +0.000 NA
BRANCH   9  16
ATOM     15  N   UNL     1      46.795  -0.758   7.624  0.00  0.00    +0.000 NA
ATOM     16  C   UNL     1      46.528   0.362   7.759  0.00  0.00    +0.000 C 
ENDBRANCH   9  16
ENDBRANCH   8  13
ENDBRANCH   2   8
ENDBRANCH   1   5
BRANCH   1  17
ATOM     17  N   UNL     1      47.735   7.960  13.445  0.00  0.00    +0.000 N 
ATOM     18  C   UNL     1      48.647   8.979  13.355  0.00  0.00    +0.000 C 
ATOM     19  O   UNL     1      48.329  10.129  13.069  0.00  0.00    +0.000 OA
ATOM     20  H   UNL     1      48.072   7.004  13.447  0.00  0.00    +0.000 HD
BRANCH  18  21
ATOM     21  C   UNL     1      50.026   8.624  13.713  0.00  0.00    +0.000 A 
ATOM     22  C   UNL     1      51.087   9.099  12.955  0.00  0.00    +0.000 A 
ATOM     23  S   UNL     1      52.615   8.642  13.565  0.00  0.00    +0.000 S 
ATOM     24  C   UNL     1      51.907   7.751  14.829  0.00  0.00    +0.000 A 
ATOM     25  N   UNL     1      52.672   7.076  15.729  0.00  0.00    +0.000 NA
ATOM     26  C   UNL     1      52.002   6.422  16.615  0.00  0.00    +0.000 A 
ATOM     27  N   UNL     1      50.634   6.380  16.690  0.00  0.00    +0.000 N 
ATOM     28  C   UNL     1      49.824   7.090  15.840  0.00  0.00    +0.000 A 
ATOM     29  O   UNL     1      48.610   7.120  16.001  0.00  0.00    +0.000 OA
ATOM     30  C   UNL     1      50.527   7.820  14.801  0.00  0.00    +0.000 A 
ATOM     31  H   UNL     1      50.167   5.870  17.426  0.00  0.00    +0.000 HD
ENDBRANCH  18  21
ENDBRANCH   1  17
TORSDOF 6
ENDMDL
