MODEL 1
REMARK VINA RESULT:    -8.629      0.000      0.000
REMARK INTER + INTRA:         -13.645
REMARK INTER:                 -12.665
REMARK INTRA:                  -0.980
REMARK UNBOUND:                -0.980
REMARK  Name = 
REMARK  9 active torsions:
REMARK  status: ('A' for Active; 'I' for Inactive)
REMARK    1  A    between atoms: C_1  and  C_2
REMARK    2  A    between atoms: C_2  and  N_3
REMARK    3  A    between atoms: C_2  and  C_20
REMARK    4  A    between atoms: N_3  and  C_4
REMARK    5  A    between atoms: C_4  and  C_5
REMARK    6  A    between atoms: C_8  and  C_9
REMARK    7  A    between atoms: C_9  and  O_10
REMARK    8  A    between atoms: O_10  and  C_11
REMARK    9  A    between atoms: C_11  and  C_12
REMARK                            x       y       z     vdW  Elec       q    Type
REMARK                         _______ _______ _______ _____ _____    ______ ____
ROOT
ATOM      1  C   UNL     1      47.709   5.358  14.622  0.00  0.00    +0.000 C 
ENDROOT
BRANCH   1   2
ATOM      2  C   UNL     1      46.631   5.119  13.587  0.00  0.00    +0.000 A 
ATOM      3  C   UNL     1      46.104   6.173  12.828  0.00  0.00    +0.000 A 
ATOM      4  C   UNL     1      45.173   5.924  11.816  0.00  0.00    +0.000 A 
ATOM      5  C   UNL     1      44.755   4.617  11.532  0.00  0.00    +0.000 A 
ATOM      6  C   UNL     1      45.275   3.563  12.292  0.00  0.00    +0.000 A 
ATOM      7  C   UNL     1      46.201   3.812  13.309  0.00  0.00    +0.000 A 
BRANCH   5   8
ATOM      8  C   UNL     1      43.763   4.353  10.430  0.00  0.00    +0.000 C 
BRANCH   8   9
ATOM      9  O   UNL     1      44.305   3.379   9.542  0.00  0.00    +0.000 OA
BRANCH   9  10
ATOM     10  C   UNL     1      44.930   3.988   8.414  0.00  0.00    +0.000 C 
BRANCH  10  11
ATOM     11  C   UNL     1      45.913   3.036   7.784  0.00  0.00    +0.000 A 
ATOM     12  C   UNL     1      46.040   1.731   8.273  0.00  0.00    +0.000 A 
ATOM     13  C   UNL     1      46.932   0.870   7.653  0.00  0.00    +0.000 A 
ATOM     14  N   UNL     1      47.688   1.207   6.588  0.00  0.00    +0.000 NA
ATOM     15  C   UNL     1      47.544   2.466   6.122  0.00  0.00    +0.000 A 
ATOM     16  C   UNL     1      46.679   3.399   6.673  0.00  0.00    +0.000 A 
ENDBRANCH  10  11
ENDBRANCH   9  10
ENDBRANCH   8   9
ENDBRANCH   5   8
ENDBRANCH   1   2
BRANCH   1  17
ATOM     17  N   UNL     1      47.273   5.046  15.986  0.00  0.00    +0.000 NA
ATOM     18  H   UNL     1      47.553   5.824  16.583  0.00  0.00    +0.000 HD
BRANCH  17  20
ATOM     19  C   UNL     1      46.984   3.003  17.402  0.00  0.00    +0.000 C 
ATOM     20  C   UNL     1      47.922   3.836  16.515  0.00  0.00    +0.000 C 
BRANCH  20  21
ATOM     21  C   UNL     1      49.160   4.299  17.266  0.00  0.00    +0.000 A 
ATOM     22  C   UNL     1      49.325   5.549  17.846  0.00  0.00    +0.000 A 
ATOM     23  S   UNL     1      50.822   5.740  18.645  0.00  0.00    +0.000 S 
ATOM     24  C   UNL     1      51.320   4.171  18.212  0.00  0.00    +0.000 A 
ATOM     25  N   UNL     1      52.540   3.693  18.577  0.00  0.00    +0.000 NA
ATOM     26  C   UNL     1      52.782   2.492  18.168  0.00  0.00    +0.000 A 
ATOM     27  N   UNL     1      51.917   1.724  17.428  0.00  0.00    +0.000 N 
ATOM     28  C   UNL     1      50.679   2.172  17.020  0.00  0.00    +0.000 A 
ATOM     29  O   UNL     1      49.944   1.479  16.324  0.00  0.00    +0.000 OA
ATOM     30  C   UNL     1      50.357   3.512  17.473  0.00  0.00    +0.000 A 
ATOM     31  H   UNL     1      52.176   0.797  17.129  0.00  0.00    +0.000 HD
ENDBRANCH  20  21
ENDBRANCH  17  20
ENDBRANCH   1  17
TORSDOF 8
ENDMDL
MODEL 2
REMARK VINA RESULT:    -7.956      1.625      2.016
REMARK INTER + INTRA:         -12.656
REMARK INTER:                 -11.510
REMARK INTRA:                  -1.146
REMARK UNBOUND:                -0.980
REMARK  Name = 
REMARK  9 active torsions:
REMARK  status: ('A' for Active; 'I' for Inactive)
REMARK    1  A    between atoms: C_1  and  C_2
REMARK    2  A    between atoms: C_2  and  N_3
REMARK    3  A    between atoms: C_2  and  C_20
REMARK    4  A    between atoms: N_3  and  C_4
REMARK    5  A    between atoms: C_4  and  C_5
REMARK    6  A    between atoms: C_8  and  C_9
REMARK    7  A    between atoms: C_9  and  O_10
REMARK    8  A    between atoms: O_10  and  C_11
REMARK    9  A    between atoms: C_11  and  C_12
REMARK                            x       y       z     vdW  Elec       q    Type
REMARK                         _______ _______ _______ _____ _____    ______ ____
ROOT
ATOM      1  C   UNL     1      48.242   6.773  13.558  0.00  0.00    +0.000 C 
ENDROOT
BRANCH   1   2
ATOM      2  C   UNL     1      47.046   6.205  12.827  0.00  0.00    +0.000 A 
ATOM      3  C   UNL     1      46.465   6.880  11.745  0.00  0.00    +0.000 A 
ATOM      4  C   UNL     1      45.415   6.301  11.025  0.00  0.00    +0.000 A 
ATOM      5  C   UNL     1      44.930   5.031  11.364  0.00  0.00    +0.000 A 
ATOM      6  C   UNL     1      45.503   4.357  12.448  0.00  0.00    +0.000 A 
ATOM      7  C   UNL     1      46.548   4.939  13.173  0.00  0.00    +0.000 A 
BRANCH   5   8
ATOM      8  C   UNL     1      43.809   4.405  10.576  0.00  0.00    +0.000 C 
BRANCH   8   9
ATOM      9  O   UNL     1      44.333   3.334   9.796  0.00  0.00    +0.000 OA
BRANCH   9  10
ATOM     10  C   UNL     1      44.704   3.769   8.489  0.00  0.00    +0.000 C 
BRANCH  10  11
ATOM     11  C   UNL     1      45.824   2.915   7.953  0.00  0.00    +0.000 A 
ATOM     12  C   UNL     1      45.866   1.547   8.243  0.00  0.00    +0.000 A 
ATOM     13  C   UNL     1      46.894   0.784   7.710  0.00  0.00    +0.000 A 
ATOM     14  N   UNL     1      47.862   1.277   6.912  0.00  0.00    +0.000 NA
ATOM     15  C   UNL     1      47.800   2.597   6.634  0.00  0.00    +0.000 A 
ATOM     16  C   UNL     1      46.812   3.442   7.117  0.00  0.00    +0.000 A 
ENDBRANCH  10  11
ENDBRANCH   9  10
ENDBRANCH   8   9
ENDBRANCH   5   8
ENDBRANCH   1   2
BRANCH   1  17
ATOM     17  N   UNL     1      48.607   6.001  14.749  0.00  0.00    +0.000 NA
ATOM     18  H   UNL     1      47.797   5.440  15.010  0.00  0.00    +0.000 HD
BRANCH  17  20
ATOM     19  C   UNL     1      48.725   8.355  15.586  0.00  0.00    +0.000 C 
ATOM     20  C   UNL     1      48.928   6.863  15.896  0.00  0.00    +0.000 C 
BRANCH  20  21
ATOM     21  C   UNL     1      50.362   6.549  16.290  0.00  0.00    +0.000 A 
ATOM     22  C   UNL     1      51.468   7.325  15.976  0.00  0.00    +0.000 A 
ATOM     23  S   UNL     1      52.934   6.709  16.598  0.00  0.00    +0.000 S 
ATOM     24  C   UNL     1      52.148   5.361  17.278  0.00  0.00    +0.000 A 
ATOM     25  N   UNL     1      52.842   4.409  17.958  0.00  0.00    +0.000 NA
ATOM     26  C   UNL     1      52.114   3.442  18.407  0.00  0.00    +0.000 A 
ATOM     27  N   UNL     1      50.754   3.339  18.241  0.00  0.00    +0.000 N 
ATOM     28  C   UNL     1      50.012   4.269  17.545  0.00  0.00    +0.000 A 
ATOM     29  O   UNL     1      48.805   4.130  17.377  0.00  0.00    +0.000 OA
ATOM     30  C   UNL     1      50.788   5.384  17.037  0.00  0.00    +0.000 A 
ATOM     31  H   UNL     1      50.247   2.548  18.606  0.00  0.00    +0.000 HD
ENDBRANCH  20  21
ENDBRANCH  17  20
ENDBRANCH   1  17
TORSDOF 8
ENDMDL
MODEL 3
REMARK VINA RESULT:    -7.563      2.095      2.853
REMARK INTER + INTRA:         -12.079
REMARK INTER:                 -10.912
REMARK INTRA:                  -1.167
REMARK UNBOUND:                -0.980
REMARK  Name = 
REMARK  9 active torsions:
REMARK  status: ('A' for Active; 'I' for Inactive)
REMARK    1  A    between atoms: C_1  and  C_2
REMARK    2  A    between atoms: C_2  and  N_3
REMARK    3  A    between atoms: C_2  and  C_20
REMARK    4  A    between atoms: N_3  and  C_4
REMARK    5  A    between atoms: C_4  and  C_5
REMARK    6  A    between atoms: C_8  and  C_9
REMARK    7  A    between atoms: C_9  and  O_10
REMARK    8  A    between atoms: O_10  and  C_11
REMARK    9  A    between atoms: C_11  and  C_12
REMARK                            x       y       z     vdW  Elec       q    Type
REMARK                         _______ _______ _______ _____ _____    ______ ____
ROOT
ATOM      1  C   UNL     1      48.550   6.902  13.416  0.00  0.00    +0.000 C 
ENDROOT
BRANCH   1   2
ATOM      2  C   UNL     1      47.432   6.165  12.712  0.00  0.00    +0.000 A 
ATOM      3  C   UNL     1      46.868   5.003  13.257  0.00  0.00    +0.000 A 
ATOM      4  C   UNL     1      45.777   4.383  12.640  0.00  0.00    +0.000 A 
ATOM      5  C   UNL     1      45.220   4.915  11.470  0.00  0.00    +0.000 A 
ATOM      6  C   UNL     1      45.784   6.071  10.919  0.00  0.00    +0.000 A 
ATOM      7  C   UNL     1      46.879   6.687  11.532  0.00  0.00    +0.000 A 
BRANCH   5   8
ATOM      8  C   UNL     1      44.035   4.252  10.817  0.00  0.00    +0.000 C 
BRANCH   8   9
ATOM      9  O   UNL     1      44.497   3.179  10.000  0.00  0.00    +0.000 OA
BRANCH   9  10
ATOM     10  C   UNL     1      44.671   3.589   8.645  0.00  0.00    +0.000 C 
BRANCH  10  11
ATOM     11  C   UNL     1      45.790   2.810   8.004  0.00  0.00    +0.000 A 
ATOM     12  C   UNL     1      46.726   3.461   7.192  0.00  0.00    +0.000 A 
ATOM     13  C   UNL     1      47.760   2.721   6.640  0.00  0.00    +0.000 A 
ATOM     14  N   UNL     1      47.933   1.399   6.846  0.00  0.00    +0.000 NA
ATOM     15  C   UNL     1      47.027   0.789   7.640  0.00  0.00    +0.000 A 
ATOM     16  C   UNL     1      45.960   1.443   8.238  0.00  0.00    +0.000 A 
ENDBRANCH  10  11
ENDBRANCH   9  10
ENDBRANCH   8   9
ENDBRANCH   5   8
ENDBRANCH   1   2
BRANCH   1  17
ATOM     17  N   UNL     1      48.780   6.424  14.782  0.00  0.00    +0.000 NA
ATOM     18  H   UNL     1      48.167   5.624  14.934  0.00  0.00    +0.000 HD
BRANCH  17  20
ATOM     19  C   UNL     1      48.766   8.865  15.331  0.00  0.00    +0.000 C 
ATOM     20  C   UNL     1      48.435   7.437  15.791  0.00  0.00    +0.000 C 
BRANCH  20  21
ATOM     21  C   UNL     1      49.178   7.056  17.062  0.00  0.00    +0.000 A 
ATOM     22  C   UNL     1      50.248   7.753  17.604  0.00  0.00    +0.000 A 
ATOM     23  S   UNL     1      50.836   7.079  19.059  0.00  0.00    +0.000 S 
ATOM     24  C   UNL     1      49.705   5.808  18.997  0.00  0.00    +0.000 A 
ATOM     25  N   UNL     1      49.673   4.847  19.958  0.00  0.00    +0.000 NA
ATOM     26  C   UNL     1      48.769   3.943  19.772  0.00  0.00    +0.000 A 
ATOM     27  N   UNL     1      47.894   3.912  18.714  0.00  0.00    +0.000 N 
ATOM     28  C   UNL     1      47.901   4.854  17.708  0.00  0.00    +0.000 A 
ATOM     29  O   UNL     1      47.135   4.778  16.753  0.00  0.00    +0.000 OA
ATOM     30  C   UNL     1      48.890   5.900  17.885  0.00  0.00    +0.000 A 
ATOM     31  H   UNL     1      47.221   3.167  18.622  0.00  0.00    +0.000 HD
ENDBRANCH  20  21
ENDBRANCH  17  20
ENDBRANCH   1  17
TORSDOF 8
ENDMDL
MODEL 4
REMARK VINA RESULT:    -7.370      2.663      3.457
REMARK INTER + INTRA:         -11.797
REMARK INTER:                 -10.844
REMARK INTRA:                  -0.953
REMARK UNBOUND:                -0.980
REMARK  Name = 
REMARK  9 active torsions:
REMARK  status: ('A' for Active; 'I' for Inactive)
REMARK    1  A    between atoms: C_1  and  C_2
REMARK    2  A    between atoms: C_2  and  N_3
REMARK    3  A    between atoms: C_2  and  C_20
REMARK    4  A    between atoms: N_3  and  C_4
REMARK    5  A    between atoms: C_4  and  C_5
REMARK    6  A    between atoms: C_8  and  C_9
REMARK    7  A    between atoms: C_9  and  O_10
REMARK    8  A    between atoms: O_10  and  C_11
REMARK    9  A    between atoms: C_11  and  C_12
REMARK                            x       y       z     vdW  Elec       q    Type
REMARK                         _______ _______ _______ _____ _____    ______ ____
ROOT
ATOM      1  C   UNL     1      48.328   7.245  13.818  0.00  0.00    +0.000 C 
ENDROOT
BRANCH   1   2
ATOM      2  C   UNL     1      47.215   6.571  13.046  0.00  0.00    +0.000 A 
ATOM      3  C   UNL     1      46.935   6.919  11.718  0.00  0.00    +0.000 A 
ATOM      4  C   UNL     1      45.962   6.226  10.990  0.00  0.00    +0.000 A 
ATOM      5  C   UNL     1      45.255   5.164  11.570  0.00  0.00    +0.000 A 
ATOM      6  C   UNL     1      45.527   4.819  12.898  0.00  0.00    +0.000 A 
ATOM      7  C   UNL     1      46.495   5.515  13.628  0.00  0.00    +0.000 A 
BRANCH   5   8
ATOM      8  C   UNL     1      44.219   4.412  10.777  0.00  0.00    +0.000 C 
BRANCH   8   9
ATOM      9  O   UNL     1      44.848   3.324  10.106  0.00  0.00    +0.000 OA
BRANCH   9  10
ATOM     10  C   UNL     1      44.716   3.433   8.690  0.00  0.00    +0.000 C 
BRANCH  10  11
ATOM     11  C   UNL     1      45.881   2.769   8.004  0.00  0.00    +0.000 A 
ATOM     12  C   UNL     1      46.103   1.396   8.165  0.00  0.00    +0.000 A 
ATOM     13  C   UNL     1      47.167   0.810   7.497  0.00  0.00    +0.000 A 
ATOM     14  N   UNL     1      48.006   1.481   6.682  0.00  0.00    +0.000 NA
ATOM     15  C   UNL     1      47.770   2.801   6.529  0.00  0.00    +0.000 A 
ATOM     16  C   UNL     1      46.733   3.477   7.153  0.00  0.00    +0.000 A 
ENDBRANCH  10  11
ENDBRANCH   9  10
ENDBRANCH   8   9
ENDBRANCH   5   8
ENDBRANCH   1   2
BRANCH   1  17
ATOM     17  N   UNL     1      49.090   6.314  14.655  0.00  0.00    +0.000 NA
ATOM     18  H   UNL     1      48.472   5.539  14.892  0.00  0.00    +0.000 HD
BRANCH  17  20
ATOM     19  C   UNL     1      51.046   7.132  15.984  0.00  0.00    +0.000 C 
ATOM     20  C   UNL     1      49.524   6.929  15.918  0.00  0.00    +0.000 C 
BRANCH  20  21
ATOM     21  C   UNL     1      49.016   6.031  17.036  0.00  0.00    +0.000 A 
ATOM     22  C   UNL     1      48.778   4.669  16.923  0.00  0.00    +0.000 A 
ATOM     23  S   UNL     1      48.243   3.947  18.376  0.00  0.00    +0.000 S 
ATOM     24  C   UNL     1      48.275   5.438  19.198  0.00  0.00    +0.000 A 
ATOM     25  N   UNL     1      47.911   5.529  20.505  0.00  0.00    +0.000 NA
ATOM     26  C   UNL     1      47.976   6.724  20.990  0.00  0.00    +0.000 A 
ATOM     27  N   UNL     1      48.371   7.837  20.289  0.00  0.00    +0.000 N 
ATOM     28  C   UNL     1      48.731   7.796  18.959  0.00  0.00    +0.000 A 
ATOM     29  O   UNL     1      49.041   8.813  18.347  0.00  0.00    +0.000 OA
ATOM     30  C   UNL     1      48.691   6.468  18.377  0.00  0.00    +0.000 A 
ATOM     31  H   UNL     1      48.385   8.746  20.726  0.00  0.00    +0.000 HD
ENDBRANCH  20  21
ENDBRANCH  17  20
ENDBRANCH   1  17
TORSDOF 8
ENDMDL
MODEL 5
REMARK VINA RESULT:    -6.955      4.039      8.763
REMARK INTER + INTRA:         -11.188
REMARK INTER:                  -9.481
REMARK INTRA:                  -1.707
REMARK UNBOUND:                -0.980
REMARK  Name = 
REMARK  9 active torsions:
REMARK  status: ('A' for Active; 'I' for Inactive)
REMARK    1  A    between atoms: C_1  and  C_2
REMARK    2  A    between atoms: C_2  and  N_3
REMARK    3  A    between atoms: C_2  and  C_20
REMARK    4  A    between atoms: N_3  and  C_4
REMARK    5  A    between atoms: C_4  and  C_5
REMARK    6  A    between atoms: C_8  and  C_9
REMARK    7  A    between atoms: C_9  and  O_10
REMARK    8  A    between atoms: O_10  and  C_11
REMARK    9  A    between atoms: C_11  and  C_12
REMARK                            x       y       z     vdW  Elec       q    Type
REMARK                         _______ _______ _______ _____ _____    ______ ____
ROOT
ATOM      1  C   UNL     1      47.817   8.669  13.827  0.00  0.00    +0.000 C 
ENDROOT
BRANCH   1   2
ATOM      2  C   UNL     1      48.623   8.311  15.056  0.00  0.00    +0.000 A 
ATOM      3  C   UNL     1      48.293   8.823  16.318  0.00  0.00    +0.000 A 
ATOM      4  C   UNL     1      48.993   8.413  17.457  0.00  0.00    +0.000 A 
ATOM      5  C   UNL     1      50.030   7.475  17.362  0.00  0.00    +0.000 A 
ATOM      6  C   UNL     1      50.365   6.967  16.102  0.00  0.00    +0.000 A 
ATOM      7  C   UNL     1      49.671   7.381  14.962  0.00  0.00    +0.000 A 
BRANCH   5   8
ATOM      8  C   UNL     1      50.770   7.026  18.595  0.00  0.00    +0.000 C 
BRANCH   8   9
ATOM      9  O   UNL     1      49.892   6.249  19.405  0.00  0.00    +0.000 OA
BRANCH   9  10
ATOM     10  C   UNL     1      50.200   4.859  19.327  0.00  0.00    +0.000 C 
BRANCH  10  11
ATOM     11  C   UNL     1      49.258   4.168  18.375  0.00  0.00    +0.000 A 
ATOM     12  C   UNL     1      47.940   4.618  18.238  0.00  0.00    +0.000 A 
ATOM     13  C   UNL     1      47.107   3.980  17.333  0.00  0.00    +0.000 A 
ATOM     14  N   UNL     1      47.491   2.946  16.555  0.00  0.00    +0.000 NA
ATOM     15  C   UNL     1      48.769   2.532  16.692  0.00  0.00    +0.000 A 
ATOM     16  C   UNL     1      49.677   3.106  17.568  0.00  0.00    +0.000 A 
ENDBRANCH  10  11
ENDBRANCH   9  10
ENDBRANCH   8   9
ENDBRANCH   5   8
ENDBRANCH   1   2
BRANCH   1  17
ATOM     17  N   UNL     1      46.608   7.854  13.675  0.00  0.00    +0.000 NA
ATOM     18  H   UNL     1      46.344   7.524  14.603  0.00  0.00    +0.000 HD
BRANCH  17  20
ATOM     19  C   UNL     1      47.890   6.911  11.745  0.00  0.00    +0.000 C 
ATOM     20  C   UNL     1      46.839   6.667  12.839  0.00  0.00    +0.000 C 
BRANCH  20  21
ATOM     21  C   UNL     1      45.489   6.273  12.260  0.00  0.00    +0.000 A 
ATOM     22  C   UNL     1      44.578   7.148  11.685  0.00  0.00    +0.000 A 
ATOM     23  S   UNL     1      43.169   6.380  11.100  0.00  0.00    +0.000 S 
ATOM     24  C   UNL     1      43.709   4.855  11.630  0.00  0.00    +0.000 A 
ATOM     25  N   UNL     1      42.954   3.738  11.449  0.00  0.00    +0.000 NA
ATOM     26  C   UNL     1      43.488   2.658  11.912  0.00  0.00    +0.000 A 
ATOM     27  N   UNL     1      44.708   2.589  12.539  0.00  0.00    +0.000 N 
ATOM     28  C   UNL     1      45.500   3.696  12.760  0.00  0.00    +0.000 A 
ATOM     29  O   UNL     1      46.567   3.611  13.359  0.00  0.00    +0.000 OA
ATOM     30  C   UNL     1      44.946   4.931  12.240  0.00  0.00    +0.000 A 
ATOM     31  H   UNL     1      45.061   1.712  12.890  0.00  0.00    +0.000 HD
ENDBRANCH  20  21
ENDBRANCH  17  20
ENDBRANCH   1  17
TORSDOF 8
ENDMDL
MODEL 6
REMARK VINA RESULT:    -6.850      2.879      9.200
REMARK INTER + INTRA:         -11.034
REMARK INTER:                  -9.880
REMARK INTRA:                  -1.153
REMARK UNBOUND:                -0.980
REMARK  Name = 
REMARK  9 active torsions:
REMARK  status: ('A' for Active; 'I' for Inactive)
REMARK    1  A    between atoms: C_1  and  C_2
REMARK    2  A    between atoms: C_2  and  N_3
REMARK    3  A    between atoms: C_2  and  C_20
REMARK    4  A    between atoms: N_3  and  C_4
REMARK    5  A    between atoms: C_4  and  C_5
REMARK    6  A    between atoms: C_8  and  C_9
REMARK    7  A    between atoms: C_9  and  O_10
REMARK    8  A    between atoms: O_10  and  C_11
REMARK    9  A    between atoms: C_11  and  C_12
REMARK                            x       y       z     vdW  Elec       q    Type
REMARK                         _______ _______ _______ _____ _____    ______ ____
ROOT
ATOM      1  C   UNL     1      47.524   6.647  12.914  0.00  0.00    +0.000 C 
ENDROOT
BRANCH   1   2
ATOM      2  C   UNL     1      47.652   5.930  14.240  0.00  0.00    +0.000 A 
ATOM      3  C   UNL     1      47.024   4.698  14.465  0.00  0.00    +0.000 A 
ATOM      4  C   UNL     1      47.223   4.006  15.664  0.00  0.00    +0.000 A 
ATOM      5  C   UNL     1      48.062   4.524  16.659  0.00  0.00    +0.000 A 
ATOM      6  C   UNL     1      48.686   5.757  16.440  0.00  0.00    +0.000 A 
ATOM      7  C   UNL     1      48.481   6.453  15.245  0.00  0.00    +0.000 A 
BRANCH   5   8
ATOM      8  C   UNL     1      48.285   3.767  17.942  0.00  0.00    +0.000 C 
BRANCH   8   9
ATOM      9  O   UNL     1      49.683   3.555  18.119  0.00  0.00    +0.000 OA
BRANCH   9  10
ATOM     10  C   UNL     1      50.127   2.386  17.435  0.00  0.00    +0.000 C 
BRANCH  10  11
ATOM     11  C   UNL     1      51.611   2.205  17.618  0.00  0.00    +0.000 A 
ATOM     12  C   UNL     1      52.421   3.304  17.924  0.00  0.00    +0.000 A 
ATOM     13  C   UNL     1      53.779   3.100  18.115  0.00  0.00    +0.000 A 
ATOM     14  N   UNL     1      54.378   1.893  18.036  0.00  0.00    +0.000 NA
ATOM     15  C   UNL     1      53.579   0.843  17.751  0.00  0.00    +0.000 A 
ATOM     16  C   UNL     1      52.212   0.945  17.545  0.00  0.00    +0.000 A 
ENDBRANCH  10  11
ENDBRANCH   9  10
ENDBRANCH   8   9
ENDBRANCH   5   8
ENDBRANCH   1   2
BRANCH   1  17
ATOM     17  N   UNL     1      46.353   7.526  12.848  0.00  0.00    +0.000 NA
ATOM     18  H   UNL     1      45.737   7.274  13.620  0.00  0.00    +0.000 HD
BRANCH  17  20
ATOM     19  C   UNL     1      44.671   8.537  11.296  0.00  0.00    +0.000 C 
ATOM     20  C   UNL     1      45.590   7.344  11.604  0.00  0.00    +0.000 C 
BRANCH  20  21
ATOM     21  C   UNL     1      44.813   6.046  11.756  0.00  0.00    +0.000 A 
ATOM     22  C   UNL     1      44.052   5.692  12.861  0.00  0.00    +0.000 A 
ATOM     23  S   UNL     1      43.278   4.178  12.701  0.00  0.00    +0.000 S 
ATOM     24  C   UNL     1      43.964   3.923  11.164  0.00  0.00    +0.000 A 
ATOM     25  N   UNL     1      43.713   2.787  10.460  0.00  0.00    +0.000 NA
ATOM     26  C   UNL     1      44.310   2.730   9.317  0.00  0.00    +0.000 A 
ATOM     27  N   UNL     1      45.135   3.705   8.810  0.00  0.00    +0.000 N 
ATOM     28  C   UNL     1      45.431   4.864   9.494  0.00  0.00    +0.000 A 
ATOM     29  O   UNL     1      46.204   5.699   9.035  0.00  0.00    +0.000 OA
ATOM     30  C   UNL     1      44.767   4.979  10.778  0.00  0.00    +0.000 A 
ATOM     31  H   UNL     1      45.582   3.590   7.914  0.00  0.00    +0.000 HD
ENDBRANCH  20  21
ENDBRANCH  17  20
ENDBRANCH   1  17
TORSDOF 8
ENDMDL
MODEL 7
REMARK VINA RESULT:    -6.694      2.350      2.717
REMARK INTER + INTRA:         -10.804
REMARK INTER:                 -10.676
REMARK INTRA:                  -0.128
REMARK UNBOUND:                -0.980
REMARK  Name = 
REMARK  9 active torsions:
REMARK  status: ('A' for Active; 'I' for Inactive)
REMARK    1  A    between atoms: C_1  and  C_2
REMARK    2  A    between atoms: C_2  and  N_3
REMARK    3  A    between atoms: C_2  and  C_20
REMARK    4  A    between atoms: N_3  and  C_4
REMARK    5  A    between atoms: C_4  and  C_5
REMARK    6  A    between atoms: C_8  and  C_9
REMARK    7  A    between atoms: C_9  and  O_10
REMARK    8  A    between atoms: O_10  and  C_11
REMARK    9  A    between atoms: C_11  and  C_12
REMARK                            x       y       z     vdW  Elec       q    Type
REMARK                         _______ _______ _______ _____ _____    ______ ____
ROOT
ATOM      1  C   UNL     1      47.398   5.389  14.424  0.00  0.00    +0.000 C 
ENDROOT
BRANCH   1   2
ATOM      2  C   UNL     1      46.446   5.201  13.263  0.00  0.00    +0.000 A 
ATOM      3  C   UNL     1      46.508   6.025  12.130  0.00  0.00    +0.000 A 
ATOM      4  C   UNL     1      45.681   5.783  11.029  0.00  0.00    +0.000 A 
ATOM      5  C   UNL     1      44.782   4.708  11.030  0.00  0.00    +0.000 A 
ATOM      6  C   UNL     1      44.714   3.889  12.162  0.00  0.00    +0.000 A 
ATOM      7  C   UNL     1      45.535   4.134  13.266  0.00  0.00    +0.000 A 
BRANCH   5   8
ATOM      8  C   UNL     1      43.904   4.444   9.835  0.00  0.00    +0.000 C 
BRANCH   8   9
ATOM      9  O   UNL     1      43.918   3.048   9.550  0.00  0.00    +0.000 OA
BRANCH   9  10
ATOM     10  C   UNL     1      45.223   2.494   9.702  0.00  0.00    +0.000 C 
BRANCH  10  11
ATOM     11  C   UNL     1      45.925   2.439   8.371  0.00  0.00    +0.000 A 
ATOM     12  C   UNL     1      46.562   1.263   7.958  0.00  0.00    +0.000 A 
ATOM     13  C   UNL     1      47.174   1.236   6.715  0.00  0.00    +0.000 A 
ATOM     14  N   UNL     1      47.188   2.279   5.860  0.00  0.00    +0.000 NA
ATOM     15  C   UNL     1      46.560   3.402   6.269  0.00  0.00    +0.000 A 
ATOM     16  C   UNL     1      45.919   3.526   7.492  0.00  0.00    +0.000 A 
ENDBRANCH  10  11
ENDBRANCH   9  10
ENDBRANCH   8   9
ENDBRANCH   5   8
ENDBRANCH   1   2
BRANCH   1  17
ATOM     17  N   UNL     1      46.908   4.790  15.669  0.00  0.00    +0.000 NA
ATOM     18  H   UNL     1      46.377   5.505  16.165  0.00  0.00    +0.000 HD
BRANCH  17  20
ATOM     19  C   UNL     1      47.815   2.943  17.093  0.00  0.00    +0.000 C 
ATOM     20  C   UNL     1      48.005   4.370  16.554  0.00  0.00    +0.000 C 
BRANCH  20  21
ATOM     21  C   UNL     1      48.083   5.400  17.670  0.00  0.00    +0.000 A 
ATOM     22  C   UNL     1      47.187   5.507  18.725  0.00  0.00    +0.000 A 
ATOM     23  S   UNL     1      47.578   6.751  19.828  0.00  0.00    +0.000 S 
ATOM     24  C   UNL     1      48.937   7.215  18.915  0.00  0.00    +0.000 A 
ATOM     25  N   UNL     1      49.727   8.252  19.304  0.00  0.00    +0.000 NA
ATOM     26  C   UNL     1      50.713   8.494  18.507  0.00  0.00    +0.000 A 
ATOM     27  N   UNL     1      50.984   7.796  17.356  0.00  0.00    +0.000 N 
ATOM     28  C   UNL     1      50.203   6.750  16.913  0.00  0.00    +0.000 A 
ATOM     29  O   UNL     1      50.446   6.171  15.859  0.00  0.00    +0.000 OA
ATOM     30  C   UNL     1      49.092   6.431  17.788  0.00  0.00    +0.000 A 
ATOM     31  H   UNL     1      51.765   8.047  16.770  0.00  0.00    +0.000 HD
ENDBRANCH  20  21
ENDBRANCH  17  20
ENDBRANCH   1  17
TORSDOF 8
ENDMDL
MODEL 8
REMARK VINA RESULT:    -6.465      3.057      3.768
REMARK INTER + INTRA:         -10.468
REMARK INTER:                  -9.473
REMARK INTRA:                  -0.995
REMARK UNBOUND:                -0.980
REMARK  Name = 
REMARK  9 active torsions:
REMARK  status: ('A' for Active; 'I' for Inactive)
REMARK    1  A    between atoms: C_1  and  C_2
REMARK    2  A    between atoms: C_2  and  N_3
REMARK    3  A    between atoms: C_2  and  C_20
REMARK    4  A    between atoms: N_3  and  C_4
REMARK    5  A    between atoms: C_4  and  C_5
REMARK    6  A    between atoms: C_8  and  C_9
REMARK    7  A    between atoms: C_9  and  O_10
REMARK    8  A    between atoms: O_10  and  C_11
REMARK    9  A    between atoms: C_11  and  C_12
REMARK                            x       y       z     vdW  Elec       q    Type
REMARK                         _______ _______ _______ _____ _____    ______ ____
ROOT
ATOM      1  C   UNL     1      47.591   7.400  13.931  0.00  0.00    +0.000 C 
ENDROOT
BRANCH   1   2
ATOM      2  C   UNL     1      46.755   6.464  13.086  0.00  0.00    +0.000 A 
ATOM      3  C   UNL     1      46.206   5.292  13.624  0.00  0.00    +0.000 A 
ATOM      4  C   UNL     1      45.363   4.483  12.855  0.00  0.00    +0.000 A 
ATOM      5  C   UNL     1      45.043   4.832  11.536  0.00  0.00    +0.000 A 
ATOM      6  C   UNL     1      45.595   5.998  10.995  0.00  0.00    +0.000 A 
ATOM      7  C   UNL     1      46.443   6.804  11.761  0.00  0.00    +0.000 A 
BRANCH   5   8
ATOM      8  C   UNL     1      44.123   3.965  10.717  0.00  0.00    +0.000 C 
BRANCH   8   9
ATOM      9  O   UNL     1      44.840   2.816  10.276  0.00  0.00    +0.000 OA
BRANCH   9  10
ATOM     10  C   UNL     1      44.531   2.492   8.922  0.00  0.00    +0.000 C 
BRANCH  10  11
ATOM     11  C   UNL     1      45.797   2.280   8.134  0.00  0.00    +0.000 A 
ATOM     12  C   UNL     1      46.325   0.992   7.983  0.00  0.00    +0.000 A 
ATOM     13  C   UNL     1      47.475   0.827   7.228  0.00  0.00    +0.000 A 
ATOM     14  N   UNL     1      48.122   1.836   6.609  0.00  0.00    +0.000 NA
ATOM     15  C   UNL     1      47.593   3.069   6.756  0.00  0.00    +0.000 A 
ATOM     16  C   UNL     1      46.447   3.336   7.490  0.00  0.00    +0.000 A 
ENDBRANCH  10  11
ENDBRANCH   9  10
ENDBRANCH   8   9
ENDBRANCH   5   8
ENDBRANCH   1   2
BRANCH   1  17
ATOM     17  N   UNL     1      49.009   7.396  13.559  0.00  0.00    +0.000 NA
ATOM     18  H   UNL     1      49.462   6.651  14.086  0.00  0.00    +0.000 HD
BRANCH  17  20
ATOM     19  C   UNL     1      49.473   9.755  12.867  0.00  0.00    +0.000 C 
ATOM     20  C   UNL     1      49.681   8.654  13.918  0.00  0.00    +0.000 C 
BRANCH  20  21
ATOM     21  C   UNL     1      51.151   8.320  14.116  0.00  0.00    +0.000 A 
ATOM     22  C   UNL     1      52.188   8.755  13.303  0.00  0.00    +0.000 A 
ATOM     23  S   UNL     1      53.729   8.230  13.820  0.00  0.00    +0.000 S 
ATOM     24  C   UNL     1      53.061   7.370  15.129  0.00  0.00    +0.000 A 
ATOM     25  N   UNL     1      53.850   6.667  15.986  0.00  0.00    +0.000 NA
ATOM     26  C   UNL     1      53.202   6.058  16.922  0.00  0.00    +0.000 A 
ATOM     27  N   UNL     1      51.839   6.088  17.083  0.00  0.00    +0.000 N 
ATOM     28  C   UNL     1      50.999   6.772  16.231  0.00  0.00    +0.000 A 
ATOM     29  O   UNL     1      49.781   6.746  16.375  0.00  0.00    +0.000 OA
ATOM     30  C   UNL     1      51.686   7.486  15.172  0.00  0.00    +0.000 A 
ATOM     31  H   UNL     1      51.395   5.577  17.830  0.00  0.00    +0.000 HD
ENDBRANCH  20  21
ENDBRANCH  17  20
ENDBRANCH   1  17
TORSDOF 8
ENDMDL
MODEL 9
REMARK VINA RESULT:    -6.441      3.235      8.990
REMARK INTER + INTRA:         -10.433
REMARK INTER:                  -9.004
REMARK INTRA:                  -1.429
REMARK UNBOUND:                -0.980
REMARK  Name = 
REMARK  9 active torsions:
REMARK  status: ('A' for Active; 'I' for Inactive)
REMARK    1  A    between atoms: C_1  and  C_2
REMARK    2  A    between atoms: C_2  and  N_3
REMARK    3  A    between atoms: C_2  and  C_20
REMARK    4  A    between atoms: N_3  and  C_4
REMARK    5  A    between atoms: C_4  and  C_5
REMARK    6  A    between atoms: C_8  and  C_9
REMARK    7  A    between atoms: C_9  and  O_10
REMARK    8  A    between atoms: O_10  and  C_11
REMARK    9  A    between atoms: C_11  and  C_12
REMARK                            x       y       z     vdW  Elec       q    Type
REMARK                         _______ _______ _______ _____ _____    ______ ____
ROOT
ATOM      1  C   UNL     1      47.246   8.433  12.737  0.00  0.00    +0.000 C 
ENDROOT
BRANCH   1   2
ATOM      2  C   UNL     1      48.265   8.280  13.845  0.00  0.00    +0.000 A 
ATOM      3  C   UNL     1      47.946   8.585  15.175  0.00  0.00    +0.000 A 
ATOM      4  C   UNL     1      48.870   8.355  16.200  0.00  0.00    +0.000 A 
ATOM      5  C   UNL     1      50.128   7.805  15.919  0.00  0.00    +0.000 A 
ATOM      6  C   UNL     1      50.451   7.505  14.591  0.00  0.00    +0.000 A 
ATOM      7  C   UNL     1      49.531   7.742  13.566  0.00  0.00    +0.000 A 
BRANCH   5   8
ATOM      8  C   UNL     1      51.113   7.545  17.028  0.00  0.00    +0.000 C 
BRANCH   8   9
ATOM      9  O   UNL     1      51.192   6.141  17.258  0.00  0.00    +0.000 OA
BRANCH   9  10
ATOM     10  C   UNL     1      50.357   5.740  18.342  0.00  0.00    +0.000 C 
BRANCH  10  11
ATOM     11  C   UNL     1      49.315   4.762  17.865  0.00  0.00    +0.000 A 
ATOM     12  C   UNL     1      47.965   5.129  17.837  0.00  0.00    +0.000 A 
ATOM     13  C   UNL     1      47.035   4.216  17.365  0.00  0.00    +0.000 A 
ATOM     14  N   UNL     1      47.350   2.985  16.913  0.00  0.00    +0.000 NA
ATOM     15  C   UNL     1      48.658   2.651  16.937  0.00  0.00    +0.000 A 
ATOM     16  C   UNL     1      49.662   3.494  17.389  0.00  0.00    +0.000 A 
ENDBRANCH  10  11
ENDBRANCH   9  10
ENDBRANCH   8   9
ENDBRANCH   5   8
ENDBRANCH   1   2
BRANCH   1  17
ATOM     17  N   UNL     1      46.946   7.171  12.055  0.00  0.00    +0.000 NA
ATOM     18  H   UNL     1      47.688   7.006  11.376  0.00  0.00    +0.000 HD
BRANCH  17  20
ATOM     19  C   UNL     1      44.830   8.454  11.684  0.00  0.00    +0.000 C 
ATOM     20  C   UNL     1      45.679   7.228  11.311  0.00  0.00    +0.000 C 
BRANCH  20  21
ATOM     21  C   UNL     1      44.952   5.921  11.589  0.00  0.00    +0.000 A 
ATOM     22  C   UNL     1      44.284   5.610  12.764  0.00  0.00    +0.000 A 
ATOM     23  S   UNL     1      43.543   4.071  12.742  0.00  0.00    +0.000 S 
ATOM     24  C   UNL     1      44.121   3.750  11.174  0.00  0.00    +0.000 A 
ATOM     25  N   UNL     1      43.851   2.571  10.551  0.00  0.00    +0.000 NA
ATOM     26  C   UNL     1      44.364   2.467   9.371  0.00  0.00    +0.000 A 
ATOM     27  N   UNL     1      45.121   3.432   8.754  0.00  0.00    +0.000 N 
ATOM     28  C   UNL     1      45.435   4.634   9.352  0.00  0.00    +0.000 A 
ATOM     29  O   UNL     1      46.148   5.461   8.793  0.00  0.00    +0.000 OA
ATOM     30  C   UNL     1      44.864   4.802  10.674  0.00  0.00    +0.000 A 
ATOM     31  H   UNL     1      45.504   3.280   7.834  0.00  0.00    +0.000 HD
ENDBRANCH  20  21
ENDBRANCH  17  20
ENDBRANCH   1  17
TORSDOF 8
ENDMDL
