MODEL 1
REMARK VINA RESULT:    -7.794      0.000      0.000
REMARK INTER + INTRA:         -11.584
REMARK INTER:                 -10.983
REMARK INTRA:                  -0.601
REMARK UNBOUND:                -0.601
REMARK  Name = 
REMARK  9 active torsions:
REMARK  status: ('A' for Active; 'I' for Inactive)
REMARK    1  A    between atoms: C_1  and  O_2
REMARK    2  A    between atoms: O_2  and  C_3
REMARK    3  A    between atoms: C_10  and  C_11
REMARK    4  A    between atoms: N_13  and  C_14
REMARK    5  A    between atoms: C_14  and  C_15
REMARK    6  A    between atoms: C_18  and  O_19
REMARK    7  A    between atoms: O_19  and  C_20
REMARK    8  A    between atoms: C_20  and  C_21
REMARK    9  A    between atoms: C_25  and  C_26
REMARK                            x       y       z     vdW  Elec       q    Type
REMARK                         _______ _______ _______ _____ _____    ______ ____
ROOT
ATOM      1  C   UNL     1      46.515   7.704  12.941  0.00  0.00    +0.000 A 
ATOM      2  C   UNL     1      45.769   8.387  11.973  0.00  0.00    +0.000 A 
ATOM      3  C   UNL     1      44.639   7.807  11.392  0.00  0.00    +0.000 A 
ATOM      4  C   UNL     1      44.222   6.531  11.767  0.00  0.00    +0.000 A 
ATOM      5  C   UNL     1      44.930   5.863  12.777  0.00  0.00    +0.000 A 
ATOM      6  C   UNL     1      46.070   6.438  13.357  0.00  0.00    +0.000 A 
ENDROOT
BRANCH   1   7
ATOM      7  C   UNL     1      47.755   8.351  13.505  0.00  0.00    +0.000 C 
BRANCH   7  10
ATOM      8  C   UNL     1      48.888   7.378  15.479  0.00  0.00    +0.000 C 
ATOM      9  O   UNL     1      49.732   6.805  14.787  0.00  0.00    +0.000 OA
ATOM     10  N   UNL     1      47.890   8.125  14.924  0.00  0.00    +0.000 N 
ATOM     11  H   UNL     1      47.211   8.573  15.520  0.00  0.00    +0.000 HD
BRANCH   8  19
ATOM     12  C   UNL     1      48.714   4.724  17.669  0.00  0.00    +0.000 A 
ATOM     13  N   UNL     1      48.667   3.889  18.726  0.00  0.00    +0.000 NA
ATOM     14  C   UNL     1      48.731   4.422  19.950  0.00  0.00    +0.000 A 
ATOM     15  N   UNL     1      48.838   5.711  20.257  0.00  0.00    +0.000 NA
ATOM     16  C   UNL     1      48.889   6.508  19.175  0.00  0.00    +0.000 A 
ATOM     17  S   UNL     1      49.030   8.187  19.377  0.00  0.00    +0.000 S 
ATOM     18  C   UNL     1      49.024   8.440  17.699  0.00  0.00    +0.000 A 
ATOM     19  C   UNL     1      48.914   7.273  16.951  0.00  0.00    +0.000 A 
ATOM     20  C   UNL     1      48.837   6.114  17.841  0.00  0.00    +0.000 A 
BRANCH  12  22
ATOM     21  C   UNL     1      47.370   3.990  15.898  0.00  0.00    +0.000 C 
ATOM     22  O   UNL     1      48.691   4.170  16.405  0.00  0.00    +0.000 OA
ENDBRANCH  12  22
ENDBRANCH   8  19
ENDBRANCH   7  10
ENDBRANCH   1   7
BRANCH   4  23
ATOM     23  O   UNL     1      43.140   5.877  11.230  0.00  0.00    +0.000 OA
BRANCH  23  24
ATOM     24  C   UNL     1      43.449   4.858  10.263  0.00  0.00    +0.000 C 
BRANCH  24  25
ATOM     25  C   UNL     1      44.926   4.426  10.389  0.00  0.00    +0.000 C 
ATOM     26  C   UNL     1      45.748   4.781   9.144  0.00  0.00    +0.000 C 
ATOM     27  C   UNL     1      45.340   3.906   7.970  0.00  0.00    +0.000 C 
ATOM     28  N   UNL     1      45.633   2.514   8.293  0.00  0.00    +0.000 N 
ATOM     29  C   UNL     1      46.495   1.681   7.598  0.00  0.00    +0.000 C 
ATOM     30  C   UNL     1      47.259   2.211   6.405  0.00  0.00    +0.000 C 
ATOM     31  O   UNL     1      46.676   0.506   7.930  0.00  0.00    +0.000 OA
ATOM     32  C   UNL     1      44.920   2.000   9.467  0.00  0.00    +0.000 C 
ATOM     33  C   UNL     1      45.075   2.916  10.691  0.00  0.00    +0.000 C 
ENDBRANCH  24  25
ENDBRANCH  23  24
ENDBRANCH   4  23
TORSDOF 7
ENDMDL
MODEL 2
REMARK VINA RESULT:    -7.368      1.418      1.784
REMARK INTER + INTRA:         -10.984
REMARK INTER:                  -9.538
REMARK INTRA:                  -1.446
REMARK UNBOUND:                -0.601
REMARK  Name = 
REMARK  9 active torsions:
REMARK  status: ('A' for Active; 'I' for Inactive)
REMARK    1  A    between atoms: C_1  and  O_2
REMARK    2  A    between atoms: O_2  and  C_3
REMARK    3  A    between atoms: C_10  and  C_11
REMARK    4  A    between atoms: N_13  and  C_14
REMARK    5  A    between atoms: C_14  and  C_15
REMARK    6  A    between atoms: C_18  and  O_19
REMARK    7  A    between atoms: O_19  and  C_20
REMARK    8  A    between atoms: C_20  and  C_21
REMARK    9  A    between atoms: C_25  and  C_26
REMARK                            x       y       z     vdW  Elec       q    Type
REMARK                         _______ _______ _______ _____ _____    ______ ____
ROOT
ATOM      1  C   UNL     1      47.215   6.875  13.248  0.00  0.00    +0.000 A 
ATOM      2  C   UNL     1      45.968   7.398  12.886  0.00  0.00    +0.000 A 
ATOM      3  C   UNL     1      44.914   6.558  12.519  0.00  0.00    +0.000 A 
ATOM      4  C   UNL     1      45.078   5.174  12.509  0.00  0.00    +0.000 A 
ATOM      5  C   UNL     1      46.306   4.640  12.926  0.00  0.00    +0.000 A 
ATOM      6  C   UNL     1      47.369   5.479  13.288  0.00  0.00    +0.000 A 
ENDROOT
BRANCH   1   7
ATOM      7  C   UNL     1      48.338   7.823  13.591  0.00  0.00    +0.000 C 
BRANCH   7  10
ATOM      8  C   UNL     1      48.643   8.351  15.990  0.00  0.00    +0.000 C 
ATOM      9  O   UNL     1      47.956   9.371  15.914  0.00  0.00    +0.000 OA
ATOM     10  N   UNL     1      48.887   7.566  14.900  0.00  0.00    +0.000 N 
ATOM     11  H   UNL     1      49.460   6.743  14.997  0.00  0.00    +0.000 HD
BRANCH   8  19
ATOM     12  C   UNL     1      48.568   5.422  17.804  0.00  0.00    +0.000 A 
ATOM     13  N   UNL     1      48.704   4.421  18.696  0.00  0.00    +0.000 NA
ATOM     14  C   UNL     1      49.438   4.651  19.789  0.00  0.00    +0.000 A 
ATOM     15  N   UNL     1      50.065   5.779  20.110  0.00  0.00    +0.000 NA
ATOM     16  C   UNL     1      49.909   6.748  19.190  0.00  0.00    +0.000 A 
ATOM     17  S   UNL     1      50.646   8.258  19.432  0.00  0.00    +0.000 S 
ATOM     18  C   UNL     1      50.020   8.853  17.971  0.00  0.00    +0.000 A 
ATOM     19  C   UNL     1      49.245   7.934  17.271  0.00  0.00    +0.000 A 
ATOM     20  C   UNL     1      49.184   6.670  18.006  0.00  0.00    +0.000 A 
BRANCH  12  22
ATOM     21  C   UNL     1      47.478   3.801  16.514  0.00  0.00    +0.000 C 
ATOM     22  O   UNL     1      47.845   5.171  16.654  0.00  0.00    +0.000 OA
ENDBRANCH  12  22
ENDBRANCH   8  19
ENDBRANCH   7  10
ENDBRANCH   1   7
BRANCH   4  23
ATOM     23  O   UNL     1      44.104   4.278  12.138  0.00  0.00    +0.000 OA
BRANCH  23  24
ATOM     24  C   UNL     1      44.572   3.107  11.446  0.00  0.00    +0.000 C 
BRANCH  24  25
ATOM     25  C   UNL     1      43.984   3.054  10.020  0.00  0.00    +0.000 C 
ATOM     26  C   UNL     1      44.483   1.839   9.226  0.00  0.00    +0.000 C 
ATOM     27  C   UNL     1      45.954   2.001   8.876  0.00  0.00    +0.000 C 
ATOM     28  N   UNL     1      46.109   3.167   8.014  0.00  0.00    +0.000 N 
ATOM     29  C   UNL     1      46.614   3.165   6.724  0.00  0.00    +0.000 C 
ATOM     30  C   UNL     1      47.027   1.862   6.077  0.00  0.00    +0.000 C 
ATOM     31  O   UNL     1      46.726   4.203   6.065  0.00  0.00    +0.000 OA
ATOM     32  C   UNL     1      45.682   4.432   8.622  0.00  0.00    +0.000 C 
ATOM     33  C   UNL     1      44.266   4.345   9.216  0.00  0.00    +0.000 C 
ENDBRANCH  24  25
ENDBRANCH  23  24
ENDBRANCH   4  23
TORSDOF 7
ENDMDL
MODEL 3
REMARK VINA RESULT:    -7.365      1.901      2.510
REMARK INTER + INTRA:         -10.981
REMARK INTER:                  -9.513
REMARK INTRA:                  -1.467
REMARK UNBOUND:                -0.601
REMARK  Name = 
REMARK  9 active torsions:
REMARK  status: ('A' for Active; 'I' for Inactive)
REMARK    1  A    between atoms: C_1  and  O_2
REMARK    2  A    between atoms: O_2  and  C_3
REMARK    3  A    between atoms: C_10  and  C_11
REMARK    4  A    between atoms: N_13  and  C_14
REMARK    5  A    between atoms: C_14  and  C_15
REMARK    6  A    between atoms: C_18  and  O_19
REMARK    7  A    between atoms: O_19  and  C_20
REMARK    8  A    between atoms: C_20  and  C_21
REMARK    9  A    between atoms: C_25  and  C_26
REMARK                            x       y       z     vdW  Elec       q    Type
REMARK                         _______ _______ _______ _____ _____    ______ ____
ROOT
ATOM      1  C   UNL     1      48.173   7.275  12.889  0.00  0.00    +0.000 A 
ATOM      2  C   UNL     1      47.814   5.927  13.004  0.00  0.00    +0.000 A 
ATOM      3  C   UNL     1      46.473   5.538  13.033  0.00  0.00    +0.000 A 
ATOM      4  C   UNL     1      45.456   6.486  12.942  0.00  0.00    +0.000 A 
ATOM      5  C   UNL     1      45.806   7.832  12.769  0.00  0.00    +0.000 A 
ATOM      6  C   UNL     1      47.151   8.229  12.747  0.00  0.00    +0.000 A 
ENDROOT
BRANCH   1   7
ATOM      7  C   UNL     1      49.633   7.652  12.910  0.00  0.00    +0.000 C 
BRANCH   7  10
ATOM      8  C   UNL     1      50.175   8.283  15.241  0.00  0.00    +0.000 C 
ATOM      9  O   UNL     1      49.615   9.376  15.139  0.00  0.00    +0.000 OA
ATOM     10  N   UNL     1      50.240   7.408  14.196  0.00  0.00    +0.000 N 
ATOM     11  H   UNL     1      50.714   6.526  14.312  0.00  0.00    +0.000 HD
BRANCH   8  19
ATOM     12  C   UNL     1      49.888   5.494  17.245  0.00  0.00    +0.000 A 
ATOM     13  N   UNL     1      49.970   4.538  18.191  0.00  0.00    +0.000 NA
ATOM     14  C   UNL     1      50.800   4.741  19.218  0.00  0.00    +0.000 A 
ATOM     15  N   UNL     1      51.575   5.802  19.424  0.00  0.00    +0.000 NA
ATOM     16  C   UNL     1      51.469   6.728  18.454  0.00  0.00    +0.000 A 
ATOM     17  S   UNL     1      52.390   8.149  18.550  0.00  0.00    +0.000 S 
ATOM     18  C   UNL     1      51.737   8.729  17.094  0.00  0.00    +0.000 A 
ATOM     19  C   UNL     1      50.813   7.872  16.507  0.00  0.00    +0.000 A 
ATOM     20  C   UNL     1      50.658   6.669  17.325  0.00  0.00    +0.000 A 
BRANCH  12  22
ATOM     21  C   UNL     1      47.849   4.607  16.515  0.00  0.00    +0.000 C 
ATOM     22  O   UNL     1      49.063   5.266  16.162  0.00  0.00    +0.000 OA
ENDBRANCH  12  22
ENDBRANCH   8  19
ENDBRANCH   7  10
ENDBRANCH   1   7
BRANCH   4  23
ATOM     23  O   UNL     1      44.114   6.193  12.988  0.00  0.00    +0.000 OA
BRANCH  23  24
ATOM     24  C   UNL     1      43.789   4.801  13.146  0.00  0.00    +0.000 C 
BRANCH  24  25
ATOM     25  C   UNL     1      43.078   4.267  11.885  0.00  0.00    +0.000 C 
ATOM     26  C   UNL     1      43.504   2.836  11.534  0.00  0.00    +0.000 C 
ATOM     27  C   UNL     1      44.938   2.817  11.029  0.00  0.00    +0.000 C 
ATOM     28  N   UNL     1      45.017   3.600   9.801  0.00  0.00    +0.000 N 
ATOM     29  C   UNL     1      45.406   3.127   8.558  0.00  0.00    +0.000 C 
ATOM     30  C   UNL     1      45.760   1.667   8.382  0.00  0.00    +0.000 C 
ATOM     31  O   UNL     1      45.459   3.863   7.567  0.00  0.00    +0.000 OA
ATOM     32  C   UNL     1      44.645   5.010   9.955  0.00  0.00    +0.000 C 
ATOM     33  C   UNL     1      43.288   5.182  10.657  0.00  0.00    +0.000 C 
ENDBRANCH  24  25
ENDBRANCH  23  24
ENDBRANCH   4  23
TORSDOF 7
ENDMDL
MODEL 4
REMARK VINA RESULT:    -7.181      1.396      2.324
REMARK INTER + INTRA:         -10.721
REMARK INTER:                  -9.692
REMARK INTRA:                  -1.028
REMARK UNBOUND:                -0.601
REMARK  Name = 
REMARK  9 active torsions:
REMARK  status: ('A' for Active; 'I' for Inactive)
REMARK    1  A    between atoms: C_1  and  O_2
REMARK    2  A    between atoms: O_2  and  C_3
REMARK    3  A    between atoms: C_10  and  C_11
REMARK    4  A    between atoms: N_13  and  C_14
REMARK    5  A    between atoms: C_14  and  C_15
REMARK    6  A    between atoms: C_18  and  O_19
REMARK    7  A    between atoms: O_19  and  C_20
REMARK    8  A    between atoms: C_20  and  C_21
REMARK    9  A    between atoms: C_25  and  C_26
REMARK                            x       y       z     vdW  Elec       q    Type
REMARK                         _______ _______ _______ _____ _____    ______ ____
ROOT
ATOM      1  C   UNL     1      46.217   7.469  12.906  0.00  0.00    +0.000 A 
ATOM      2  C   UNL     1      45.460   8.061  11.888  0.00  0.00    +0.000 A 
ATOM      3  C   UNL     1      44.473   7.341  11.212  0.00  0.00    +0.000 A 
ATOM      4  C   UNL     1      44.213   6.011  11.540  0.00  0.00    +0.000 A 
ATOM      5  C   UNL     1      44.927   5.428  12.597  0.00  0.00    +0.000 A 
ATOM      6  C   UNL     1      45.924   6.145  13.273  0.00  0.00    +0.000 A 
ENDROOT
BRANCH   1   7
ATOM      7  C   UNL     1      47.305   8.272  13.575  0.00  0.00    +0.000 C 
BRANCH   7  10
ATOM      8  C   UNL     1      48.725   6.998  15.151  0.00  0.00    +0.000 C 
ATOM      9  O   UNL     1      49.504   6.650  14.262  0.00  0.00    +0.000 OA
ATOM     10  N   UNL     1      47.628   7.765  14.886  0.00  0.00    +0.000 N 
ATOM     11  H   UNL     1      47.008   8.024  15.637  0.00  0.00    +0.000 HD
BRANCH   8  19
ATOM     12  C   UNL     1      48.988   8.735  18.115  0.00  0.00    +0.000 A 
ATOM     13  N   UNL     1      49.126   9.155  19.388  0.00  0.00    +0.000 NA
ATOM     14  C   UNL     1      49.330   8.233  20.334  0.00  0.00    +0.000 A 
ATOM     15  N   UNL     1      49.415   6.917  20.164  0.00  0.00    +0.000 NA
ATOM     16  C   UNL     1      49.265   6.541  18.882  0.00  0.00    +0.000 A 
ATOM     17  S   UNL     1      49.340   4.894  18.478  0.00  0.00    +0.000 S 
ATOM     18  C   UNL     1      49.086   5.234  16.835  0.00  0.00    +0.000 A 
ATOM     19  C   UNL     1      48.941   6.588  16.553  0.00  0.00    +0.000 A 
ATOM     20  C   UNL     1      49.045   7.369  17.786  0.00  0.00    +0.000 A 
BRANCH  12  22
ATOM     21  C   UNL     1      49.921  10.278  16.622  0.00  0.00    +0.000 C 
ATOM     22  O   UNL     1      48.735   9.684  17.144  0.00  0.00    +0.000 OA
ENDBRANCH  12  22
ENDBRANCH   8  19
ENDBRANCH   7  10
ENDBRANCH   1   7
BRANCH   4  23
ATOM     23  O   UNL     1      43.280   5.223  10.911  0.00  0.00    +0.000 OA
BRANCH  23  24
ATOM     24  C   UNL     1      43.732   4.561   9.716  0.00  0.00    +0.000 C 
BRANCH  24  25
ATOM     25  C   UNL     1      45.228   4.200   9.835  0.00  0.00    +0.000 C 
ATOM     26  C   UNL     1      46.039   4.658   8.616  0.00  0.00    +0.000 C 
ATOM     27  C   UNL     1      45.683   3.821   7.396  0.00  0.00    +0.000 C 
ATOM     28  N   UNL     1      46.046   2.432   7.653  0.00  0.00    +0.000 N 
ATOM     29  C   UNL     1      46.954   1.679   6.926  0.00  0.00    +0.000 C 
ATOM     30  C   UNL     1      47.698   2.306   5.768  0.00  0.00    +0.000 C 
ATOM     31  O   UNL     1      47.194   0.500   7.203  0.00  0.00    +0.000 OA
ATOM     32  C   UNL     1      45.353   1.825   8.795  0.00  0.00    +0.000 C 
ATOM     33  C   UNL     1      45.453   2.687  10.064  0.00  0.00    +0.000 C 
ENDBRANCH  24  25
ENDBRANCH  23  24
ENDBRANCH   4  23
TORSDOF 7
ENDMDL
MODEL 5
REMARK VINA RESULT:    -7.114      3.898      9.686
REMARK INTER + INTRA:         -10.625
REMARK INTER:                  -9.312
REMARK INTRA:                  -1.314
REMARK UNBOUND:                -0.601
REMARK  Name = 
REMARK  9 active torsions:
REMARK  status: ('A' for Active; 'I' for Inactive)
REMARK    1  A    between atoms: C_1  and  O_2
REMARK    2  A    between atoms: O_2  and  C_3
REMARK    3  A    between atoms: C_10  and  C_11
REMARK    4  A    between atoms: N_13  and  C_14
REMARK    5  A    between atoms: C_14  and  C_15
REMARK    6  A    between atoms: C_18  and  O_19
REMARK    7  A    between atoms: O_19  and  C_20
REMARK    8  A    between atoms: C_20  and  C_21
REMARK    9  A    between atoms: C_25  and  C_26
REMARK                            x       y       z     vdW  Elec       q    Type
REMARK                         _______ _______ _______ _____ _____    ______ ____
ROOT
ATOM      1  C   UNL     1      48.664   3.323  17.193  0.00  0.00    +0.000 A 
ATOM      2  C   UNL     1      49.339   2.143  16.862  0.00  0.00    +0.000 A 
ATOM      3  C   UNL     1      50.708   2.003  17.104  0.00  0.00    +0.000 A 
ATOM      4  C   UNL     1      51.436   3.039  17.687  0.00  0.00    +0.000 A 
ATOM      5  C   UNL     1      50.757   4.202  18.074  0.00  0.00    +0.000 A 
ATOM      6  C   UNL     1      49.384   4.350  17.826  0.00  0.00    +0.000 A 
ENDROOT
BRANCH   1   7
ATOM      7  C   UNL     1      47.196   3.446  16.869  0.00  0.00    +0.000 C 
BRANCH   7  10
ATOM      8  C   UNL     1      46.975   4.251  14.539  0.00  0.00    +0.000 C 
ATOM      9  O   UNL     1      47.274   3.152  14.068  0.00  0.00    +0.000 OA
ATOM     10  N   UNL     1      46.939   4.470  15.886  0.00  0.00    +0.000 N 
ATOM     11  H   UNL     1      46.698   5.384  16.236  0.00  0.00    +0.000 HD
BRANCH   8  19
ATOM     12  C   UNL     1      44.193   5.103  12.694  0.00  0.00    +0.000 A 
ATOM     13  N   UNL     1      43.261   5.664  11.899  0.00  0.00    +0.000 NA
ATOM     14  C   UNL     1      43.564   6.817  11.293  0.00  0.00    +0.000 A 
ATOM     15  N   UNL     1      44.706   7.493  11.384  0.00  0.00    +0.000 NA
ATOM     16  C   UNL     1      45.604   6.902  12.192  0.00  0.00    +0.000 A 
ATOM     17  S   UNL     1      47.119   7.628  12.431  0.00  0.00    +0.000 S 
ATOM     18  C   UNL     1      47.609   6.379  13.471  0.00  0.00    +0.000 A 
ATOM     19  C   UNL     1      46.650   5.391  13.660  0.00  0.00    +0.000 A 
ATOM     20  C   UNL     1      45.445   5.711  12.894  0.00  0.00    +0.000 A 
BRANCH  12  22
ATOM     21  C   UNL     1      43.636   2.841  12.468  0.00  0.00    +0.000 C 
ATOM     22  O   UNL     1      43.864   3.935  13.352  0.00  0.00    +0.000 OA
ENDBRANCH  12  22
ENDBRANCH   8  19
ENDBRANCH   7  10
ENDBRANCH   1   7
BRANCH   4  23
ATOM     23  O   UNL     1      52.787   2.995  17.936  0.00  0.00    +0.000 OA
BRANCH  23  24
ATOM     24  C   UNL     1      53.250   3.854  18.993  0.00  0.00    +0.000 C 
BRANCH  24  25
ATOM     25  C   UNL     1      54.494   4.645  18.538  0.00  0.00    +0.000 C 
ATOM     26  C   UNL     1      54.664   5.962  19.306  0.00  0.00    +0.000 C 
ATOM     27  C   UNL     1      53.585   6.956  18.902  0.00  0.00    +0.000 C 
ATOM     28  N   UNL     1      53.734   7.265  17.484  0.00  0.00    +0.000 N 
ATOM     29  C   UNL     1      53.982   8.517  16.945  0.00  0.00    +0.000 C 
ATOM     30  C   UNL     1      54.159   9.710  17.859  0.00  0.00    +0.000 C 
ATOM     31  O   UNL     1      54.080   8.697  15.728  0.00  0.00    +0.000 OA
ATOM     32  C   UNL     1      53.595   6.109  16.592  0.00  0.00    +0.000 C 
ATOM     33  C   UNL     1      54.488   4.933  17.018  0.00  0.00    +0.000 C 
ENDBRANCH  24  25
ENDBRANCH  23  24
ENDBRANCH   4  23
TORSDOF 7
ENDMDL
MODEL 6
REMARK VINA RESULT:    -6.911      3.442      8.243
REMARK INTER + INTRA:         -10.341
REMARK INTER:                  -8.850
REMARK INTRA:                  -1.491
REMARK UNBOUND:                -0.601
REMARK  Name = 
REMARK  9 active torsions:
REMARK  status: ('A' for Active; 'I' for Inactive)
REMARK    1  A    between atoms: C_1  and  O_2
REMARK    2  A    between atoms: O_2  and  C_3
REMARK    3  A    between atoms: C_10  and  C_11
REMARK    4  A    between atoms: N_13  and  C_14
REMARK    5  A    between atoms: C_14  and  C_15
REMARK    6  A    between atoms: C_18  and  O_19
REMARK    7  A    between atoms: O_19  and  C_20
REMARK    8  A    between atoms: C_20  and  C_21
REMARK    9  A    between atoms: C_25  and  C_26
REMARK                            x       y       z     vdW  Elec       q    Type
REMARK                         _______ _______ _______ _____ _____    ______ ____
ROOT
ATOM      1  C   UNL     1      48.433   8.872  15.610  0.00  0.00    +0.000 A 
ATOM      2  C   UNL     1      47.878   9.459  16.753  0.00  0.00    +0.000 A 
ATOM      3  C   UNL     1      48.203   8.995  18.030  0.00  0.00    +0.000 A 
ATOM      4  C   UNL     1      49.094   7.937  18.197  0.00  0.00    +0.000 A 
ATOM      5  C   UNL     1      49.698   7.381  17.060  0.00  0.00    +0.000 A 
ATOM      6  C   UNL     1      49.369   7.838  15.776  0.00  0.00    +0.000 A 
ENDROOT
BRANCH   1   7
ATOM      7  C   UNL     1      48.016   9.375  14.250  0.00  0.00    +0.000 C 
BRANCH   7  10
ATOM      8  C   UNL     1      47.050   7.614  12.804  0.00  0.00    +0.000 C 
ATOM      9  O   UNL     1      48.152   7.295  12.354  0.00  0.00    +0.000 OA
ATOM     10  N   UNL     1      46.908   8.626  13.708  0.00  0.00    +0.000 N 
ATOM     11  H   UNL     1      45.990   8.866  14.048  0.00  0.00    +0.000 HD
BRANCH   8  19
ATOM     12  C   UNL     1      46.003   4.336  12.978  0.00  0.00    +0.000 A 
ATOM     13  N   UNL     1      45.359   3.153  12.915  0.00  0.00    +0.000 NA
ATOM     14  C   UNL     1      44.150   3.127  12.346  0.00  0.00    +0.000 A 
ATOM     15  N   UNL     1      43.490   4.154  11.820  0.00  0.00    +0.000 NA
ATOM     16  C   UNL     1      44.164   5.315  11.909  0.00  0.00    +0.000 A 
ATOM     17  S   UNL     1      43.470   6.735  11.293  0.00  0.00    +0.000 S 
ATOM     18  C   UNL     1      44.823   7.653  11.750  0.00  0.00    +0.000 A 
ATOM     19  C   UNL     1      45.824   6.915  12.373  0.00  0.00    +0.000 A 
ATOM     20  C   UNL     1      45.422   5.512  12.470  0.00  0.00    +0.000 A 
BRANCH  12  22
ATOM     21  C   UNL     1      47.137   4.584  15.010  0.00  0.00    +0.000 C 
ATOM     22  O   UNL     1      47.233   4.371  13.604  0.00  0.00    +0.000 OA
ENDBRANCH  12  22
ENDBRANCH   8  19
ENDBRANCH   7  10
ENDBRANCH   1   7
BRANCH   4  23
ATOM     23  O   UNL     1      49.448   7.403  19.413  0.00  0.00    +0.000 OA
BRANCH  23  24
ATOM     24  C   UNL     1      50.693   6.683  19.434  0.00  0.00    +0.000 C 
BRANCH  24  25
ATOM     25  C   UNL     1      50.478   5.250  19.965  0.00  0.00    +0.000 C 
ATOM     26  C   UNL     1      51.756   4.405  19.905  0.00  0.00    +0.000 C 
ATOM     27  C   UNL     1      52.110   4.078  18.463  0.00  0.00    +0.000 C 
ATOM     28  N   UNL     1      51.040   3.274  17.884  0.00  0.00    +0.000 N 
ATOM     29  C   UNL     1      51.167   1.990  17.379  0.00  0.00    +0.000 C 
ATOM     30  C   UNL     1      52.505   1.287  17.434  0.00  0.00    +0.000 C 
ATOM     31  O   UNL     1      50.209   1.382  16.891  0.00  0.00    +0.000 OA
ATOM     32  C   UNL     1      49.731   3.936  17.855  0.00  0.00    +0.000 C 
ATOM     33  C   UNL     1      49.338   4.511  19.225  0.00  0.00    +0.000 C 
ENDBRANCH  24  25
ENDBRANCH  23  24
ENDBRANCH   4  23
TORSDOF 7
ENDMDL
MODEL 7
REMARK VINA RESULT:    -6.889      2.271      3.134
REMARK INTER + INTRA:         -10.309
REMARK INTER:                  -9.121
REMARK INTRA:                  -1.188
REMARK UNBOUND:                -0.601
REMARK  Name = 
REMARK  9 active torsions:
REMARK  status: ('A' for Active; 'I' for Inactive)
REMARK    1  A    between atoms: C_1  and  O_2
REMARK    2  A    between atoms: O_2  and  C_3
REMARK    3  A    between atoms: C_10  and  C_11
REMARK    4  A    between atoms: N_13  and  C_14
REMARK    5  A    between atoms: C_14  and  C_15
REMARK    6  A    between atoms: C_18  and  O_19
REMARK    7  A    between atoms: O_19  and  C_20
REMARK    8  A    between atoms: C_20  and  C_21
REMARK    9  A    between atoms: C_25  and  C_26
REMARK                            x       y       z     vdW  Elec       q    Type
REMARK                         _______ _______ _______ _____ _____    ______ ____
ROOT
ATOM      1  C   UNL     1      49.063   8.405  13.480  0.00  0.00    +0.000 A 
ATOM      2  C   UNL     1      48.973   8.540  12.090  0.00  0.00    +0.000 A 
ATOM      3  C   UNL     1      47.751   8.812  11.469  0.00  0.00    +0.000 A 
ATOM      4  C   UNL     1      46.589   8.962  12.224  0.00  0.00    +0.000 A 
ATOM      5  C   UNL     1      46.680   8.885  13.621  0.00  0.00    +0.000 A 
ATOM      6  C   UNL     1      47.903   8.604  14.247  0.00  0.00    +0.000 A 
ENDROOT
BRANCH   1   7
ATOM      7  C   UNL     1      50.394   8.063  14.101  0.00  0.00    +0.000 C 
BRANCH   7  10
ATOM      8  C   UNL     1      50.241   7.306  16.452  0.00  0.00    +0.000 C 
ATOM      9  O   UNL     1      50.347   8.452  16.891  0.00  0.00    +0.000 OA
ATOM     10  N   UNL     1      50.277   7.042  15.113  0.00  0.00    +0.000 N 
ATOM     11  H   UNL     1      50.196   6.091  14.790  0.00  0.00    +0.000 HD
BRANCH   8  19
ATOM     12  C   UNL     1      48.135   4.579  16.474  0.00  0.00    +0.000 A 
ATOM     13  N   UNL     1      47.451   3.444  16.723  0.00  0.00    +0.000 NA
ATOM     14  C   UNL     1      47.771   2.746  17.816  0.00  0.00    +0.000 A 
ATOM     15  N   UNL     1      48.709   3.044  18.711  0.00  0.00    +0.000 NA
ATOM     16  C   UNL     1      49.371   4.178  18.421  0.00  0.00    +0.000 A 
ATOM     17  S   UNL     1      50.608   4.712  19.453  0.00  0.00    +0.000 S 
ATOM     18  C   UNL     1      50.901   6.071  18.480  0.00  0.00    +0.000 A 
ATOM     19  C   UNL     1      50.078   6.156  17.362  0.00  0.00    +0.000 A 
ATOM     20  C   UNL     1      49.163   5.014  17.329  0.00  0.00    +0.000 A 
BRANCH  12  22
ATOM     21  C   UNL     1      46.953   4.568  14.453  0.00  0.00    +0.000 C 
ATOM     22  O   UNL     1      47.833   5.277  15.322  0.00  0.00    +0.000 OA
ENDBRANCH  12  22
ENDBRANCH   8  19
ENDBRANCH   7  10
ENDBRANCH   1   7
BRANCH   4  23
ATOM     23  O   UNL     1      45.344   9.205  11.694  0.00  0.00    +0.000 OA
BRANCH  23  24
ATOM     24  C   UNL     1      44.596   8.038  11.309  0.00  0.00    +0.000 C 
BRANCH  24  25
ATOM     25  C   UNL     1      45.193   6.775  11.966  0.00  0.00    +0.000 C 
ATOM     26  C   UNL     1      45.852   5.840  10.944  0.00  0.00    +0.000 C 
ATOM     27  C   UNL     1      44.796   5.182  10.068  0.00  0.00    +0.000 C 
ATOM     28  N   UNL     1      43.933   4.358  10.906  0.00  0.00    +0.000 N 
ATOM     29  C   UNL     1      43.751   2.989  10.790  0.00  0.00    +0.000 C 
ATOM     30  C   UNL     1      44.515   2.212   9.741  0.00  0.00    +0.000 C 
ATOM     31  O   UNL     1      42.987   2.367  11.534  0.00  0.00    +0.000 OA
ATOM     32  C   UNL     1      43.212   5.098  11.947  0.00  0.00    +0.000 C 
ATOM     33  C   UNL     1      44.146   5.985  12.786  0.00  0.00    +0.000 C 
ENDBRANCH  24  25
ENDBRANCH  23  24
ENDBRANCH   4  23
TORSDOF 7
ENDMDL
MODEL 8
REMARK VINA RESULT:    -6.845      2.956      3.892
REMARK INTER + INTRA:         -10.248
REMARK INTER:                  -9.895
REMARK INTRA:                  -0.353
REMARK UNBOUND:                -0.601
REMARK  Name = 
REMARK  9 active torsions:
REMARK  status: ('A' for Active; 'I' for Inactive)
REMARK    1  A    between atoms: C_1  and  O_2
REMARK    2  A    between atoms: O_2  and  C_3
REMARK    3  A    between atoms: C_10  and  C_11
REMARK    4  A    between atoms: N_13  and  C_14
REMARK    5  A    between atoms: C_14  and  C_15
REMARK    6  A    between atoms: C_18  and  O_19
REMARK    7  A    between atoms: O_19  and  C_20
REMARK    8  A    between atoms: C_20  and  C_21
REMARK    9  A    between atoms: C_25  and  C_26
REMARK                            x       y       z     vdW  Elec       q    Type
REMARK                         _______ _______ _______ _____ _____    ______ ____
ROOT
ATOM      1  C   UNL     1      49.121   6.824  14.901  0.00  0.00    +0.000 A 
ATOM      2  C   UNL     1      48.274   5.857  15.452  0.00  0.00    +0.000 A 
ATOM      3  C   UNL     1      47.216   5.320  14.714  0.00  0.00    +0.000 A 
ATOM      4  C   UNL     1      46.981   5.734  13.404  0.00  0.00    +0.000 A 
ATOM      5  C   UNL     1      47.861   6.660  12.825  0.00  0.00    +0.000 A 
ATOM      6  C   UNL     1      48.919   7.207  13.564  0.00  0.00    +0.000 A 
ENDROOT
BRANCH   1   7
ATOM      7  C   UNL     1      50.221   7.409  15.751  0.00  0.00    +0.000 C 
BRANCH   7  10
ATOM      8  C   UNL     1      50.953   5.876  17.552  0.00  0.00    +0.000 C 
ATOM      9  O   UNL     1      50.089   6.282  18.331  0.00  0.00    +0.000 OA
ATOM     10  N   UNL     1      51.088   6.393  16.295  0.00  0.00    +0.000 N 
ATOM     11  H   UNL     1      51.812   6.043  15.688  0.00  0.00    +0.000 HD
BRANCH   8  19
ATOM     12  C   UNL     1      50.896   2.441  17.294  0.00  0.00    +0.000 A 
ATOM     13  N   UNL     1      51.128   1.114  17.321  0.00  0.00    +0.000 NA
ATOM     14  C   UNL     1      52.269   0.688  17.873  0.00  0.00    +0.000 A 
ATOM     15  N   UNL     1      53.227   1.437  18.411  0.00  0.00    +0.000 NA
ATOM     16  C   UNL     1      52.959   2.754  18.355  0.00  0.00    +0.000 A 
ATOM     17  S   UNL     1      54.075   3.863  18.992  0.00  0.00    +0.000 S 
ATOM     18  C   UNL     1      53.084   5.176  18.573  0.00  0.00    +0.000 A 
ATOM     19  C   UNL     1      51.895   4.812  17.949  0.00  0.00    +0.000 A 
ATOM     20  C   UNL     1      51.826   3.357  17.817  0.00  0.00    +0.000 A 
BRANCH  12  22
ATOM     21  C   UNL     1      48.616   2.895  17.566  0.00  0.00    +0.000 C 
ATOM     22  O   UNL     1      49.738   2.883  16.686  0.00  0.00    +0.000 OA
ENDBRANCH  12  22
ENDBRANCH   8  19
ENDBRANCH   7  10
ENDBRANCH   1   7
BRANCH   4  23
ATOM     23  O   UNL     1      45.951   5.278  12.617  0.00  0.00    +0.000 OA
BRANCH  23  24
ATOM     24  C   UNL     1      44.642   5.350  13.209  0.00  0.00    +0.000 C 
BRANCH  24  25
ATOM     25  C   UNL     1      43.594   4.702  12.280  0.00  0.00    +0.000 C 
ATOM     26  C   UNL     1      43.841   3.202  12.076  0.00  0.00    +0.000 C 
ATOM     27  C   UNL     1      45.086   2.978  11.231  0.00  0.00    +0.000 C 
ATOM     28  N   UNL     1      44.871   3.559   9.910  0.00  0.00    +0.000 N 
ATOM     29  C   UNL     1      44.890   2.873   8.706  0.00  0.00    +0.000 C 
ATOM     30  C   UNL     1      45.113   1.377   8.693  0.00  0.00    +0.000 C 
ATOM     31  O   UNL     1      44.712   3.445   7.627  0.00  0.00    +0.000 OA
ATOM     32  C   UNL     1      44.622   5.004   9.916  0.00  0.00    +0.000 C 
ATOM     33  C   UNL     1      43.512   5.401  10.903  0.00  0.00    +0.000 C 
ENDBRANCH  24  25
ENDBRANCH  23  24
ENDBRANCH   4  23
TORSDOF 7
ENDMDL
MODEL 9
REMARK VINA RESULT:    -6.845      3.331      8.023
REMARK INTER + INTRA:         -10.247
REMARK INTER:                  -9.241
REMARK INTRA:                  -1.005
REMARK UNBOUND:                -0.601
REMARK  Name = 
REMARK  9 active torsions:
REMARK  status: ('A' for Active; 'I' for Inactive)
REMARK    1  A    between atoms: C_1  and  O_2
REMARK    2  A    between atoms: O_2  and  C_3
REMARK    3  A    between atoms: C_10  and  C_11
REMARK    4  A    between atoms: N_13  and  C_14
REMARK    5  A    between atoms: C_14  and  C_15
REMARK    6  A    between atoms: C_18  and  O_19
REMARK    7  A    between atoms: O_19  and  C_20
REMARK    8  A    between atoms: C_20  and  C_21
REMARK    9  A    between atoms: C_25  and  C_26
REMARK                            x       y       z     vdW  Elec       q    Type
REMARK                         _______ _______ _______ _____ _____    ______ ____
ROOT
ATOM      1  C   UNL     1      48.705   8.110  13.200  0.00  0.00    +0.000 A 
ATOM      2  C   UNL     1      48.246   9.247  13.875  0.00  0.00    +0.000 A 
ATOM      3  C   UNL     1      48.254   9.309  15.271  0.00  0.00    +0.000 A 
ATOM      4  C   UNL     1      48.726   8.238  16.027  0.00  0.00    +0.000 A 
ATOM      5  C   UNL     1      49.241   7.119  15.358  0.00  0.00    +0.000 A 
ATOM      6  C   UNL     1      49.228   7.048  13.958  0.00  0.00    +0.000 A 
ENDROOT
BRANCH   1   7
ATOM      7  C   UNL     1      48.633   8.070  11.694  0.00  0.00    +0.000 C 
BRANCH   7  10
ATOM      8  C   UNL     1      46.459   6.926  11.396  0.00  0.00    +0.000 C 
ATOM      9  O   UNL     1      45.848   7.793  12.023  0.00  0.00    +0.000 OA
ATOM     10  N   UNL     1      47.810   6.985  11.217  0.00  0.00    +0.000 N 
ATOM     11  H   UNL     1      48.278   6.254  10.706  0.00  0.00    +0.000 HD
BRANCH   8  19
ATOM     12  C   UNL     1      44.646   4.328  12.752  0.00  0.00    +0.000 A 
ATOM     13  N   UNL     1      43.907   3.231  13.010  0.00  0.00    +0.000 NA
ATOM     14  C   UNL     1      43.516   2.481  11.976  0.00  0.00    +0.000 A 
ATOM     15  N   UNL     1      43.774   2.694  10.689  0.00  0.00    +0.000 NA
ATOM     16  C   UNL     1      44.507   3.802  10.475  0.00  0.00    +0.000 A 
ATOM     17  S   UNL     1      44.929   4.233   8.889  0.00  0.00    +0.000 S 
ATOM     18  C   UNL     1      45.767   5.605   9.433  0.00  0.00    +0.000 A 
ATOM     19  C   UNL     1      45.751   5.769  10.814  0.00  0.00    +0.000 A 
ATOM     20  C   UNL     1      44.989   4.685  11.436  0.00  0.00    +0.000 A 
BRANCH  12  22
ATOM     21  C   UNL     1      46.299   4.799  14.341  0.00  0.00    +0.000 C 
ATOM     22  O   UNL     1      45.014   5.126  13.817  0.00  0.00    +0.000 OA
ENDBRANCH  12  22
ENDBRANCH   8  19
ENDBRANCH   7  10
ENDBRANCH   1   7
BRANCH   4  23
ATOM     23  O   UNL     1      48.746   8.205  17.401  0.00  0.00    +0.000 OA
BRANCH  23  24
ATOM     24  C   UNL     1      49.963   7.715  17.991  0.00  0.00    +0.000 C 
BRANCH  24  25
ATOM     25  C   UNL     1      49.665   6.531  18.936  0.00  0.00    +0.000 C 
ATOM     26  C   UNL     1      50.435   5.263  18.546  0.00  0.00    +0.000 C 
ATOM     27  C   UNL     1      49.885   4.684  17.251  0.00  0.00    +0.000 C 
ATOM     28  N   UNL     1      48.495   4.293  17.461  0.00  0.00    +0.000 N 
ATOM     29  C   UNL     1      47.981   3.013  17.330  0.00  0.00    +0.000 C 
ATOM     30  C   UNL     1      48.897   1.864  16.973  0.00  0.00    +0.000 C 
ATOM     31  O   UNL     1      46.784   2.769  17.512  0.00  0.00    +0.000 OA
ATOM     32  C   UNL     1      47.604   5.395  17.839  0.00  0.00    +0.000 C 
ATOM     33  C   UNL     1      48.154   6.210  19.021  0.00  0.00    +0.000 C 
ENDBRANCH  24  25
ENDBRANCH  23  24
ENDBRANCH   4  23
TORSDOF 7
ENDMDL
