MODEL 1
REMARK VINA RESULT:    -8.598      0.000      0.000
REMARK INTER + INTRA:         -13.460
REMARK INTER:                 -12.619
REMARK INTRA:                  -0.841
REMARK UNBOUND:                -0.841
REMARK  Name = 
REMARK  9 active torsions:
REMARK  status: ('A' for Active; 'I' for Inactive)
REMARK    1  A    between atoms: C_1  and  O_2
REMARK    2  A    between atoms: O_2  and  C_3
REMARK    3  A    between atoms: C_5  and  C_6
REMARK    4  A    between atoms: C_6  and  N_7
REMARK    5  A    between atoms: C_8  and  C_10
REMARK    6  A    between atoms: C_22  and  C_23
REMARK    7  A    between atoms: C_23  and  N_24
REMARK    8  A    between atoms: N_24  and  C_25
REMARK    9  A    between atoms: C_25  and  C_26
REMARK                            x       y       z     vdW  Elec       q    Type
REMARK                         _______ _______ _______ _____ _____    ______ ____
ROOT
ATOM      1  C   UNL     1      45.194   4.883  12.564  0.00  0.00    +0.000 A 
ATOM      2  C   UNL     1      46.275   5.430  13.288  0.00  0.00    +0.000 A 
ATOM      3  C   UNL     1      47.196   6.311  12.676  0.00  0.00    +0.000 A 
ATOM      4  C   UNL     1      46.996   6.619  11.325  0.00  0.00    +0.000 A 
ATOM      5  C   UNL     1      45.913   6.112  10.627  0.00  0.00    +0.000 A 
ATOM      6  C   UNL     1      44.957   5.286  11.231  0.00  0.00    +0.000 A 
ENDROOT
BRANCH   1   8
ATOM      7  C   UNL     1      43.085   4.369  13.497  0.00  0.00    +0.000 C 
ATOM      8  O   UNL     1      44.430   3.961  13.245  0.00  0.00    +0.000 OA
ENDBRANCH   1   8
BRANCH   3   9
ATOM      9  C   UNL     1      48.379   6.869  13.433  0.00  0.00    +0.000 C 
BRANCH   9  10
ATOM     10  N   UNL     1      48.178   6.860  14.866  0.00  0.00    +0.000 N 
ATOM     11  C   UNL     1      49.225   6.781  15.759  0.00  0.00    +0.000 C 
ATOM     12  O   UNL     1      50.394   6.735  15.413  0.00  0.00    +0.000 OA
ATOM     13  H   UNL     1      47.286   6.500  15.181  0.00  0.00    +0.000 HD
BRANCH  11  14
ATOM     14  C   UNL     1      48.829   6.832  17.177  0.00  0.00    +0.000 A 
ATOM     15  C   UNL     1      48.384   8.024  17.734  0.00  0.00    +0.000 A 
ATOM     16  S   UNL     1      47.939   7.889  19.376  0.00  0.00    +0.000 S 
ATOM     17  C   UNL     1      48.357   6.238  19.412  0.00  0.00    +0.000 A 
ATOM     18  N   UNL     1      48.248   5.494  20.558  0.00  0.00    +0.000 NA
ATOM     19  C   UNL     1      48.615   4.277  20.437  0.00  0.00    +0.000 A 
ATOM     20  N   UNL     1      49.082   3.701  19.286  0.00  0.00    +0.000 N 
ATOM     21  C   UNL     1      49.179   4.388  18.091  0.00  0.00    +0.000 A 
ATOM     22  O   UNL     1      49.533   3.836  17.071  0.00  0.00    +0.000 OA
ATOM     23  C   UNL     1      48.802   5.780  18.180  0.00  0.00    +0.000 A 
ATOM     24  H   UNL     1      49.337   2.713  19.257  0.00  0.00    +0.000 HD
ENDBRANCH  11  14
ENDBRANCH   9  10
ENDBRANCH   3   9
BRANCH   6  25
ATOM     25  C   UNL     1      43.745   4.888  10.431  0.00  0.00    +0.000 C 
BRANCH  25  26
ATOM     26  N   UNL     1      44.005   4.151   9.185  0.00  0.00    +0.000 NA
ATOM     27  H   UNL     1      44.735   4.590   8.624  0.00  0.00    +0.000 HD
BRANCH  26  28
ATOM     28  C   UNL     1      44.477   2.785   9.389  0.00  0.00    +0.000 C 
BRANCH  28  29
ATOM     29  C   UNL     1      45.571   2.459   8.387  0.00  0.00    +0.000 A 
ATOM     30  C   UNL     1      46.038   3.446   7.515  0.00  0.00    +0.000 A 
ATOM     31  C   UNL     1      47.046   3.127   6.610  0.00  0.00    +0.000 A 
ATOM     32  C   UNL     1      47.552   1.834   6.588  0.00  0.00    +0.000 A 
ATOM     33  C   UNL     1      47.032   0.913   7.481  0.00  0.00    +0.000 A 
ATOM     34  N   UNL     1      46.067   1.196   8.384  0.00  0.00    +0.000 NA
ENDBRANCH  28  29
ENDBRANCH  26  28
ENDBRANCH  25  26
ENDBRANCH   6  25
TORSDOF 8
ENDMDL
MODEL 2
REMARK VINA RESULT:    -8.270      1.629      2.041
REMARK INTER + INTRA:         -12.979
REMARK INTER:                 -11.670
REMARK INTRA:                  -1.309
REMARK UNBOUND:                -0.841
REMARK  Name = 
REMARK  9 active torsions:
REMARK  status: ('A' for Active; 'I' for Inactive)
REMARK    1  A    between atoms: C_1  and  O_2
REMARK    2  A    between atoms: O_2  and  C_3
REMARK    3  A    between atoms: C_5  and  C_6
REMARK    4  A    between atoms: C_6  and  N_7
REMARK    5  A    between atoms: C_8  and  C_10
REMARK    6  A    between atoms: C_22  and  C_23
REMARK    7  A    between atoms: C_23  and  N_24
REMARK    8  A    between atoms: N_24  and  C_25
REMARK    9  A    between atoms: C_25  and  C_26
REMARK                            x       y       z     vdW  Elec       q    Type
REMARK                         _______ _______ _______ _____ _____    ______ ____
ROOT
ATOM      1  C   UNL     1      45.544   4.836  12.621  0.00  0.00    +0.000 A 
ATOM      2  C   UNL     1      46.178   6.002  13.099  0.00  0.00    +0.000 A 
ATOM      3  C   UNL     1      45.870   7.275  12.567  0.00  0.00    +0.000 A 
ATOM      4  C   UNL     1      44.912   7.335  11.546  0.00  0.00    +0.000 A 
ATOM      5  C   UNL     1      44.263   6.195  11.106  0.00  0.00    +0.000 A 
ATOM      6  C   UNL     1      44.511   4.933  11.661  0.00  0.00    +0.000 A 
ENDROOT
BRANCH   1   8
ATOM      7  C   UNL     1      46.993   3.796  14.170  0.00  0.00    +0.000 C 
ATOM      8  O   UNL     1      46.005   3.650  13.149  0.00  0.00    +0.000 OA
ENDBRANCH   1   8
BRANCH   3   9
ATOM      9  C   UNL     1      46.573   8.524  13.045  0.00  0.00    +0.000 C 
BRANCH   9  10
ATOM     10  N   UNL     1      47.065   8.402  14.400  0.00  0.00    +0.000 N 
ATOM     11  C   UNL     1      48.076   9.197  14.895  0.00  0.00    +0.000 C 
ATOM     12  O   UNL     1      48.616  10.074  14.239  0.00  0.00    +0.000 OA
ATOM     13  H   UNL     1      46.959   7.489  14.824  0.00  0.00    +0.000 HD
BRANCH  11  14
ATOM     14  C   UNL     1      48.411   8.960  16.310  0.00  0.00    +0.000 A 
ATOM     15  C   UNL     1      48.214   9.963  17.250  0.00  0.00    +0.000 A 
ATOM     16  S   UNL     1      48.625   9.500  18.841  0.00  0.00    +0.000 S 
ATOM     17  C   UNL     1      49.111   7.951  18.326  0.00  0.00    +0.000 A 
ATOM     18  N   UNL     1      49.614   7.027  19.204  0.00  0.00    +0.000 NA
ATOM     19  C   UNL     1      49.952   5.917  18.670  0.00  0.00    +0.000 A 
ATOM     20  N   UNL     1      49.843   5.612  17.340  0.00  0.00    +0.000 N 
ATOM     21  C   UNL     1      49.309   6.487  16.413  0.00  0.00    +0.000 A 
ATOM     22  O   UNL     1      49.162   6.167  15.252  0.00  0.00    +0.000 OA
ATOM     23  C   UNL     1      48.936   7.770  16.961  0.00  0.00    +0.000 A 
ATOM     24  H   UNL     1      50.113   4.694  16.985  0.00  0.00    +0.000 HD
ENDBRANCH  11  14
ENDBRANCH   9  10
ENDBRANCH   3   9
BRANCH   6  25
ATOM     25  C   UNL     1      43.666   3.772  11.209  0.00  0.00    +0.000 C 
BRANCH  25  26
ATOM     26  N   UNL     1      43.803   3.381   9.798  0.00  0.00    +0.000 NA
ATOM     27  H   UNL     1      44.373   4.042   9.271  0.00  0.00    +0.000 HD
BRANCH  26  28
ATOM     28  C   UNL     1      44.462   2.094   9.599  0.00  0.00    +0.000 C 
BRANCH  28  29
ATOM     29  C   UNL     1      45.526   2.218   8.522  0.00  0.00    +0.000 A 
ATOM     30  C   UNL     1      45.714   3.433   7.860  0.00  0.00    +0.000 A 
ATOM     31  C   UNL     1      46.700   3.526   6.881  0.00  0.00    +0.000 A 
ATOM     32  C   UNL     1      47.462   2.405   6.580  0.00  0.00    +0.000 A 
ATOM     33  C   UNL     1      47.210   1.236   7.278  0.00  0.00    +0.000 A 
ATOM     34  N   UNL     1      46.273   1.119   8.245  0.00  0.00    +0.000 NA
ENDBRANCH  28  29
ENDBRANCH  26  28
ENDBRANCH  25  26
ENDBRANCH   6  25
TORSDOF 8
ENDMDL
MODEL 3
REMARK VINA RESULT:    -8.242      1.275      1.939
REMARK INTER + INTRA:         -12.938
REMARK INTER:                 -12.065
REMARK INTRA:                  -0.872
REMARK UNBOUND:                -0.841
REMARK  Name = 
REMARK  9 active torsions:
REMARK  status: ('A' for Active; 'I' for Inactive)
REMARK    1  A    between atoms: C_1  and  O_2
REMARK    2  A    between atoms: O_2  and  C_3
REMARK    3  A    between atoms: C_5  and  C_6
REMARK    4  A    between atoms: C_6  and  N_7
REMARK    5  A    between atoms: C_8  and  C_10
REMARK    6  A    between atoms: C_22  and  C_23
REMARK    7  A    between atoms: C_23  and  N_24
REMARK    8  A    between atoms: N_24  and  C_25
REMARK    9  A    between atoms: C_25  and  C_26
REMARK                            x       y       z     vdW  Elec       q    Type
REMARK                         _______ _______ _______ _____ _____    ______ ____
ROOT
ATOM      1  C   UNL     1      45.157   4.971  12.691  0.00  0.00    +0.000 A 
ATOM      2  C   UNL     1      46.157   5.548  13.501  0.00  0.00    +0.000 A 
ATOM      3  C   UNL     1      47.094   6.463  12.970  0.00  0.00    +0.000 A 
ATOM      4  C   UNL     1      46.994   6.774  11.608  0.00  0.00    +0.000 A 
ATOM      5  C   UNL     1      45.988   6.237  10.823  0.00  0.00    +0.000 A 
ATOM      6  C   UNL     1      45.014   5.376  11.345  0.00  0.00    +0.000 A 
ENDROOT
BRANCH   1   8
ATOM      7  C   UNL     1      43.012   4.407  13.506  0.00  0.00    +0.000 C 
ATOM      8  O   UNL     1      44.372   4.019  13.304  0.00  0.00    +0.000 OA
ENDBRANCH   1   8
BRANCH   3   9
ATOM      9  C   UNL     1      48.193   7.054  13.822  0.00  0.00    +0.000 C 
BRANCH   9  10
ATOM     10  N   UNL     1      48.098   6.656  15.209  0.00  0.00    +0.000 N 
ATOM     11  C   UNL     1      49.210   6.415  15.988  0.00  0.00    +0.000 C 
ATOM     12  O   UNL     1      50.352   6.541  15.576  0.00  0.00    +0.000 OA
ATOM     13  H   UNL     1      47.251   6.167  15.467  0.00  0.00    +0.000 HD
BRANCH  11  14
ATOM     14  C   UNL     1      48.917   6.066  17.389  0.00  0.00    +0.000 A 
ATOM     15  C   UNL     1      49.179   4.785  17.857  0.00  0.00    +0.000 A 
ATOM     16  S   UNL     1      48.808   4.570  19.509  0.00  0.00    +0.000 S 
ATOM     17  C   UNL     1      48.252   6.174  19.651  0.00  0.00    +0.000 A 
ATOM     18  N   UNL     1      47.749   6.658  20.830  0.00  0.00    +0.000 NA
ATOM     19  C   UNL     1      47.355   7.872  20.780  0.00  0.00    +0.000 A 
ATOM     20  N   UNL     1      47.408   8.677  19.674  0.00  0.00    +0.000 N 
ATOM     21  C   UNL     1      47.940   8.259  18.469  0.00  0.00    +0.000 A 
ATOM     22  O   UNL     1      48.035   9.013  17.524  0.00  0.00    +0.000 OA
ATOM     23  C   UNL     1      48.374   6.881  18.464  0.00  0.00    +0.000 A 
ATOM     24  H   UNL     1      47.095   9.648  19.713  0.00  0.00    +0.000 HD
ENDBRANCH  11  14
ENDBRANCH   9  10
ENDBRANCH   3   9
BRANCH   6  25
ATOM     25  C   UNL     1      43.885   4.944  10.448  0.00  0.00    +0.000 C 
BRANCH  25  26
ATOM     26  N   UNL     1      44.271   4.344   9.162  0.00  0.00    +0.000 NA
ATOM     27  H   UNL     1      45.148   4.726   8.808  0.00  0.00    +0.000 HD
BRANCH  26  28
ATOM     28  C   UNL     1      44.502   2.904   9.223  0.00  0.00    +0.000 C 
BRANCH  28  29
ATOM     29  C   UNL     1      45.580   2.509   8.228  0.00  0.00    +0.000 A 
ATOM     30  C   UNL     1      45.973   3.404   7.230  0.00  0.00    +0.000 A 
ATOM     31  C   UNL     1      46.968   3.023   6.333  0.00  0.00    +0.000 A 
ATOM     32  C   UNL     1      47.534   1.761   6.446  0.00  0.00    +0.000 A 
ATOM     33  C   UNL     1      47.085   0.931   7.459  0.00  0.00    +0.000 A 
ATOM     34  N   UNL     1      46.135   1.278   8.356  0.00  0.00    +0.000 NA
ENDBRANCH  28  29
ENDBRANCH  26  28
ENDBRANCH  25  26
ENDBRANCH   6  25
TORSDOF 8
ENDMDL
MODEL 4
REMARK VINA RESULT:    -8.047      2.074      2.481
REMARK INTER + INTRA:         -12.652
REMARK INTER:                 -11.311
REMARK INTRA:                  -1.341
REMARK UNBOUND:                -0.841
REMARK  Name = 
REMARK  9 active torsions:
REMARK  status: ('A' for Active; 'I' for Inactive)
REMARK    1  A    between atoms: C_1  and  O_2
REMARK    2  A    between atoms: O_2  and  C_3
REMARK    3  A    between atoms: C_5  and  C_6
REMARK    4  A    between atoms: C_6  and  N_7
REMARK    5  A    between atoms: C_8  and  C_10
REMARK    6  A    between atoms: C_22  and  C_23
REMARK    7  A    between atoms: C_23  and  N_24
REMARK    8  A    between atoms: N_24  and  C_25
REMARK    9  A    between atoms: C_25  and  C_26
REMARK                            x       y       z     vdW  Elec       q    Type
REMARK                         _______ _______ _______ _____ _____    ______ ____
ROOT
ATOM      1  C   UNL     1      46.320   4.677  12.990  0.00  0.00    +0.000 A 
ATOM      2  C   UNL     1      47.144   5.684  13.534  0.00  0.00    +0.000 A 
ATOM      3  C   UNL     1      47.264   6.948  12.914  0.00  0.00    +0.000 A 
ATOM      4  C   UNL     1      46.533   7.163  11.739  0.00  0.00    +0.000 A 
ATOM      5  C   UNL     1      45.694   6.188  11.228  0.00  0.00    +0.000 A 
ATOM      6  C   UNL     1      45.517   4.951  11.860  0.00  0.00    +0.000 A 
ENDROOT
BRANCH   1   8
ATOM      7  C   UNL     1      47.287   3.394  14.722  0.00  0.00    +0.000 C 
ATOM      8  O   UNL     1      46.369   3.458  13.631  0.00  0.00    +0.000 OA
ENDBRANCH   1   8
BRANCH   3   9
ATOM      9  C   UNL     1      48.176   8.018  13.468  0.00  0.00    +0.000 C 
BRANCH   9  10
ATOM     10  N   UNL     1      49.338   7.470  14.133  0.00  0.00    +0.000 N 
ATOM     11  C   UNL     1      49.669   7.793  15.431  0.00  0.00    +0.000 C 
ATOM     12  O   UNL     1      49.000   8.545  16.122  0.00  0.00    +0.000 OA
ATOM     13  H   UNL     1      50.100   7.194  13.527  0.00  0.00    +0.000 HD
BRANCH  11  14
ATOM     14  C   UNL     1      50.860   7.101  15.954  0.00  0.00    +0.000 A 
ATOM     15  C   UNL     1      52.129   7.578  15.658  0.00  0.00    +0.000 A 
ATOM     16  S   UNL     1      53.386   6.671  16.375  0.00  0.00    +0.000 S 
ATOM     17  C   UNL     1      52.278   5.587  17.081  0.00  0.00    +0.000 A 
ATOM     18  N   UNL     1      52.696   4.517  17.828  0.00  0.00    +0.000 NA
ATOM     19  C   UNL     1      51.753   3.783  18.278  0.00  0.00    +0.000 A 
ATOM     20  N   UNL     1      50.416   3.996  18.071  0.00  0.00    +0.000 N 
ATOM     21  C   UNL     1      49.931   5.077  17.360  0.00  0.00    +0.000 A 
ATOM     22  O   UNL     1      48.741   5.279  17.248  0.00  0.00    +0.000 OA
ATOM     23  C   UNL     1      50.961   5.925  16.804  0.00  0.00    +0.000 A 
ATOM     24  H   UNL     1      49.713   3.378  18.481  0.00  0.00    +0.000 HD
ENDBRANCH  11  14
ENDBRANCH   9  10
ENDBRANCH   3   9
BRANCH   6  25
ATOM     25  C   UNL     1      44.487   4.003  11.304  0.00  0.00    +0.000 C 
BRANCH  25  26
ATOM     26  N   UNL     1      44.998   2.727  10.780  0.00  0.00    +0.000 NA
ATOM     27  H   UNL     1      44.762   1.942  11.386  0.00  0.00    +0.000 HD
BRANCH  26  28
ATOM     28  C   UNL     1      44.452   2.358   9.478  0.00  0.00    +0.000 C 
BRANCH  28  29
ATOM     29  C   UNL     1      45.565   2.304   8.445  0.00  0.00    +0.000 A 
ATOM     30  C   UNL     1      45.899   3.448   7.716  0.00  0.00    +0.000 A 
ATOM     31  C   UNL     1      46.927   3.378   6.780  0.00  0.00    +0.000 A 
ATOM     32  C   UNL     1      47.585   2.171   6.587  0.00  0.00    +0.000 A 
ATOM     33  C   UNL     1      47.191   1.083   7.346  0.00  0.00    +0.000 A 
ATOM     34  N   UNL     1      46.210   1.123   8.275  0.00  0.00    +0.000 NA
ENDBRANCH  28  29
ENDBRANCH  26  28
ENDBRANCH  25  26
ENDBRANCH   6  25
TORSDOF 8
ENDMDL
MODEL 5
REMARK VINA RESULT:    -7.707      1.759      2.087
REMARK INTER + INTRA:         -12.153
REMARK INTER:                 -11.193
REMARK INTRA:                  -0.959
REMARK UNBOUND:                -0.841
REMARK  Name = 
REMARK  9 active torsions:
REMARK  status: ('A' for Active; 'I' for Inactive)
REMARK    1  A    between atoms: C_1  and  O_2
REMARK    2  A    between atoms: O_2  and  C_3
REMARK    3  A    between atoms: C_5  and  C_6
REMARK    4  A    between atoms: C_6  and  N_7
REMARK    5  A    between atoms: C_8  and  C_10
REMARK    6  A    between atoms: C_22  and  C_23
REMARK    7  A    between atoms: C_23  and  N_24
REMARK    8  A    between atoms: N_24  and  C_25
REMARK    9  A    between atoms: C_25  and  C_26
REMARK                            x       y       z     vdW  Elec       q    Type
REMARK                         _______ _______ _______ _____ _____    ______ ____
ROOT
ATOM      1  C   UNL     1      44.998   7.588  11.626  0.00  0.00    +0.000 A 
ATOM      2  C   UNL     1      45.866   8.344  12.442  0.00  0.00    +0.000 A 
ATOM      3  C   UNL     1      46.932   7.735  13.141  0.00  0.00    +0.000 A 
ATOM      4  C   UNL     1      47.095   6.352  12.994  0.00  0.00    +0.000 A 
ATOM      5  C   UNL     1      46.268   5.618  12.162  0.00  0.00    +0.000 A 
ATOM      6  C   UNL     1      45.243   6.213  11.415  0.00  0.00    +0.000 A 
ENDROOT
BRANCH   1   8
ATOM      7  C   UNL     1      44.090   9.701  11.087  0.00  0.00    +0.000 C 
ATOM      8  O   UNL     1      43.940   8.281  11.081  0.00  0.00    +0.000 OA
ENDBRANCH   1   8
BRANCH   3   9
ATOM      9  C   UNL     1      47.841   8.531  14.048  0.00  0.00    +0.000 C 
BRANCH   9  10
ATOM     10  N   UNL     1      48.138   7.841  15.285  0.00  0.00    +0.000 N 
ATOM     11  C   UNL     1      49.382   7.316  15.559  0.00  0.00    +0.000 C 
ATOM     12  O   UNL     1      50.328   7.411  14.795  0.00  0.00    +0.000 OA
ATOM     13  H   UNL     1      47.349   7.397  15.738  0.00  0.00    +0.000 HD
BRANCH  11  14
ATOM     14  C   UNL     1      49.507   6.690  16.887  0.00  0.00    +0.000 A 
ATOM     15  C   UNL     1      50.211   7.334  17.897  0.00  0.00    +0.000 A 
ATOM     16  S   UNL     1      50.224   6.479  19.374  0.00  0.00    +0.000 S 
ATOM     17  C   UNL     1      49.316   5.201  18.708  0.00  0.00    +0.000 A 
ATOM     18  N   UNL     1      48.990   4.093  19.444  0.00  0.00    +0.000 NA
ATOM     19  C   UNL     1      48.322   3.210  18.806  0.00  0.00    +0.000 A 
ATOM     20  N   UNL     1      47.931   3.305  17.498  0.00  0.00    +0.000 N 
ATOM     21  C   UNL     1      48.197   4.413  16.716  0.00  0.00    +0.000 A 
ATOM     22  O   UNL     1      47.782   4.500  15.580  0.00  0.00    +0.000 OA
ATOM     23  C   UNL     1      48.977   5.430  17.383  0.00  0.00    +0.000 A 
ATOM     24  H   UNL     1      47.378   2.568  17.057  0.00  0.00    +0.000 HD
ENDBRANCH  11  14
ENDBRANCH   9  10
ENDBRANCH   3   9
BRANCH   6  25
ATOM     25  C   UNL     1      44.478   5.358  10.440  0.00  0.00    +0.000 C 
BRANCH  25  26
ATOM     26  N   UNL     1      45.157   5.060   9.169  0.00  0.00    +0.000 NA
ATOM     27  H   UNL     1      46.122   4.762   9.310  0.00  0.00    +0.000 HD
BRANCH  26  28
ATOM     28  C   UNL     1      44.549   3.971   8.411  0.00  0.00    +0.000 C 
BRANCH  28  29
ATOM     29  C   UNL     1      45.630   3.063   7.850  0.00  0.00    +0.000 A 
ATOM     30  C   UNL     1      46.475   3.524   6.838  0.00  0.00    +0.000 A 
ATOM     31  C   UNL     1      47.463   2.677   6.343  0.00  0.00    +0.000 A 
ATOM     32  C   UNL     1      47.575   1.394   6.859  0.00  0.00    +0.000 A 
ATOM     33  C   UNL     1      46.695   1.011   7.858  0.00  0.00    +0.000 A 
ATOM     34  N   UNL     1      45.738   1.815   8.371  0.00  0.00    +0.000 NA
ENDBRANCH  28  29
ENDBRANCH  26  28
ENDBRANCH  25  26
ENDBRANCH   6  25
TORSDOF 8
ENDMDL
MODEL 6
REMARK VINA RESULT:    -7.503      1.947      2.768
REMARK INTER + INTRA:         -11.853
REMARK INTER:                 -10.770
REMARK INTRA:                  -1.082
REMARK UNBOUND:                -0.841
REMARK  Name = 
REMARK  9 active torsions:
REMARK  status: ('A' for Active; 'I' for Inactive)
REMARK    1  A    between atoms: C_1  and  O_2
REMARK    2  A    between atoms: O_2  and  C_3
REMARK    3  A    between atoms: C_5  and  C_6
REMARK    4  A    between atoms: C_6  and  N_7
REMARK    5  A    between atoms: C_8  and  C_10
REMARK    6  A    between atoms: C_22  and  C_23
REMARK    7  A    between atoms: C_23  and  N_24
REMARK    8  A    between atoms: N_24  and  C_25
REMARK    9  A    between atoms: C_25  and  C_26
REMARK                            x       y       z     vdW  Elec       q    Type
REMARK                         _______ _______ _______ _____ _____    ______ ____
ROOT
ATOM      1  C   UNL     1      45.368   7.252  12.241  0.00  0.00    +0.000 A 
ATOM      2  C   UNL     1      46.550   7.518  12.964  0.00  0.00    +0.000 A 
ATOM      3  C   UNL     1      47.302   6.475  13.550  0.00  0.00    +0.000 A 
ATOM      4  C   UNL     1      46.829   5.167  13.387  0.00  0.00    +0.000 A 
ATOM      5  C   UNL     1      45.692   4.904  12.643  0.00  0.00    +0.000 A 
ATOM      6  C   UNL     1      44.967   5.918  12.006  0.00  0.00    +0.000 A 
ENDROOT
BRANCH   1   8
ATOM      7  C   UNL     1      45.350   9.603  12.005  0.00  0.00    +0.000 C 
ATOM      8  O   UNL     1      44.674   8.361  11.808  0.00  0.00    +0.000 OA
ENDBRANCH   1   8
BRANCH   3   9
ATOM      9  C   UNL     1      48.546   6.755  14.361  0.00  0.00    +0.000 C 
BRANCH   9  10
ATOM     10  N   UNL     1      48.269   6.903  15.773  0.00  0.00    +0.000 N 
ATOM     11  C   UNL     1      48.843   6.093  16.729  0.00  0.00    +0.000 C 
ATOM     12  O   UNL     1      49.640   5.208  16.461  0.00  0.00    +0.000 OA
ATOM     13  H   UNL     1      47.370   7.307  16.003  0.00  0.00    +0.000 HD
BRANCH  11  14
ATOM     14  C   UNL     1      48.479   6.424  18.117  0.00  0.00    +0.000 A 
ATOM     15  C   UNL     1      47.804   5.498  18.901  0.00  0.00    +0.000 A 
ATOM     16  S   UNL     1      47.493   6.040  20.489  0.00  0.00    +0.000 S 
ATOM     17  C   UNL     1      48.222   7.548  20.177  0.00  0.00    +0.000 A 
ATOM     18  N   UNL     1      48.274   8.531  21.129  0.00  0.00    +0.000 NA
ATOM     19  C   UNL     1      48.834   9.613  20.746  0.00  0.00    +0.000 A 
ATOM     20  N   UNL     1      49.363   9.833  19.502  0.00  0.00    +0.000 N 
ATOM     21  C   UNL     1      49.375   8.868  18.513  0.00  0.00    +0.000 A 
ATOM     22  O   UNL     1      49.909   9.067  17.442  0.00  0.00    +0.000 OA
ATOM     23  C   UNL     1      48.727   7.633  18.887  0.00  0.00    +0.000 A 
ATOM     24  H   UNL     1      49.817  10.718  19.271  0.00  0.00    +0.000 HD
ENDBRANCH  11  14
ENDBRANCH   9  10
ENDBRANCH   3   9
BRANCH   6  25
ATOM     25  C   UNL     1      43.819   5.526  11.113  0.00  0.00    +0.000 C 
BRANCH  25  26
ATOM     26  N   UNL     1      44.180   4.981   9.796  0.00  0.00    +0.000 NA
ATOM     27  H   UNL     1      45.124   5.247   9.516  0.00  0.00    +0.000 HD
BRANCH  26  28
ATOM     28  C   UNL     1      44.180   3.523   9.734  0.00  0.00    +0.000 C 
BRANCH  28  29
ATOM     29  C   UNL     1      45.247   3.045   8.764  0.00  0.00    +0.000 A 
ATOM     30  C   UNL     1      45.851   3.949   7.887  0.00  0.00    +0.000 A 
ATOM     31  C   UNL     1      46.831   3.490   7.011  0.00  0.00    +0.000 A 
ATOM     32  C   UNL     1      47.173   2.145   7.023  0.00  0.00    +0.000 A 
ATOM     33  C   UNL     1      46.524   1.313   7.919  0.00  0.00    +0.000 A 
ATOM     34  N   UNL     1      45.582   1.731   8.794  0.00  0.00    +0.000 NA
ENDBRANCH  28  29
ENDBRANCH  26  28
ENDBRANCH  25  26
ENDBRANCH   6  25
TORSDOF 8
ENDMDL
MODEL 7
REMARK VINA RESULT:    -7.409      2.857      4.076
REMARK INTER + INTRA:         -11.715
REMARK INTER:                 -10.360
REMARK INTRA:                  -1.355
REMARK UNBOUND:                -0.841
REMARK  Name = 
REMARK  9 active torsions:
REMARK  status: ('A' for Active; 'I' for Inactive)
REMARK    1  A    between atoms: C_1  and  O_2
REMARK    2  A    between atoms: O_2  and  C_3
REMARK    3  A    between atoms: C_5  and  C_6
REMARK    4  A    between atoms: C_6  and  N_7
REMARK    5  A    between atoms: C_8  and  C_10
REMARK    6  A    between atoms: C_22  and  C_23
REMARK    7  A    between atoms: C_23  and  N_24
REMARK    8  A    between atoms: N_24  and  C_25
REMARK    9  A    between atoms: C_25  and  C_26
REMARK                            x       y       z     vdW  Elec       q    Type
REMARK                         _______ _______ _______ _____ _____    ______ ____
ROOT
ATOM      1  C   UNL     1      47.132   5.800  13.403  0.00  0.00    +0.000 A 
ATOM      2  C   UNL     1      48.057   6.457  14.242  0.00  0.00    +0.000 A 
ATOM      3  C   UNL     1      48.399   5.931  15.509  0.00  0.00    +0.000 A 
ATOM      4  C   UNL     1      47.785   4.735  15.900  0.00  0.00    +0.000 A 
ATOM      5  C   UNL     1      46.908   4.072  15.059  0.00  0.00    +0.000 A 
ATOM      6  C   UNL     1      46.602   4.546  13.778  0.00  0.00    +0.000 A 
ENDROOT
BRANCH   1   8
ATOM      7  C   UNL     1      47.855   7.274  11.704  0.00  0.00    +0.000 C 
ATOM      8  O   UNL     1      46.808   6.466  12.241  0.00  0.00    +0.000 OA
ENDBRANCH   1   8
BRANCH   3   9
ATOM      9  C   UNL     1      49.358   6.649  16.430  0.00  0.00    +0.000 C 
BRANCH   9  10
ATOM     10  N   UNL     1      50.415   5.788  16.916  0.00  0.00    +0.000 N 
ATOM     11  C   UNL     1      50.506   5.399  18.235  0.00  0.00    +0.000 C 
ATOM     12  O   UNL     1      49.696   5.732  19.085  0.00  0.00    +0.000 OA
ATOM     13  H   UNL     1      51.280   5.820  16.392  0.00  0.00    +0.000 HD
BRANCH  11  14
ATOM     14  C   UNL     1      51.622   4.484  18.532  0.00  0.00    +0.000 A 
ATOM     15  C   UNL     1      52.689   4.914  19.309  0.00  0.00    +0.000 A 
ATOM     16  S   UNL     1      53.871   3.712  19.575  0.00  0.00    +0.000 S 
ATOM     17  C   UNL     1      53.013   2.580  18.635  0.00  0.00    +0.000 A 
ATOM     18  N   UNL     1      53.495   1.316  18.417  0.00  0.00    +0.000 NA
ATOM     19  C   UNL     1      52.752   0.586  17.677  0.00  0.00    +0.000 A 
ATOM     20  N   UNL     1      51.562   0.973  17.121  0.00  0.00    +0.000 N 
ATOM     21  C   UNL     1      51.007   2.220  17.336  0.00  0.00    +0.000 A 
ATOM     22  O   UNL     1      49.920   2.514  16.886  0.00  0.00    +0.000 OA
ATOM     23  C   UNL     1      51.823   3.097  18.144  0.00  0.00    +0.000 A 
ATOM     24  H   UNL     1      51.008   0.327  16.557  0.00  0.00    +0.000 HD
ENDBRANCH  11  14
ENDBRANCH   9  10
ENDBRANCH   3   9
BRANCH   6  25
ATOM     25  C   UNL     1      45.740   3.692  12.885  0.00  0.00    +0.000 C 
BRANCH  25  26
ATOM     26  N   UNL     1      44.609   4.372  12.235  0.00  0.00    +0.000 NA
ATOM     27  H   UNL     1      44.904   5.202  11.722  0.00  0.00    +0.000 HD
BRANCH  26  28
ATOM     28  C   UNL     1      43.918   3.558  11.240  0.00  0.00    +0.000 C 
BRANCH  28  29
ATOM     29  C   UNL     1      44.730   3.507   9.956  0.00  0.00    +0.000 A 
ATOM     30  C   UNL     1      44.938   2.288   9.308  0.00  0.00    +0.000 A 
ATOM     31  C   UNL     1      45.679   2.265   8.130  0.00  0.00    +0.000 A 
ATOM     32  C   UNL     1      46.201   3.453   7.636  0.00  0.00    +0.000 A 
ATOM     33  C   UNL     1      45.954   4.619   8.341  0.00  0.00    +0.000 A 
ATOM     34  N   UNL     1      45.224   4.676   9.477  0.00  0.00    +0.000 NA
ENDBRANCH  28  29
ENDBRANCH  26  28
ENDBRANCH  25  26
ENDBRANCH   6  25
TORSDOF 8
ENDMDL
MODEL 8
REMARK VINA RESULT:    -7.153      2.681      8.869
REMARK INTER + INTRA:         -11.339
REMARK INTER:                  -9.602
REMARK INTRA:                  -1.737
REMARK UNBOUND:                -0.841
REMARK  Name = 
REMARK  9 active torsions:
REMARK  status: ('A' for Active; 'I' for Inactive)
REMARK    1  A    between atoms: C_1  and  O_2
REMARK    2  A    between atoms: O_2  and  C_3
REMARK    3  A    between atoms: C_5  and  C_6
REMARK    4  A    between atoms: C_6  and  N_7
REMARK    5  A    between atoms: C_8  and  C_10
REMARK    6  A    between atoms: C_22  and  C_23
REMARK    7  A    between atoms: C_23  and  N_24
REMARK    8  A    between atoms: N_24  and  C_25
REMARK    9  A    between atoms: C_25  and  C_26
REMARK                            x       y       z     vdW  Elec       q    Type
REMARK                         _______ _______ _______ _____ _____    ______ ____
ROOT
ATOM      1  C   UNL     1      49.837   7.440  15.248  0.00  0.00    +0.000 A 
ATOM      2  C   UNL     1      49.441   7.291  13.903  0.00  0.00    +0.000 A 
ATOM      3  C   UNL     1      48.299   7.951  13.396  0.00  0.00    +0.000 A 
ATOM      4  C   UNL     1      47.573   8.758  14.281  0.00  0.00    +0.000 A 
ATOM      5  C   UNL     1      47.986   8.935  15.591  0.00  0.00    +0.000 A 
ATOM      6  C   UNL     1      49.147   8.337  16.094  0.00  0.00    +0.000 A 
ENDROOT
BRANCH   1   8
ATOM      7  C   UNL     1      52.181   7.294  15.508  0.00  0.00    +0.000 C 
ATOM      8  O   UNL     1      50.906   6.666  15.643  0.00  0.00    +0.000 OA
ENDBRANCH   1   8
BRANCH   3   9
ATOM      9  C   UNL     1      47.845   7.764  11.967  0.00  0.00    +0.000 C 
BRANCH   9  10
ATOM     10  N   UNL     1      47.026   6.584  11.793  0.00  0.00    +0.000 N 
ATOM     11  C   UNL     1      45.648   6.634  11.782  0.00  0.00    +0.000 C 
ATOM     12  O   UNL     1      45.019   7.673  11.896  0.00  0.00    +0.000 OA
ATOM     13  H   UNL     1      47.445   5.712  12.091  0.00  0.00    +0.000 HD
BRANCH  11  14
ATOM     14  C   UNL     1      44.987   5.340  11.545  0.00  0.00    +0.000 A 
ATOM     15  C   UNL     1      44.208   4.763  12.539  0.00  0.00    +0.000 A 
ATOM     16  S   UNL     1      43.494   3.282  12.078  0.00  0.00    +0.000 S 
ATOM     17  C   UNL     1      44.226   3.343  10.541  0.00  0.00    +0.000 A 
ATOM     18  N   UNL     1      44.055   2.340   9.623  0.00  0.00    +0.000 NA
ATOM     19  C   UNL     1      44.679   2.515   8.523  0.00  0.00    +0.000 A 
ATOM     20  N   UNL     1      45.467   3.594   8.222  0.00  0.00    +0.000 N 
ATOM     21  C   UNL     1      45.647   4.654   9.090  0.00  0.00    +0.000 A 
ATOM     22  O   UNL     1      46.296   5.628   8.772  0.00  0.00    +0.000 OA
ATOM     23  C   UNL     1      44.984   4.492  10.363  0.00  0.00    +0.000 A 
ATOM     24  H   UNL     1      45.919   3.679   7.311  0.00  0.00    +0.000 HD
ENDBRANCH  11  14
ENDBRANCH   9  10
ENDBRANCH   3   9
BRANCH   6  25
ATOM     25  C   UNL     1      49.587   8.690  17.491  0.00  0.00    +0.000 C 
BRANCH  25  26
ATOM     26  N   UNL     1      49.722   7.566  18.430  0.00  0.00    +0.000 NA
ATOM     27  H   UNL     1      50.096   7.863  19.332  0.00  0.00    +0.000 HD
BRANCH  26  28
ATOM     28  C   UNL     1      48.461   6.910  18.759  0.00  0.00    +0.000 C 
BRANCH  28  29
ATOM     29  C   UNL     1      48.471   5.480  18.247  0.00  0.00    +0.000 A 
ATOM     30  C   UNL     1      47.272   4.853  17.899  0.00  0.00    +0.000 A 
ATOM     31  C   UNL     1      47.306   3.544  17.426  0.00  0.00    +0.000 A 
ATOM     32  C   UNL     1      48.527   2.892  17.324  0.00  0.00    +0.000 A 
ATOM     33  C   UNL     1      49.669   3.582  17.694  0.00  0.00    +0.000 A 
ATOM     34  N   UNL     1      49.672   4.858  18.140  0.00  0.00    +0.000 NA
ENDBRANCH  28  29
ENDBRANCH  26  28
ENDBRANCH  25  26
ENDBRANCH   6  25
TORSDOF 8
ENDMDL
MODEL 9
REMARK VINA RESULT:    -7.081      3.188      9.028
REMARK INTER + INTRA:         -11.233
REMARK INTER:                 -10.050
REMARK INTRA:                  -1.183
REMARK UNBOUND:                -0.841
REMARK  Name = 
REMARK  9 active torsions:
REMARK  status: ('A' for Active; 'I' for Inactive)
REMARK    1  A    between atoms: C_1  and  O_2
REMARK    2  A    between atoms: O_2  and  C_3
REMARK    3  A    between atoms: C_5  and  C_6
REMARK    4  A    between atoms: C_6  and  N_7
REMARK    5  A    between atoms: C_8  and  C_10
REMARK    6  A    between atoms: C_22  and  C_23
REMARK    7  A    between atoms: C_23  and  N_24
REMARK    8  A    between atoms: N_24  and  C_25
REMARK    9  A    between atoms: C_25  and  C_26
REMARK                            x       y       z     vdW  Elec       q    Type
REMARK                         _______ _______ _______ _____ _____    ______ ____
ROOT
ATOM      1  C   UNL     1      49.122   6.648  15.527  0.00  0.00    +0.000 A 
ATOM      2  C   UNL     1      48.190   6.733  14.472  0.00  0.00    +0.000 A 
ATOM      3  C   UNL     1      48.377   7.633  13.398  0.00  0.00    +0.000 A 
ATOM      4  C   UNL     1      49.523   8.438  13.421  0.00  0.00    +0.000 A 
ATOM      5  C   UNL     1      50.457   8.325  14.437  0.00  0.00    +0.000 A 
ATOM      6  C   UNL     1      50.319   7.398  15.478  0.00  0.00    +0.000 A 
ENDROOT
BRANCH   1   8
ATOM      7  C   UNL     1      47.838   4.787  16.212  0.00  0.00    +0.000 C 
ATOM      8  O   UNL     1      48.774   5.808  16.561  0.00  0.00    +0.000 OA
ENDBRANCH   1   8
BRANCH   3   9
ATOM      9  C   UNL     1      47.363   7.759  12.285  0.00  0.00    +0.000 C 
BRANCH   9  10
ATOM     10  N   UNL     1      46.646   6.526  12.043  0.00  0.00    +0.000 N 
ATOM     11  C   UNL     1      45.343   6.503  11.592  0.00  0.00    +0.000 C 
ATOM     12  O   UNL     1      44.707   7.514  11.343  0.00  0.00    +0.000 OA
ATOM     13  H   UNL     1      46.950   5.728  12.586  0.00  0.00    +0.000 HD
BRANCH  11  14
ATOM     14  C   UNL     1      44.795   5.156  11.358  0.00  0.00    +0.000 A 
ATOM     15  C   UNL     1      44.035   4.533  12.339  0.00  0.00    +0.000 A 
ATOM     16  S   UNL     1      43.457   2.993  11.883  0.00  0.00    +0.000 S 
ATOM     17  C   UNL     1      44.230   3.089  10.368  0.00  0.00    +0.000 A 
ATOM     18  N   UNL     1      44.168   2.062   9.464  0.00  0.00    +0.000 NA
ATOM     19  C   UNL     1      44.811   2.270   8.379  0.00  0.00    +0.000 A 
ATOM     20  N   UNL     1      45.518   3.404   8.083  0.00  0.00    +0.000 N 
ATOM     21  C   UNL     1      45.586   4.488   8.937  0.00  0.00    +0.000 A 
ATOM     22  O   UNL     1      46.164   5.506   8.622  0.00  0.00    +0.000 OA
ATOM     23  C   UNL     1      44.898   4.293  10.192  0.00  0.00    +0.000 A 
ATOM     24  H   UNL     1      45.991   3.511   7.184  0.00  0.00    +0.000 HD
ENDBRANCH  11  14
ENDBRANCH   9  10
ENDBRANCH   3   9
BRANCH   6  25
ATOM     25  C   UNL     1      51.446   7.257  16.466  0.00  0.00    +0.000 C 
BRANCH  25  26
ATOM     26  N   UNL     1      52.061   5.924  16.561  0.00  0.00    +0.000 NA
ATOM     27  H   UNL     1      53.055   5.943  16.335  0.00  0.00    +0.000 HD
BRANCH  26  28
ATOM     28  C   UNL     1      52.004   5.337  17.896  0.00  0.00    +0.000 C 
BRANCH  28  29
ATOM     29  C   UNL     1      51.997   3.821  17.797  0.00  0.00    +0.000 A 
ATOM     30  C   UNL     1      53.097   3.086  18.243  0.00  0.00    +0.000 A 
ATOM     31  C   UNL     1      53.067   1.698  18.149  0.00  0.00    +0.000 A 
ATOM     32  C   UNL     1      51.950   1.081  17.603  0.00  0.00    +0.000 A 
ATOM     33  C   UNL     1      50.903   1.881  17.179  0.00  0.00    +0.000 A 
ATOM     34  N   UNL     1      50.894   3.229  17.273  0.00  0.00    +0.000 NA
ENDBRANCH  28  29
ENDBRANCH  26  28
ENDBRANCH  25  26
ENDBRANCH   6  25
TORSDOF 8
ENDMDL
