MODEL 1
REMARK VINA RESULT:    -7.994      0.000      0.000
REMARK INTER + INTRA:         -11.079
REMARK INTER:                 -10.564
REMARK INTRA:                  -0.515
REMARK UNBOUND:                -0.515
REMARK  Name = 
REMARK  6 active torsions:
REMARK  status: ('A' for Active; 'I' for Inactive)
REMARK    1  A    between atoms: N_1  and  C_2
REMARK    2  A    between atoms: C_2  and  C_3
REMARK    3  A    between atoms: C_6  and  C_7
REMARK    4  A    between atoms: C_7  and  O_8
REMARK    5  A    between atoms: O_8  and  C_9
REMARK    6  A    between atoms: C_12  and  C_13
REMARK                            x       y       z     vdW  Elec       q    Type
REMARK                         _______ _______ _______ _____ _____    ______ ____
ROOT
ATOM      1  O   UNL     1      44.388   5.545  10.651  0.00  0.00    +0.000 OA
ENDROOT
BRANCH   1   2
ATOM      2  C   UNL     1      45.186   5.343  11.741  0.00  0.00    +0.000 A 
ATOM      3  C   UNL     1      46.355   6.036  12.043  0.00  0.00    +0.000 A 
ATOM      4  C   UNL     1      47.067   5.715  13.198  0.00  0.00    +0.000 A 
ATOM      5  C   UNL     1      46.583   4.704  14.016  0.00  0.00    +0.000 A 
ATOM      6  N   UNL     1      45.447   3.999  13.757  0.00  0.00    +0.000 NA
ATOM      7  C   UNL     1      44.784   4.341  12.624  0.00  0.00    +0.000 A 
BRANCH   5   8
ATOM      8  C   UNL     1      47.331   4.348  15.262  0.00  0.00    +0.000 C 
ATOM      9  N   UNL     1      47.658   5.398  16.073  0.00  0.00    +0.000 N 
ATOM     10  O   UNL     1      47.637   3.195  15.543  0.00  0.00    +0.000 OA
ATOM     11  H   UNL     1      47.389   6.339  15.804  0.00  0.00    +0.000 HD
ATOM     12  H   UNL     1      48.168   5.231  16.927  0.00  0.00    +0.000 HD
ENDBRANCH   5   8
ENDBRANCH   1   2
BRANCH   1  13
ATOM     13  C   UNL     1      43.809   4.376  10.064  0.00  0.00    +0.000 C 
BRANCH  13  17
ATOM     14  C   UNL     1      46.695   2.325   7.560  0.00  0.00    +0.000 A 
ATOM     15  C   UNL     1      46.571   3.720   7.502  0.00  0.00    +0.000 A 
ATOM     16  C   UNL     1      45.637   4.390   8.294  0.00  0.00    +0.000 A 
ATOM     17  C   UNL     1      44.791   3.677   9.152  0.00  0.00    +0.000 A 
ATOM     18  C   UNL     1      44.924   2.282   9.221  0.00  0.00    +0.000 A 
ATOM     19  C   UNL     1      45.862   1.613   8.430  0.00  0.00    +0.000 A 
BRANCH  14  20
ATOM     20  C   UNL     1      47.701   1.612   6.694  0.00  0.00    +0.000 C 
BRANCH  20  21
ATOM     21  N   UNL     1      48.716   2.527   6.188  0.00  0.00    +0.000 NA
ATOM     22  H   UNL     1      49.259   2.890   6.969  0.00  0.00    +0.000 HD
ATOM     23  H   UNL     1      48.252   3.327   5.759  0.00  0.00    +0.000 HD
ENDBRANCH  20  21
ENDBRANCH  14  20
ENDBRANCH  13  17
ENDBRANCH   1  13
TORSDOF 6
ENDMDL
MODEL 2
REMARK VINA RESULT:    -7.504      2.239      6.387
REMARK INTER + INTRA:         -10.431
REMARK INTER:                  -9.820
REMARK INTRA:                  -0.612
REMARK UNBOUND:                -0.515
REMARK  Name = 
REMARK  6 active torsions:
REMARK  status: ('A' for Active; 'I' for Inactive)
REMARK    1  A    between atoms: N_1  and  C_2
REMARK    2  A    between atoms: C_2  and  C_3
REMARK    3  A    between atoms: C_6  and  C_7
REMARK    4  A    between atoms: C_7  and  O_8
REMARK    5  A    between atoms: O_8  and  C_9
REMARK    6  A    between atoms: C_12  and  C_13
REMARK                            x       y       z     vdW  Elec       q    Type
REMARK                         _______ _______ _______ _____ _____    ______ ____
ROOT
ATOM      1  O   UNL     1      43.637   3.976  10.206  0.00  0.00    +0.000 OA
ENDROOT
BRANCH   1   2
ATOM      2  C   UNL     1      44.566   3.456   9.350  0.00  0.00    +0.000 A 
ATOM      3  C   UNL     1      44.965   2.124   9.282  0.00  0.00    +0.000 A 
ATOM      4  C   UNL     1      45.930   1.740   8.351  0.00  0.00    +0.000 A 
ATOM      5  C   UNL     1      46.466   2.709   7.515  0.00  0.00    +0.000 A 
ATOM      6  N   UNL     1      46.107   4.022   7.549  0.00  0.00    +0.000 NA
ATOM      7  C   UNL     1      45.166   4.355   8.469  0.00  0.00    +0.000 A 
BRANCH   5   8
ATOM      8  C   UNL     1      47.500   2.316   6.506  0.00  0.00    +0.000 C 
ATOM      9  N   UNL     1      47.494   3.039   5.346  0.00  0.00    +0.000 N 
ATOM     10  O   UNL     1      48.299   1.409   6.699  0.00  0.00    +0.000 OA
ATOM     11  H   UNL     1      46.814   3.781   5.223  0.00  0.00    +0.000 HD
ATOM     12  H   UNL     1      48.160   2.823   4.619  0.00  0.00    +0.000 HD
ENDBRANCH   5   8
ENDBRANCH   1   2
BRANCH   1  13
ATOM     13  C   UNL     1      43.810   3.668  11.592  0.00  0.00    +0.000 C 
BRANCH  13  17
ATOM     14  C   UNL     1      47.067   5.870  13.423  0.00  0.00    +0.000 A 
ATOM     15  C   UNL     1      46.120   6.534  12.632  0.00  0.00    +0.000 A 
ATOM     16  C   UNL     1      45.074   5.834  12.027  0.00  0.00    +0.000 A 
ATOM     17  C   UNL     1      44.961   4.447  12.186  0.00  0.00    +0.000 A 
ATOM     18  C   UNL     1      45.902   3.784  12.989  0.00  0.00    +0.000 A 
ATOM     19  C   UNL     1      46.947   4.487  13.596  0.00  0.00    +0.000 A 
BRANCH  14  20
ATOM     20  C   UNL     1      48.196   6.635  14.063  0.00  0.00    +0.000 C 
BRANCH  20  21
ATOM     21  N   UNL     1      49.370   6.679  13.200  0.00  0.00    +0.000 NA
ATOM     22  H   UNL     1      49.442   5.803  12.687  0.00  0.00    +0.000 HD
ATOM     23  H   UNL     1      50.203   6.743  13.784  0.00  0.00    +0.000 HD
ENDBRANCH  20  21
ENDBRANCH  14  20
ENDBRANCH  13  17
ENDBRANCH   1  13
TORSDOF 6
ENDMDL
MODEL 3
REMARK VINA RESULT:    -7.408      1.546      1.800
REMARK INTER + INTRA:         -10.304
REMARK INTER:                  -9.753
REMARK INTRA:                  -0.551
REMARK UNBOUND:                -0.515
REMARK  Name = 
REMARK  6 active torsions:
REMARK  status: ('A' for Active; 'I' for Inactive)
REMARK    1  A    between atoms: N_1  and  C_2
REMARK    2  A    between atoms: C_2  and  C_3
REMARK    3  A    between atoms: C_6  and  C_7
REMARK    4  A    between atoms: C_7  and  O_8
REMARK    5  A    between atoms: O_8  and  C_9
REMARK    6  A    between atoms: C_12  and  C_13
REMARK                            x       y       z     vdW  Elec       q    Type
REMARK                         _______ _______ _______ _____ _____    ______ ____
ROOT
ATOM      1  O   UNL     1      43.967   4.027  11.372  0.00  0.00    +0.000 OA
ENDROOT
BRANCH   1   2
ATOM      2  C   UNL     1      44.982   4.634  12.056  0.00  0.00    +0.000 A 
ATOM      3  C   UNL     1      45.834   4.024  12.973  0.00  0.00    +0.000 A 
ATOM      4  C   UNL     1      46.829   4.777  13.596  0.00  0.00    +0.000 A 
ATOM      5  C   UNL     1      46.939   6.124  13.276  0.00  0.00    +0.000 A 
ATOM      6  N   UNL     1      46.127   6.759  12.388  0.00  0.00    +0.000 NA
ATOM      7  C   UNL     1      45.171   5.992  11.805  0.00  0.00    +0.000 A 
BRANCH   5   8
ATOM      8  C   UNL     1      48.003   6.947  13.930  0.00  0.00    +0.000 C 
ATOM      9  N   UNL     1      47.568   8.082  14.556  0.00  0.00    +0.000 N 
ATOM     10  O   UNL     1      49.188   6.635  13.909  0.00  0.00    +0.000 OA
ATOM     11  H   UNL     1      46.579   8.308  14.550  0.00  0.00    +0.000 HD
ATOM     12  H   UNL     1      48.233   8.687  15.014  0.00  0.00    +0.000 HD
ENDBRANCH   5   8
ENDBRANCH   1   2
BRANCH   1  13
ATOM     13  C   UNL     1      43.796   4.425  10.009  0.00  0.00    +0.000 C 
BRANCH  13  17
ATOM     14  C   UNL     1      46.655   2.318   7.520  0.00  0.00    +0.000 A 
ATOM     15  C   UNL     1      46.515   3.709   7.417  0.00  0.00    +0.000 A 
ATOM     16  C   UNL     1      45.590   4.397   8.204  0.00  0.00    +0.000 A 
ATOM     17  C   UNL     1      44.768   3.705   9.103  0.00  0.00    +0.000 A 
ATOM     18  C   UNL     1      44.916   2.314   9.216  0.00  0.00    +0.000 A 
ATOM     19  C   UNL     1      45.846   1.627   8.429  0.00  0.00    +0.000 A 
BRANCH  14  20
ATOM     20  C   UNL     1      47.651   1.586   6.660  0.00  0.00    +0.000 C 
BRANCH  20  21
ATOM     21  N   UNL     1      48.728   2.465   6.219  0.00  0.00    +0.000 NA
ATOM     22  H   UNL     1      49.189   2.051   5.412  0.00  0.00    +0.000 HD
ATOM     23  H   UNL     1      49.427   2.521   6.958  0.00  0.00    +0.000 HD
ENDBRANCH  20  21
ENDBRANCH  14  20
ENDBRANCH  13  17
ENDBRANCH   1  13
TORSDOF 6
ENDMDL
MODEL 4
REMARK VINA RESULT:    -7.276      2.774      6.827
REMARK INTER + INTRA:         -10.130
REMARK INTER:                  -9.681
REMARK INTRA:                  -0.449
REMARK UNBOUND:                -0.515
REMARK  Name = 
REMARK  6 active torsions:
REMARK  status: ('A' for Active; 'I' for Inactive)
REMARK    1  A    between atoms: N_1  and  C_2
REMARK    2  A    between atoms: C_2  and  C_3
REMARK    3  A    between atoms: C_6  and  C_7
REMARK    4  A    between atoms: C_7  and  O_8
REMARK    5  A    between atoms: O_8  and  C_9
REMARK    6  A    between atoms: C_12  and  C_13
REMARK                            x       y       z     vdW  Elec       q    Type
REMARK                         _______ _______ _______ _____ _____    ______ ____
ROOT
ATOM      1  O   UNL     1      43.650   3.250  10.234  0.00  0.00    +0.000 OA
ENDROOT
BRANCH   1   2
ATOM      2  C   UNL     1      44.581   2.986   9.271  0.00  0.00    +0.000 A 
ATOM      3  C   UNL     1      45.253   1.780   9.086  0.00  0.00    +0.000 A 
ATOM      4  C   UNL     1      46.182   1.661   8.053  0.00  0.00    +0.000 A 
ATOM      5  C   UNL     1      46.408   2.759   7.234  0.00  0.00    +0.000 A 
ATOM      6  N   UNL     1      45.776   3.955   7.381  0.00  0.00    +0.000 NA
ATOM      7  C   UNL     1      44.880   4.031   8.398  0.00  0.00    +0.000 A 
BRANCH   5   8
ATOM      8  C   UNL     1      47.398   2.648   6.117  0.00  0.00    +0.000 C 
ATOM      9  N   UNL     1      48.631   2.173   6.469  0.00  0.00    +0.000 N 
ATOM     10  O   UNL     1      47.131   2.963   4.964  0.00  0.00    +0.000 OA
ATOM     11  H   UNL     1      48.814   1.925   7.435  0.00  0.00    +0.000 HD
ATOM     12  H   UNL     1      49.349   2.078   5.766  0.00  0.00    +0.000 HD
ENDBRANCH   5   8
ENDBRANCH   1   2
BRANCH   1  13
ATOM     13  C   UNL     1      44.130   3.307  11.581  0.00  0.00    +0.000 C 
BRANCH  13  17
ATOM     14  C   UNL     1      45.396   7.352  12.502  0.00  0.00    +0.000 A 
ATOM     15  C   UNL     1      46.094   6.255  13.024  0.00  0.00    +0.000 A 
ATOM     16  C   UNL     1      45.689   4.948  12.744  0.00  0.00    +0.000 A 
ATOM     17  C   UNL     1      44.562   4.708  11.949  0.00  0.00    +0.000 A 
ATOM     18  C   UNL     1      43.870   5.806  11.415  0.00  0.00    +0.000 A 
ATOM     19  C   UNL     1      44.279   7.114  11.693  0.00  0.00    +0.000 A 
BRANCH  14  20
ATOM     20  C   UNL     1      45.837   8.757  12.818  0.00  0.00    +0.000 C 
BRANCH  20  21
ATOM     21  N   UNL     1      44.729   9.700  12.729  0.00  0.00    +0.000 NA
ATOM     22  H   UNL     1      44.552  10.097  13.649  0.00  0.00    +0.000 HD
ATOM     23  H   UNL     1      43.887   9.190  12.464  0.00  0.00    +0.000 HD
ENDBRANCH  20  21
ENDBRANCH  14  20
ENDBRANCH  13  17
ENDBRANCH   1  13
TORSDOF 6
ENDMDL
MODEL 5
REMARK VINA RESULT:    -6.142      3.320      7.755
REMARK INTER + INTRA:          -8.632
REMARK INTER:                  -8.270
REMARK INTRA:                  -0.361
REMARK UNBOUND:                -0.515
REMARK  Name = 
REMARK  6 active torsions:
REMARK  status: ('A' for Active; 'I' for Inactive)
REMARK    1  A    between atoms: N_1  and  C_2
REMARK    2  A    between atoms: C_2  and  C_3
REMARK    3  A    between atoms: C_6  and  C_7
REMARK    4  A    between atoms: C_7  and  O_8
REMARK    5  A    between atoms: O_8  and  C_9
REMARK    6  A    between atoms: C_12  and  C_13
REMARK                            x       y       z     vdW  Elec       q    Type
REMARK                         _______ _______ _______ _____ _____    ______ ____
ROOT
ATOM      1  O   UNL     1      47.889   5.235  15.000  0.00  0.00    +0.000 OA
ENDROOT
BRANCH   1   2
ATOM      2  C   UNL     1      46.977   4.905  14.038  0.00  0.00    +0.000 A 
ATOM      3  C   UNL     1      46.218   5.797  13.286  0.00  0.00    +0.000 A 
ATOM      4  C   UNL     1      45.322   5.309  12.336  0.00  0.00    +0.000 A 
ATOM      5  C   UNL     1      45.217   3.935  12.168  0.00  0.00    +0.000 A 
ATOM      6  N   UNL     1      45.938   3.028  12.883  0.00  0.00    +0.000 NA
ATOM      7  C   UNL     1      46.797   3.543  13.798  0.00  0.00    +0.000 A 
BRANCH   5   8
ATOM      8  C   UNL     1      44.264   3.392  11.150  0.00  0.00    +0.000 C 
ATOM      9  N   UNL     1      44.802   2.513  10.251  0.00  0.00    +0.000 N 
ATOM     10  O   UNL     1      43.082   3.710  11.114  0.00  0.00    +0.000 OA
ATOM     11  H   UNL     1      45.786   2.277  10.311  0.00  0.00    +0.000 HD
ATOM     12  H   UNL     1      44.218   2.112   9.533  0.00  0.00    +0.000 HD
ENDBRANCH   5   8
ENDBRANCH   1   2
BRANCH   1  13
ATOM     13  C   UNL     1      47.668   4.679  16.300  0.00  0.00    +0.000 C 
BRANCH  13  17
ATOM     14  C   UNL     1      51.199   2.501  17.563  0.00  0.00    +0.000 A 
ATOM     15  C   UNL     1      50.089   1.815  17.051  0.00  0.00    +0.000 A 
ATOM     16  C   UNL     1      48.942   2.505  16.652  0.00  0.00    +0.000 A 
ATOM     17  C   UNL     1      48.872   3.898  16.774  0.00  0.00    +0.000 A 
ATOM     18  C   UNL     1      49.987   4.586  17.274  0.00  0.00    +0.000 A 
ATOM     19  C   UNL     1      51.136   3.895  17.670  0.00  0.00    +0.000 A 
BRANCH  14  20
ATOM     20  C   UNL     1      52.428   1.746  17.997  0.00  0.00    +0.000 C 
BRANCH  20  21
ATOM     21  N   UNL     1      52.152   0.324  18.163  0.00  0.00    +0.000 NA
ATOM     22  H   UNL     1      51.478   0.029  17.460  0.00  0.00    +0.000 HD
ATOM     23  H   UNL     1      51.710   0.180  19.070  0.00  0.00    +0.000 HD
ENDBRANCH  20  21
ENDBRANCH  14  20
ENDBRANCH  13  17
ENDBRANCH   1  13
TORSDOF 6
ENDMDL
MODEL 6
REMARK VINA RESULT:    -6.064      2.027      2.556
REMARK INTER + INTRA:          -8.528
REMARK INTER:                  -8.154
REMARK INTRA:                  -0.374
REMARK UNBOUND:                -0.515
REMARK  Name = 
REMARK  6 active torsions:
REMARK  status: ('A' for Active; 'I' for Inactive)
REMARK    1  A    between atoms: N_1  and  C_2
REMARK    2  A    between atoms: C_2  and  C_3
REMARK    3  A    between atoms: C_6  and  C_7
REMARK    4  A    between atoms: C_7  and  O_8
REMARK    5  A    between atoms: O_8  and  C_9
REMARK    6  A    between atoms: C_12  and  C_13
REMARK                            x       y       z     vdW  Elec       q    Type
REMARK                         _______ _______ _______ _____ _____    ______ ____
ROOT
ATOM      1  O   UNL     1      45.210   4.031  13.273  0.00  0.00    +0.000 OA
ENDROOT
BRANCH   1   2
ATOM      2  C   UNL     1      46.220   4.840  13.710  0.00  0.00    +0.000 A 
ATOM      3  C   UNL     1      46.597   6.057  13.151  0.00  0.00    +0.000 A 
ATOM      4  C   UNL     1      47.654   6.775  13.710  0.00  0.00    +0.000 A 
ATOM      5  C   UNL     1      48.302   6.245  14.818  0.00  0.00    +0.000 A 
ATOM      6  N   UNL     1      47.966   5.058  15.395  0.00  0.00    +0.000 NA
ATOM      7  C   UNL     1      46.934   4.391  14.821  0.00  0.00    +0.000 A 
BRANCH   5   8
ATOM      8  C   UNL     1      49.435   7.002  15.435  0.00  0.00    +0.000 C 
ATOM      9  N   UNL     1      50.210   7.715  14.564  0.00  0.00    +0.000 N 
ATOM     10  O   UNL     1      49.663   6.986  16.639  0.00  0.00    +0.000 OA
ATOM     11  H   UNL     1      49.991   7.701  13.574  0.00  0.00    +0.000 HD
ATOM     12  H   UNL     1      50.996   8.245  14.911  0.00  0.00    +0.000 HD
ENDBRANCH   5   8
ENDBRANCH   1   2
BRANCH   1  13
ATOM     13  C   UNL     1      44.302   4.605  12.327  0.00  0.00    +0.000 C 
BRANCH  13  17
ATOM     14  C   UNL     1      45.502   3.484   8.313  0.00  0.00    +0.000 A 
ATOM     15  C   UNL     1      45.711   4.790   8.776  0.00  0.00    +0.000 A 
ATOM     16  C   UNL     1      45.318   5.166  10.063  0.00  0.00    +0.000 A 
ATOM     17  C   UNL     1      44.689   4.246  10.911  0.00  0.00    +0.000 A 
ATOM     18  C   UNL     1      44.492   2.935  10.453  0.00  0.00    +0.000 A 
ATOM     19  C   UNL     1      44.889   2.559   9.166  0.00  0.00    +0.000 A 
BRANCH  14  20
ATOM     20  C   UNL     1      45.923   3.092   6.921  0.00  0.00    +0.000 C 
BRANCH  20  21
ATOM     21  N   UNL     1      46.868   4.049   6.357  0.00  0.00    +0.000 NA
ATOM     22  H   UNL     1      47.155   3.731   5.434  0.00  0.00    +0.000 HD
ATOM     23  H   UNL     1      47.706   4.060   6.936  0.00  0.00    +0.000 HD
ENDBRANCH  20  21
ENDBRANCH  14  20
ENDBRANCH  13  17
ENDBRANCH   1  13
TORSDOF 6
ENDMDL
MODEL 7
REMARK VINA RESULT:    -5.583      2.690      4.702
REMARK INTER + INTRA:          -7.893
REMARK INTER:                  -7.586
REMARK INTRA:                  -0.307
REMARK UNBOUND:                -0.515
REMARK  Name = 
REMARK  6 active torsions:
REMARK  status: ('A' for Active; 'I' for Inactive)
REMARK    1  A    between atoms: N_1  and  C_2
REMARK    2  A    between atoms: C_2  and  C_3
REMARK    3  A    between atoms: C_6  and  C_7
REMARK    4  A    between atoms: C_7  and  O_8
REMARK    5  A    between atoms: O_8  and  C_9
REMARK    6  A    between atoms: C_12  and  C_13
REMARK                            x       y       z     vdW  Elec       q    Type
REMARK                         _______ _______ _______ _____ _____    ______ ____
ROOT
ATOM      1  O   UNL     1      47.340   4.201  14.497  0.00  0.00    +0.000 OA
ENDROOT
BRANCH   1   2
ATOM      2  C   UNL     1      47.652   4.276  15.825  0.00  0.00    +0.000 A 
ATOM      3  C   UNL     1      47.470   3.270  16.770  0.00  0.00    +0.000 A 
ATOM      4  C   UNL     1      47.838   3.494  18.096  0.00  0.00    +0.000 A 
ATOM      5  C   UNL     1      48.380   4.727  18.434  0.00  0.00    +0.000 A 
ATOM      6  N   UNL     1      48.572   5.739  17.543  0.00  0.00    +0.000 NA
ATOM      7  C   UNL     1      48.201   5.481  16.264  0.00  0.00    +0.000 A 
BRANCH   5   8
ATOM      8  C   UNL     1      48.785   4.986  19.851  0.00  0.00    +0.000 C 
ATOM      9  N   UNL     1      48.583   3.949  20.719  0.00  0.00    +0.000 N 
ATOM     10  O   UNL     1      49.263   6.052  20.217  0.00  0.00    +0.000 OA
ATOM     11  H   UNL     1      48.182   3.083  20.377  0.00  0.00    +0.000 HD
ATOM     12  H   UNL     1      48.829   4.057  21.692  0.00  0.00    +0.000 HD
ENDBRANCH   5   8
ENDBRANCH   1   2
BRANCH   1  13
ATOM     13  C   UNL     1      46.377   5.146  14.019  0.00  0.00    +0.000 C 
BRANCH  13  17
ATOM     14  C   UNL     1      45.021   4.294   9.989  0.00  0.00    +0.000 A 
ATOM     15  C   UNL     1      44.906   3.325  10.995  0.00  0.00    +0.000 A 
ATOM     16  C   UNL     1      45.350   3.584  12.293  0.00  0.00    +0.000 A 
ATOM     17  C   UNL     1      45.938   4.814  12.612  0.00  0.00    +0.000 A 
ATOM     18  C   UNL     1      46.042   5.789  11.608  0.00  0.00    +0.000 A 
ATOM     19  C   UNL     1      45.594   5.530  10.309  0.00  0.00    +0.000 A 
BRANCH  14  20
ATOM     20  C   UNL     1      44.546   4.001   8.590  0.00  0.00    +0.000 C 
BRANCH  20  21
ATOM     21  N   UNL     1      45.638   4.078   7.626  0.00  0.00    +0.000 NA
ATOM     22  H   UNL     1      45.280   3.862   6.698  0.00  0.00    +0.000 HD
ATOM     23  H   UNL     1      46.323   3.358   7.850  0.00  0.00    +0.000 HD
ENDBRANCH  20  21
ENDBRANCH  14  20
ENDBRANCH  13  17
ENDBRANCH   1  13
TORSDOF 6
ENDMDL
MODEL 8
REMARK VINA RESULT:    -5.379      3.846      8.302
REMARK INTER + INTRA:          -7.623
REMARK INTER:                  -7.205
REMARK INTRA:                  -0.418
REMARK UNBOUND:                -0.515
REMARK  Name = 
REMARK  6 active torsions:
REMARK  status: ('A' for Active; 'I' for Inactive)
REMARK    1  A    between atoms: N_1  and  C_2
REMARK    2  A    between atoms: C_2  and  C_3
REMARK    3  A    between atoms: C_6  and  C_7
REMARK    4  A    between atoms: C_7  and  O_8
REMARK    5  A    between atoms: O_8  and  C_9
REMARK    6  A    between atoms: C_12  and  C_13
REMARK                            x       y       z     vdW  Elec       q    Type
REMARK                         _______ _______ _______ _____ _____    ______ ____
ROOT
ATOM      1  O   UNL     1      48.233   5.528  13.919  0.00  0.00    +0.000 OA
ENDROOT
BRANCH   1   2
ATOM      2  C   UNL     1      47.015   5.423  13.308  0.00  0.00    +0.000 A 
ATOM      3  C   UNL     1      45.997   4.538  13.653  0.00  0.00    +0.000 A 
ATOM      4  C   UNL     1      44.803   4.547  12.933  0.00  0.00    +0.000 A 
ATOM      5  C   UNL     1      44.668   5.448  11.885  0.00  0.00    +0.000 A 
ATOM      6  N   UNL     1      45.638   6.328  11.513  0.00  0.00    +0.000 NA
ATOM      7  C   UNL     1      46.784   6.286  12.238  0.00  0.00    +0.000 A 
BRANCH   5   8
ATOM      8  C   UNL     1      43.392   5.476  11.103  0.00  0.00    +0.000 C 
ATOM      9  N   UNL     1      42.377   6.203  11.659  0.00  0.00    +0.000 N 
ATOM     10  O   UNL     1      43.257   4.887  10.037  0.00  0.00    +0.000 OA
ATOM     11  H   UNL     1      42.527   6.673  12.545  0.00  0.00    +0.000 HD
ATOM     12  H   UNL     1      41.486   6.260  11.188  0.00  0.00    +0.000 HD
ENDBRANCH   5   8
ENDBRANCH   1   2
BRANCH   1  13
ATOM     13  C   UNL     1      48.407   6.644  14.797  0.00  0.00    +0.000 C 
BRANCH  13  17
ATOM     14  C   UNL     1      49.156   5.326  18.859  0.00  0.00    +0.000 A 
ATOM     15  C   UNL     1      48.284   4.607  18.031  0.00  0.00    +0.000 A 
ATOM     16  C   UNL     1      48.026   5.028  16.725  0.00  0.00    +0.000 A 
ATOM     17  C   UNL     1      48.621   6.192  16.222  0.00  0.00    +0.000 A 
ATOM     18  C   UNL     1      49.505   6.905  17.047  0.00  0.00    +0.000 A 
ATOM     19  C   UNL     1      49.765   6.480  18.353  0.00  0.00    +0.000 A 
BRANCH  14  20
ATOM     20  C   UNL     1      49.421   4.866  20.269  0.00  0.00    +0.000 C 
BRANCH  20  21
ATOM     21  N   UNL     1      48.467   3.847  20.688  0.00  0.00    +0.000 NA
ATOM     22  H   UNL     1      47.776   3.713  19.953  0.00  0.00    +0.000 HD
ATOM     23  H   UNL     1      47.962   4.188  21.505  0.00  0.00    +0.000 HD
ENDBRANCH  20  21
ENDBRANCH  14  20
ENDBRANCH  13  17
ENDBRANCH   1  13
TORSDOF 6
ENDMDL
MODEL 9
REMARK VINA RESULT:    -5.362      3.543      7.959
REMARK INTER + INTRA:          -7.601
REMARK INTER:                  -7.287
REMARK INTRA:                  -0.314
REMARK UNBOUND:                -0.515
REMARK  Name = 
REMARK  6 active torsions:
REMARK  status: ('A' for Active; 'I' for Inactive)
REMARK    1  A    between atoms: N_1  and  C_2
REMARK    2  A    between atoms: C_2  and  C_3
REMARK    3  A    between atoms: C_6  and  C_7
REMARK    4  A    between atoms: C_7  and  O_8
REMARK    5  A    between atoms: O_8  and  C_9
REMARK    6  A    between atoms: C_12  and  C_13
REMARK                            x       y       z     vdW  Elec       q    Type
REMARK                         _______ _______ _______ _____ _____    ______ ____
ROOT
ATOM      1  O   UNL     1      47.447   3.518  14.579  0.00  0.00    +0.000 OA
ENDROOT
BRANCH   1   2
ATOM      2  C   UNL     1      46.508   3.968  13.694  0.00  0.00    +0.000 A 
ATOM      3  C   UNL     1      45.813   3.194  12.770  0.00  0.00    +0.000 A 
ATOM      4  C   UNL     1      44.880   3.799  11.928  0.00  0.00    +0.000 A 
ATOM      5  C   UNL     1      44.674   5.167  12.041  0.00  0.00    +0.000 A 
ATOM      6  N   UNL     1      45.334   5.961  12.928  0.00  0.00    +0.000 NA
ATOM      7  C   UNL     1      46.233   5.335  13.729  0.00  0.00    +0.000 A 
BRANCH   5   8
ATOM      8  C   UNL     1      43.674   5.833  11.149  0.00  0.00    +0.000 C 
ATOM      9  N   UNL     1      43.477   7.166  11.379  0.00  0.00    +0.000 N 
ATOM     10  O   UNL     1      43.067   5.232  10.271  0.00  0.00    +0.000 OA
ATOM     11  H   UNL     1      43.997   7.628  12.117  0.00  0.00    +0.000 HD
ATOM     12  H   UNL     1      42.812   7.678  10.817  0.00  0.00    +0.000 HD
ENDBRANCH   5   8
ENDBRANCH   1   2
BRANCH   1  13
ATOM     13  C   UNL     1      47.315   3.973  15.929  0.00  0.00    +0.000 C 
BRANCH  13  17
ATOM     14  C   UNL     1      51.061   3.806  18.107  0.00  0.00    +0.000 A 
ATOM     15  C   UNL     1      50.486   5.041  17.780  0.00  0.00    +0.000 A 
ATOM     16  C   UNL     1      49.286   5.108  17.069  0.00  0.00    +0.000 A 
ATOM     17  C   UNL     1      48.642   3.937  16.651  0.00  0.00    +0.000 A 
ATOM     18  C   UNL     1      49.210   2.700  16.989  0.00  0.00    +0.000 A 
ATOM     19  C   UNL     1      50.409   2.634  17.704  0.00  0.00    +0.000 A 
BRANCH  14  20
ATOM     20  C   UNL     1      52.360   3.747  18.867  0.00  0.00    +0.000 C 
BRANCH  20  21
ATOM     21  N   UNL     1      52.917   2.399  18.873  0.00  0.00    +0.000 NA
ATOM     22  H   UNL     1      52.915   2.041  19.826  0.00  0.00    +0.000 HD
ATOM     23  H   UNL     1      53.891   2.447  18.581  0.00  0.00    +0.000 HD
ENDBRANCH  20  21
ENDBRANCH  14  20
ENDBRANCH  13  17
ENDBRANCH   1  13
TORSDOF 6
ENDMDL
