MODEL 1
REMARK VINA RESULT:    -7.603      0.000      0.000
REMARK INTER + INTRA:          -9.816
REMARK INTER:                  -9.603
REMARK INTRA:                  -0.212
REMARK UNBOUND:                -0.212
REMARK  Name = 
REMARK  5 active torsions:
REMARK  status: ('A' for Active; 'I' for Inactive)
REMARK    1  A    between atoms: N_1  and  C_2
REMARK    2  A    between atoms: C_2  and  C_3
REMARK    3  A    between atoms: C_3  and  C_4
REMARK    4  A    between atoms: C_7  and  C_8
REMARK    5  A    between atoms: C_8  and  N_9
REMARK                            x       y       z     vdW  Elec       q    Type
REMARK                         _______ _______ _______ _____ _____    ______ ____
ROOT
ATOM      1  C   UNL     1      46.228   2.429   8.270  0.00  0.00    +0.000 C 
ATOM      2  C   UNL     1      44.973   1.757   8.849  0.00  0.00    +0.000 C 
ATOM      3  C   UNL     1      44.393   2.531  10.029  0.00  0.00    +0.000 C 
ATOM      4  C   UNL     1      44.092   3.996   9.674  0.00  0.00    +0.000 C 
ATOM      5  C   UNL     1      45.342   4.669   9.088  0.00  0.00    +0.000 C 
ATOM      6  C   UNL     1      45.922   3.889   7.906  0.00  0.00    +0.000 C 
ENDROOT
BRANCH   1   7
ATOM      7  C   UNL     1      46.742   1.604   7.070  0.00  0.00    +0.000 C 
BRANCH   7   8
ATOM      8  C   UNL     1      47.384   2.449   5.967  0.00  0.00    +0.000 C 
BRANCH   8   9
ATOM      9  N   UNL     1      48.546   1.761   5.416  0.00  0.00    +0.000 NA
ATOM     10  H   UNL     1      49.215   2.450   5.074  0.00  0.00    +0.000 HD
ATOM     11  H   UNL     1      48.265   1.212   4.603  0.00  0.00    +0.000 HD
ENDBRANCH   8   9
ENDBRANCH   7   8
ENDBRANCH   1   7
BRANCH   4  12
ATOM     12  C   UNL     1      43.582   4.796  10.892  0.00  0.00    +0.000 C 
BRANCH  12  13
ATOM     13  N   UNL     1      44.616   5.055  11.887  0.00  0.00    +0.000 N 
ATOM     14  C   UNL     1      45.232   4.071  12.618  0.00  0.00    +0.000 A 
ATOM     15  C   UNL     1      46.284   4.641  13.297  0.00  0.00    +0.000 A 
ATOM     16  C   UNL     1      46.286   6.029  13.000  0.00  0.00    +0.000 A 
ATOM     17  C   UNL     1      47.131   7.099  13.367  0.00  0.00    +0.000 A 
ATOM     18  C   UNL     1      46.853   8.387  12.898  0.00  0.00    +0.000 A 
ATOM     19  C   UNL     1      45.734   8.620  12.107  0.00  0.00    +0.000 A 
ATOM     20 CL   UNL     1      45.407  10.218  11.551  0.00  0.00    +0.000 Cl
ATOM     21  C   UNL     1      44.876   7.581  11.733  0.00  0.00    +0.000 A 
ATOM     22  C   UNL     1      45.192   6.281  12.167  0.00  0.00    +0.000 A 
ENDBRANCH  12  13
ENDBRANCH   4  12
TORSDOF 5
ENDMDL
MODEL 2
REMARK VINA RESULT:    -7.138      1.354      1.920
REMARK INTER + INTRA:          -9.228
REMARK INTER:                  -8.643
REMARK INTRA:                  -0.585
REMARK UNBOUND:                -0.212
REMARK  Name = 
REMARK  5 active torsions:
REMARK  status: ('A' for Active; 'I' for Inactive)
REMARK    1  A    between atoms: N_1  and  C_2
REMARK    2  A    between atoms: C_2  and  C_3
REMARK    3  A    between atoms: C_3  and  C_4
REMARK    4  A    between atoms: C_7  and  C_8
REMARK    5  A    between atoms: C_8  and  N_9
REMARK                            x       y       z     vdW  Elec       q    Type
REMARK                         _______ _______ _______ _____ _____    ______ ____
ROOT
ATOM      1  C   UNL     1      45.596   3.297   7.285  0.00  0.00    +0.000 C 
ATOM      2  C   UNL     1      46.527   4.426   7.756  0.00  0.00    +0.000 C 
ATOM      3  C   UNL     1      45.915   5.245   8.889  0.00  0.00    +0.000 C 
ATOM      4  C   UNL     1      45.500   4.370  10.083  0.00  0.00    +0.000 C 
ATOM      5  C   UNL     1      44.576   3.237   9.614  0.00  0.00    +0.000 C 
ATOM      6  C   UNL     1      45.191   2.418   8.476  0.00  0.00    +0.000 C 
ENDROOT
BRANCH   1   7
ATOM      7  C   UNL     1      46.290   2.500   6.158  0.00  0.00    +0.000 C 
BRANCH   7   8
ATOM      8  C   UNL     1      47.510   1.703   6.624  0.00  0.00    +0.000 C 
BRANCH   8   9
ATOM      9  N   UNL     1      48.604   1.851   5.671  0.00  0.00    +0.000 NA
ATOM     10  H   UNL     1      48.353   2.550   4.974  0.00  0.00    +0.000 HD
ATOM     11  H   UNL     1      48.735   0.977   5.162  0.00  0.00    +0.000 HD
ENDBRANCH   8   9
ENDBRANCH   7   8
ENDBRANCH   1   7
BRANCH   4  12
ATOM     12  C   UNL     1      44.807   5.193  11.191  0.00  0.00    +0.000 C 
BRANCH  12  13
ATOM     13  N   UNL     1      45.609   5.322  12.402  0.00  0.00    +0.000 N 
ATOM     14  C   UNL     1      45.540   4.446  13.456  0.00  0.00    +0.000 A 
ATOM     15  C   UNL     1      46.566   4.744  14.324  0.00  0.00    +0.000 A 
ATOM     16  C   UNL     1      47.261   5.865  13.799  0.00  0.00    +0.000 A 
ATOM     17  C   UNL     1      48.400   6.585  14.220  0.00  0.00    +0.000 A 
ATOM     18  C   UNL     1      48.845   7.675  13.464  0.00  0.00    +0.000 A 
ATOM     19  C   UNL     1      48.149   8.069  12.328  0.00  0.00    +0.000 A 
ATOM     20 CL   UNL     1      48.710   9.422  11.418  0.00  0.00    +0.000 Cl
ATOM     21  C   UNL     1      47.014   7.380  11.890  0.00  0.00    +0.000 A 
ATOM     22  C   UNL     1      46.605   6.255  12.628  0.00  0.00    +0.000 A 
ENDBRANCH  12  13
ENDBRANCH   4  12
TORSDOF 5
ENDMDL
MODEL 3
REMARK VINA RESULT:    -7.075      1.970      2.673
REMARK INTER + INTRA:          -9.149
REMARK INTER:                  -8.904
REMARK INTRA:                  -0.245
REMARK UNBOUND:                -0.212
REMARK  Name = 
REMARK  5 active torsions:
REMARK  status: ('A' for Active; 'I' for Inactive)
REMARK    1  A    between atoms: N_1  and  C_2
REMARK    2  A    between atoms: C_2  and  C_3
REMARK    3  A    between atoms: C_3  and  C_4
REMARK    4  A    between atoms: C_7  and  C_8
REMARK    5  A    between atoms: C_8  and  N_9
REMARK                            x       y       z     vdW  Elec       q    Type
REMARK                         _______ _______ _______ _____ _____    ______ ____
ROOT
ATOM      1  C   UNL     1      46.111   2.793   8.282  0.00  0.00    +0.000 C 
ATOM      2  C   UNL     1      44.857   2.139   8.885  0.00  0.00    +0.000 C 
ATOM      3  C   UNL     1      44.385   2.851  10.149  0.00  0.00    +0.000 C 
ATOM      4  C   UNL     1      44.139   4.350   9.917  0.00  0.00    +0.000 C 
ATOM      5  C   UNL     1      45.386   5.005   9.306  0.00  0.00    +0.000 C 
ATOM      6  C   UNL     1      45.859   4.288   8.040  0.00  0.00    +0.000 C 
ENDROOT
BRANCH   1   7
ATOM      7  C   UNL     1      46.514   2.035   6.998  0.00  0.00    +0.000 C 
BRANCH   7   8
ATOM      8  C   UNL     1      48.016   1.764   6.884  0.00  0.00    +0.000 C 
BRANCH   8   9
ATOM      9  N   UNL     1      48.441   1.852   5.492  0.00  0.00    +0.000 NA
ATOM     10  H   UNL     1      48.232   0.974   5.019  0.00  0.00    +0.000 HD
ATOM     11  H   UNL     1      49.454   1.962   5.449  0.00  0.00    +0.000 HD
ENDBRANCH   8   9
ENDBRANCH   7   8
ENDBRANCH   1   7
BRANCH   4  12
ATOM     12  C   UNL     1      43.740   5.081  11.217  0.00  0.00    +0.000 C 
BRANCH  12  13
ATOM     13  N   UNL     1      44.750   6.022  11.685  0.00  0.00    +0.000 N 
ATOM     14  C   UNL     1      44.786   7.344  11.320  0.00  0.00    +0.000 A 
ATOM     15  C   UNL     1      45.729   7.975  12.098  0.00  0.00    +0.000 A 
ATOM     16  C   UNL     1      46.316   6.995  12.941  0.00  0.00    +0.000 A 
ATOM     17  C   UNL     1      47.294   7.049  13.957  0.00  0.00    +0.000 A 
ATOM     18  C   UNL     1      47.668   5.874  14.617  0.00  0.00    +0.000 A 
ATOM     19  C   UNL     1      47.109   4.656  14.250  0.00  0.00    +0.000 A 
ATOM     20 CL   UNL     1      47.594   3.219  15.070  0.00  0.00    +0.000 Cl
ATOM     21  C   UNL     1      46.143   4.570  13.242  0.00  0.00    +0.000 A 
ATOM     22  C   UNL     1      45.736   5.764  12.621  0.00  0.00    +0.000 A 
ENDBRANCH  12  13
ENDBRANCH   4  12
TORSDOF 5
ENDMDL
MODEL 4
REMARK VINA RESULT:    -6.651      1.572      2.531
REMARK INTER + INTRA:          -8.614
REMARK INTER:                  -8.293
REMARK INTRA:                  -0.321
REMARK UNBOUND:                -0.212
REMARK  Name = 
REMARK  5 active torsions:
REMARK  status: ('A' for Active; 'I' for Inactive)
REMARK    1  A    between atoms: N_1  and  C_2
REMARK    2  A    between atoms: C_2  and  C_3
REMARK    3  A    between atoms: C_3  and  C_4
REMARK    4  A    between atoms: C_7  and  C_8
REMARK    5  A    between atoms: C_8  and  N_9
REMARK                            x       y       z     vdW  Elec       q    Type
REMARK                         _______ _______ _______ _____ _____    ______ ____
ROOT
ATOM      1  C   UNL     1      45.517   3.153   7.507  0.00  0.00    +0.000 C 
ATOM      2  C   UNL     1      46.253   4.405   8.010  0.00  0.00    +0.000 C 
ATOM      3  C   UNL     1      45.552   5.048   9.203  0.00  0.00    +0.000 C 
ATOM      4  C   UNL     1      45.343   4.057  10.360  0.00  0.00    +0.000 C 
ATOM      5  C   UNL     1      44.615   2.802   9.859  0.00  0.00    +0.000 C 
ATOM      6  C   UNL     1      45.319   2.160   8.661  0.00  0.00    +0.000 C 
ENDROOT
BRANCH   1   7
ATOM      7  C   UNL     1      46.295   2.546   6.319  0.00  0.00    +0.000 C 
BRANCH   7   8
ATOM      8  C   UNL     1      47.503   1.705   6.734  0.00  0.00    +0.000 C 
BRANCH   8   9
ATOM      9  N   UNL     1      48.574   1.839   5.753  0.00  0.00    +0.000 NA
ATOM     10  H   UNL     1      48.986   0.923   5.576  0.00  0.00    +0.000 HD
ATOM     11  H   UNL     1      49.322   2.415   6.138  0.00  0.00    +0.000 HD
ENDBRANCH   8   9
ENDBRANCH   7   8
ENDBRANCH   1   7
BRANCH   4  12
ATOM     12  C   UNL     1      44.561   4.690  11.532  0.00  0.00    +0.000 C 
BRANCH  12  13
ATOM     13  N   UNL     1      44.674   6.143  11.585  0.00  0.00    +0.000 N 
ATOM     14  C   UNL     1      43.709   6.998  11.116  0.00  0.00    +0.000 A 
ATOM     15  C   UNL     1      44.044   8.273  11.510  0.00  0.00    +0.000 A 
ATOM     16  C   UNL     1      45.277   8.197  12.210  0.00  0.00    +0.000 A 
ATOM     17  C   UNL     1      46.079   9.154  12.867  0.00  0.00    +0.000 A 
ATOM     18  C   UNL     1      47.273   8.751  13.476  0.00  0.00    +0.000 A 
ATOM     19  C   UNL     1      47.683   7.425  13.402  0.00  0.00    +0.000 A 
ATOM     20 CL   UNL     1      49.164   6.955  14.151  0.00  0.00    +0.000 Cl
ATOM     21  C   UNL     1      46.912   6.457  12.753  0.00  0.00    +0.000 A 
ATOM     22  C   UNL     1      45.689   6.862  12.189  0.00  0.00    +0.000 A 
ENDBRANCH  12  13
ENDBRANCH   4  12
TORSDOF 5
ENDMDL
MODEL 5
REMARK VINA RESULT:    -6.555      2.798      6.816
REMARK INTER + INTRA:          -8.492
REMARK INTER:                  -8.008
REMARK INTRA:                  -0.484
REMARK UNBOUND:                -0.212
REMARK  Name = 
REMARK  5 active torsions:
REMARK  status: ('A' for Active; 'I' for Inactive)
REMARK    1  A    between atoms: N_1  and  C_2
REMARK    2  A    between atoms: C_2  and  C_3
REMARK    3  A    between atoms: C_3  and  C_4
REMARK    4  A    between atoms: C_7  and  C_8
REMARK    5  A    between atoms: C_8  and  N_9
REMARK                            x       y       z     vdW  Elec       q    Type
REMARK                         _______ _______ _______ _____ _____    ______ ____
ROOT
ATOM      1  C   UNL     1      47.273   8.487  13.630  0.00  0.00    +0.000 C 
ATOM      2  C   UNL     1      47.400   6.992  13.294  0.00  0.00    +0.000 C 
ATOM      3  C   UNL     1      46.069   6.378  12.872  0.00  0.00    +0.000 C 
ATOM      4  C   UNL     1      45.426   7.132  11.696  0.00  0.00    +0.000 C 
ATOM      5  C   UNL     1      45.304   8.627  12.026  0.00  0.00    +0.000 C 
ATOM      6  C   UNL     1      46.641   9.239  12.451  0.00  0.00    +0.000 C 
ENDROOT
BRANCH   1   7
ATOM      7  C   UNL     1      48.660   9.041  14.024  0.00  0.00    +0.000 C 
BRANCH   7   8
ATOM      8  C   UNL     1      48.842   9.239  15.530  0.00  0.00    +0.000 C 
BRANCH   8   9
ATOM      9  N   UNL     1      47.545   9.262  16.197  0.00  0.00    +0.000 NA
ATOM     10  H   UNL     1      46.816   9.025  15.526  0.00  0.00    +0.000 HD
ATOM     11  H   UNL     1      47.340  10.210  16.515  0.00  0.00    +0.000 HD
ENDBRANCH   8   9
ENDBRANCH   7   8
ENDBRANCH   1   7
BRANCH   4  12
ATOM     12  C   UNL     1      44.041   6.557  11.327  0.00  0.00    +0.000 C 
BRANCH  12  13
ATOM     13  N   UNL     1      44.020   5.101  11.251  0.00  0.00    +0.000 N 
ATOM     14  C   UNL     1      43.336   4.304  12.134  0.00  0.00    +0.000 A 
ATOM     15  C   UNL     1      43.362   3.016  11.650  0.00  0.00    +0.000 A 
ATOM     16  C   UNL     1      44.121   3.022  10.450  0.00  0.00    +0.000 A 
ATOM     17  C   UNL     1      44.455   2.025   9.509  0.00  0.00    +0.000 A 
ATOM     18  C   UNL     1      45.244   2.359   8.402  0.00  0.00    +0.000 A 
ATOM     19  C   UNL     1      45.727   3.653   8.252  0.00  0.00    +0.000 A 
ATOM     20 CL   UNL     1      46.706   4.038   6.886  0.00  0.00    +0.000 Cl
ATOM     21  C   UNL     1      45.418   4.660   9.172  0.00  0.00    +0.000 A 
ATOM     22  C   UNL     1      44.581   4.327  10.252  0.00  0.00    +0.000 A 
ENDBRANCH  12  13
ENDBRANCH   4  12
TORSDOF 5
ENDMDL
MODEL 6
REMARK VINA RESULT:    -6.396      2.790      6.532
REMARK INTER + INTRA:          -8.291
REMARK INTER:                  -7.877
REMARK INTRA:                  -0.414
REMARK UNBOUND:                -0.212
REMARK  Name = 
REMARK  5 active torsions:
REMARK  status: ('A' for Active; 'I' for Inactive)
REMARK    1  A    between atoms: N_1  and  C_2
REMARK    2  A    between atoms: C_2  and  C_3
REMARK    3  A    between atoms: C_3  and  C_4
REMARK    4  A    between atoms: C_7  and  C_8
REMARK    5  A    between atoms: C_8  and  N_9
REMARK                            x       y       z     vdW  Elec       q    Type
REMARK                         _______ _______ _______ _____ _____    ______ ____
ROOT
ATOM      1  C   UNL     1      47.828   7.992  13.237  0.00  0.00    +0.000 C 
ATOM      2  C   UNL     1      46.548   8.839  13.323  0.00  0.00    +0.000 C 
ATOM      3  C   UNL     1      45.487   8.386  12.325  0.00  0.00    +0.000 C 
ATOM      4  C   UNL     1      45.144   6.895  12.475  0.00  0.00    +0.000 C 
ATOM      5  C   UNL     1      46.422   6.047  12.397  0.00  0.00    +0.000 C 
ATOM      6  C   UNL     1      47.486   6.504  13.397  0.00  0.00    +0.000 C 
ENDROOT
BRANCH   1   7
ATOM      7  C   UNL     1      48.843   8.493  14.288  0.00  0.00    +0.000 C 
BRANCH   7   8
ATOM      8  C   UNL     1      50.233   8.782  13.717  0.00  0.00    +0.000 C 
BRANCH   8   9
ATOM      9  N   UNL     1      51.166   7.728  14.098  0.00  0.00    +0.000 NA
ATOM     10  H   UNL     1      51.752   8.057  14.865  0.00  0.00    +0.000 HD
ATOM     11  H   UNL     1      51.798   7.532  13.322  0.00  0.00    +0.000 HD
ENDBRANCH   8   9
ENDBRANCH   7   8
ENDBRANCH   1   7
BRANCH   4  12
ATOM     12  C   UNL     1      44.130   6.423  11.411  0.00  0.00    +0.000 C 
BRANCH  12  13
ATOM     13  N   UNL     1      44.067   4.973  11.274  0.00  0.00    +0.000 N 
ATOM     14  C   UNL     1      43.372   4.158  12.132  0.00  0.00    +0.000 A 
ATOM     15  C   UNL     1      43.354   2.892  11.595  0.00  0.00    +0.000 A 
ATOM     16  C   UNL     1      44.097   2.928  10.385  0.00  0.00    +0.000 A 
ATOM     17  C   UNL     1      44.389   1.963   9.398  0.00  0.00    +0.000 A 
ATOM     18  C   UNL     1      45.173   2.321   8.295  0.00  0.00    +0.000 A 
ATOM     19  C   UNL     1      45.690   3.607   8.192  0.00  0.00    +0.000 A 
ATOM     20 CL   UNL     1      46.662   4.021   6.829  0.00  0.00    +0.000 Cl
ATOM     21  C   UNL     1      45.423   4.582   9.157  0.00  0.00    +0.000 A 
ATOM     22  C   UNL     1      44.592   4.226  10.235  0.00  0.00    +0.000 A 
ENDBRANCH  12  13
ENDBRANCH   4  12
TORSDOF 5
ENDMDL
MODEL 7
REMARK VINA RESULT:    -6.279      3.119      4.258
REMARK INTER + INTRA:          -8.143
REMARK INTER:                  -7.663
REMARK INTRA:                  -0.480
REMARK UNBOUND:                -0.212
REMARK  Name = 
REMARK  5 active torsions:
REMARK  status: ('A' for Active; 'I' for Inactive)
REMARK    1  A    between atoms: N_1  and  C_2
REMARK    2  A    between atoms: C_2  and  C_3
REMARK    3  A    between atoms: C_3  and  C_4
REMARK    4  A    between atoms: C_7  and  C_8
REMARK    5  A    between atoms: C_8  and  N_9
REMARK                            x       y       z     vdW  Elec       q    Type
REMARK                         _______ _______ _______ _____ _____    ______ ____
ROOT
ATOM      1  C   UNL     1      44.737   3.970   9.069  0.00  0.00    +0.000 C 
ATOM      2  C   UNL     1      45.748   5.123   9.184  0.00  0.00    +0.000 C 
ATOM      3  C   UNL     1      45.648   5.848  10.523  0.00  0.00    +0.000 C 
ATOM      4  C   UNL     1      45.800   4.891  11.717  0.00  0.00    +0.000 C 
ATOM      5  C   UNL     1      44.797   3.734  11.600  0.00  0.00    +0.000 C 
ATOM      6  C   UNL     1      44.897   3.010  10.255  0.00  0.00    +0.000 C 
ENDROOT
BRANCH   1   7
ATOM      7  C   UNL     1      44.913   3.273   7.702  0.00  0.00    +0.000 C 
BRANCH   7   8
ATOM      8  C   UNL     1      46.330   3.374   7.133  0.00  0.00    +0.000 C 
BRANCH   8   9
ATOM      9  N   UNL     1      47.052   2.126   7.351  0.00  0.00    +0.000 NA
ATOM     10  H   UNL     1      46.870   1.791   8.296  0.00  0.00    +0.000 HD
ATOM     11  H   UNL     1      48.057   2.298   7.301  0.00  0.00    +0.000 HD
ENDBRANCH   8   9
ENDBRANCH   7   8
ENDBRANCH   1   7
BRANCH   4  12
ATOM     12  C   UNL     1      45.617   5.616  13.068  0.00  0.00    +0.000 C 
BRANCH  12  13
ATOM     13  N   UNL     1      46.876   6.016  13.685  0.00  0.00    +0.000 N 
ATOM     14  C   UNL     1      47.618   7.093  13.271  0.00  0.00    +0.000 A 
ATOM     15  C   UNL     1      48.618   7.300  14.192  0.00  0.00    +0.000 A 
ATOM     16  C   UNL     1      48.506   6.289  15.183  0.00  0.00    +0.000 A 
ATOM     17  C   UNL     1      49.214   6.014  16.372  0.00  0.00    +0.000 A 
ATOM     18  C   UNL     1      48.851   4.909  17.150  0.00  0.00    +0.000 A 
ATOM     19  C   UNL     1      47.825   4.068  16.736  0.00  0.00    +0.000 A 
ATOM     20 CL   UNL     1      47.403   2.706  17.706  0.00  0.00    +0.000 Cl
ATOM     21  C   UNL     1      47.110   4.312  15.559  0.00  0.00    +0.000 A 
ATOM     22  C   UNL     1      47.449   5.454  14.811  0.00  0.00    +0.000 A 
ENDBRANCH  12  13
ENDBRANCH   4  12
TORSDOF 5
ENDMDL
MODEL 8
REMARK VINA RESULT:    -5.659      4.348      6.398
REMARK INTER + INTRA:          -7.360
REMARK INTER:                  -6.750
REMARK INTRA:                  -0.610
REMARK UNBOUND:                -0.212
REMARK  Name = 
REMARK  5 active torsions:
REMARK  status: ('A' for Active; 'I' for Inactive)
REMARK    1  A    between atoms: N_1  and  C_2
REMARK    2  A    between atoms: C_2  and  C_3
REMARK    3  A    between atoms: C_3  and  C_4
REMARK    4  A    between atoms: C_7  and  C_8
REMARK    5  A    between atoms: C_8  and  N_9
REMARK                            x       y       z     vdW  Elec       q    Type
REMARK                         _______ _______ _______ _____ _____    ______ ____
ROOT
ATOM      1  C   UNL     1      45.152   5.064  11.548  0.00  0.00    +0.000 C 
ATOM      2  C   UNL     1      45.256   4.775  13.054  0.00  0.00    +0.000 C 
ATOM      3  C   UNL     1      46.662   5.017  13.594  0.00  0.00    +0.000 C 
ATOM      4  C   UNL     1      47.165   6.438  13.293  0.00  0.00    +0.000 C 
ATOM      5  C   UNL     1      47.055   6.733  11.789  0.00  0.00    +0.000 C 
ATOM      6  C   UNL     1      45.644   6.487  11.250  0.00  0.00    +0.000 C 
ENDROOT
BRANCH   1   7
ATOM      7  C   UNL     1      43.700   4.819  11.080  0.00  0.00    +0.000 C 
BRANCH   7   8
ATOM      8  C   UNL     1      42.646   5.140  12.141  0.00  0.00    +0.000 C 
BRANCH   8   9
ATOM      9  N   UNL     1      41.958   6.383  11.811  0.00  0.00    +0.000 NA
ATOM     10  H   UNL     1      41.052   6.168  11.399  0.00  0.00    +0.000 HD
ATOM     11  H   UNL     1      42.483   6.885  11.095  0.00  0.00    +0.000 HD
ENDBRANCH   8   9
ENDBRANCH   7   8
ENDBRANCH   1   7
BRANCH   4  12
ATOM     12  C   UNL     1      48.618   6.652  13.769  0.00  0.00    +0.000 C 
BRANCH  12  13
ATOM     13  N   UNL     1      48.710   7.267  15.088  0.00  0.00    +0.000 N 
ATOM     14  C   UNL     1      48.751   8.623  15.293  0.00  0.00    +0.000 A 
ATOM     15  C   UNL     1      48.627   8.852  16.644  0.00  0.00    +0.000 A 
ATOM     16  C   UNL     1      48.547   7.589  17.289  0.00  0.00    +0.000 A 
ATOM     17  C   UNL     1      48.377   7.196  18.633  0.00  0.00    +0.000 A 
ATOM     18  C   UNL     1      48.341   5.834  18.953  0.00  0.00    +0.000 A 
ATOM     19  C   UNL     1      48.509   4.876  17.960  0.00  0.00    +0.000 A 
ATOM     20 CL   UNL     1      48.472   3.205  18.380  0.00  0.00    +0.000 Cl
ATOM     21  C   UNL     1      48.686   5.237  16.621  0.00  0.00    +0.000 A 
ATOM     22  C   UNL     1      48.668   6.606  16.302  0.00  0.00    +0.000 A 
ENDBRANCH  12  13
ENDBRANCH   4  12
TORSDOF 5
ENDMDL
MODEL 9
REMARK VINA RESULT:    -5.442      2.499      3.970
REMARK INTER + INTRA:          -7.086
REMARK INTER:                  -6.617
REMARK INTRA:                  -0.469
REMARK UNBOUND:                -0.212
REMARK  Name = 
REMARK  5 active torsions:
REMARK  status: ('A' for Active; 'I' for Inactive)
REMARK    1  A    between atoms: N_1  and  C_2
REMARK    2  A    between atoms: C_2  and  C_3
REMARK    3  A    between atoms: C_3  and  C_4
REMARK    4  A    between atoms: C_7  and  C_8
REMARK    5  A    between atoms: C_8  and  N_9
REMARK                            x       y       z     vdW  Elec       q    Type
REMARK                         _______ _______ _______ _____ _____    ______ ____
ROOT
ATOM      1  C   UNL     1      45.259   3.521  10.435  0.00  0.00    +0.000 C 
ATOM      2  C   UNL     1      44.759   3.429  11.886  0.00  0.00    +0.000 C 
ATOM      3  C   UNL     1      45.479   4.408  12.809  0.00  0.00    +0.000 C 
ATOM      4  C   UNL     1      45.384   5.859  12.308  0.00  0.00    +0.000 C 
ATOM      5  C   UNL     1      45.874   5.953  10.856  0.00  0.00    +0.000 C 
ATOM      6  C   UNL     1      45.153   4.968   9.933  0.00  0.00    +0.000 C 
ENDROOT
BRANCH   1   7
ATOM      7  C   UNL     1      44.471   2.522   9.560  0.00  0.00    +0.000 C 
BRANCH   7   8
ATOM      8  C   UNL     1      44.991   2.412   8.125  0.00  0.00    +0.000 C 
BRANCH   8   9
ATOM      9  N   UNL     1      46.340   1.859   8.118  0.00  0.00    +0.000 NA
ATOM     10  H   UNL     1      46.916   2.365   8.789  0.00  0.00    +0.000 HD
ATOM     11  H   UNL     1      46.769   2.012   7.205  0.00  0.00    +0.000 HD
ENDBRANCH   8   9
ENDBRANCH   7   8
ENDBRANCH   1   7
BRANCH   4  12
ATOM     12  C   UNL     1      46.182   6.834  13.201  0.00  0.00    +0.000 C 
BRANCH  12  13
ATOM     13  N   UNL     1      46.394   8.139  12.587  0.00  0.00    +0.000 N 
ATOM     14  C   UNL     1      45.422   9.103  12.496  0.00  0.00    +0.000 A 
ATOM     15  C   UNL     1      46.015  10.264  12.056  0.00  0.00    +0.000 A 
ATOM     16  C   UNL     1      47.390   9.988  11.835  0.00  0.00    +0.000 A 
ATOM     17  C   UNL     1      48.485  10.779  11.426  0.00  0.00    +0.000 A 
ATOM     18  C   UNL     1      49.748  10.192  11.296  0.00  0.00    +0.000 A 
ATOM     19  C   UNL     1      49.917   8.833  11.532  0.00  0.00    +0.000 A 
ATOM     20 CL   UNL     1      51.481   8.130  11.354  0.00  0.00    +0.000 Cl
ATOM     21  C   UNL     1      48.849   8.023  11.931  0.00  0.00    +0.000 A 
ATOM     22  C   UNL     1      47.595   8.632  12.109  0.00  0.00    +0.000 A 
ENDBRANCH  12  13
ENDBRANCH   4  12
TORSDOF 5
ENDMDL
