MODEL 1
REMARK VINA RESULT:    -9.531      0.000      0.000
REMARK INTER + INTRA:         -13.400
REMARK INTER:                 -12.317
REMARK INTRA:                  -1.083
REMARK UNBOUND:                -1.083
REMARK  Name = 
REMARK  5 active torsions:
REMARK  status: ('A' for Active; 'I' for Inactive)
REMARK    1  A    between atoms: C_2  and  C_4
REMARK    2  A    between atoms: N_8  and  C_9
REMARK    3  A    between atoms: C_9  and  C_10
REMARK    4  A    between atoms: C_10  and  C_13
REMARK    5  A    between atoms: C_17  and  C_18
REMARK                            x       y       z     vdW  Elec       q    Type
REMARK                         _______ _______ _______ _____ _____    ______ ____
ROOT
ATOM      1  C   UNL     1      43.254   5.736  11.916  0.00  0.00    +0.000 C 
ATOM      2  F   UNL     1      42.876   6.966  11.460  0.00  0.00    +0.000 F 
ATOM      3  F   UNL     1      42.310   5.387  12.841  0.00  0.00    +0.000 F 
ENDROOT
BRANCH   1   4
ATOM      4  C   UNL     1      44.654   5.750  12.505  0.00  0.00    +0.000 A 
ATOM      5  C   UNL     1      45.110   4.666  13.266  0.00  0.00    +0.000 A 
ATOM      6  C   UNL     1      46.406   4.661  13.769  0.00  0.00    +0.000 A 
ATOM      7  C   UNL     1      47.268   5.726  13.497  0.00  0.00    +0.000 A 
ATOM      8  C   UNL     1      46.869   6.813  12.696  0.00  0.00    +0.000 A 
ATOM      9  C   UNL     1      45.537   6.815  12.236  0.00  0.00    +0.000 A 
BRANCH   8  10
ATOM     10  C   UNL     1      47.835   7.861  12.285  0.00  0.00    +0.000 A 
ATOM     11  C   UNL     1      49.164   7.523  11.958  0.00  0.00    +0.000 A 
ATOM     12  C   UNL     1      50.072   8.477  11.486  0.00  0.00    +0.000 A 
ATOM     13  C   UNL     1      49.667   9.795  11.330  0.00  0.00    +0.000 A 
ATOM     14 CL   UNL     1      50.768  10.962  10.710  0.00  0.00    +0.000 Cl
ATOM     15  C   UNL     1      48.370  10.167  11.660  0.00  0.00    +0.000 A 
ATOM     16  C   UNL     1      47.465   9.211  12.145  0.00  0.00    +0.000 A 
ENDBRANCH   8  10
ENDBRANCH   1   4
BRANCH   1  17
ATOM     17  C   UNL     1      43.194   4.727  10.741  0.00  0.00    +0.000 C 
BRANCH  17  22
ATOM     18  C   UNL     1      46.464   2.230   7.658  0.00  0.00    +0.000 A 
ATOM     19  C   UNL     1      45.692   1.790   8.729  0.00  0.00    +0.000 A 
ATOM     20  C   UNL     1      44.896   2.709   9.412  0.00  0.00    +0.000 A 
ATOM     21  C   UNL     1      44.886   4.050   9.026  0.00  0.00    +0.000 A 
ATOM     22  N   UNL     1      44.137   5.002   9.661  0.00  0.00    +0.000 N 
ATOM     23  N   UNL     1      45.637   4.482   7.998  0.00  0.00    +0.000 NA
ATOM     24  C   UNL     1      46.416   3.575   7.344  0.00  0.00    +0.000 A 
ATOM     25  H   UNL     1      44.202   5.933   9.263  0.00  0.00    +0.000 HD
BRANCH  18  27
ATOM     26  N   UNL     1      48.401   1.894   6.232  0.00  0.00    +0.000 N 
ATOM     27  C   UNL     1      47.338   1.329   6.881  0.00  0.00    +0.000 C 
ATOM     28  O   UNL     1      47.142   0.122   6.842  0.00  0.00    +0.000 OA
ATOM     29  H   UNL     1      49.048   1.253   5.791  0.00  0.00    +0.000 HD
ATOM     30  H   UNL     1      48.733   2.825   6.437  0.00  0.00    +0.000 HD
ENDBRANCH  18  27
ENDBRANCH  17  22
ENDBRANCH   1  17
TORSDOF 5
ENDMDL
MODEL 2
REMARK VINA RESULT:    -9.433      2.910      4.090
REMARK INTER + INTRA:         -13.273
REMARK INTER:                 -12.146
REMARK INTRA:                  -1.127
REMARK UNBOUND:                -1.083
REMARK  Name = 
REMARK  5 active torsions:
REMARK  status: ('A' for Active; 'I' for Inactive)
REMARK    1  A    between atoms: C_2  and  C_4
REMARK    2  A    between atoms: N_8  and  C_9
REMARK    3  A    between atoms: C_9  and  C_10
REMARK    4  A    between atoms: C_10  and  C_13
REMARK    5  A    between atoms: C_17  and  C_18
REMARK                            x       y       z     vdW  Elec       q    Type
REMARK                         _______ _______ _______ _____ _____    ______ ____
ROOT
ATOM      1  C   UNL     1      43.594   4.615  12.466  0.00  0.00    +0.000 C 
ATOM      2  F   UNL     1      42.662   5.497  12.933  0.00  0.00    +0.000 F 
ATOM      3  F   UNL     1      43.363   3.451  13.145  0.00  0.00    +0.000 F 
ENDROOT
BRANCH   1   4
ATOM      4  C   UNL     1      45.012   5.122  12.666  0.00  0.00    +0.000 A 
ATOM      5  C   UNL     1      45.588   5.994  11.734  0.00  0.00    +0.000 A 
ATOM      6  C   UNL     1      46.870   6.491  11.939  0.00  0.00    +0.000 A 
ATOM      7  C   UNL     1      47.581   6.142  13.090  0.00  0.00    +0.000 A 
ATOM      8  C   UNL     1      47.023   5.307  14.077  0.00  0.00    +0.000 A 
ATOM      9  C   UNL     1      45.741   4.782  13.823  0.00  0.00    +0.000 A 
BRANCH   8  10
ATOM     10  C   UNL     1      47.721   5.067  15.364  0.00  0.00    +0.000 A 
ATOM     11  C   UNL     1      48.615   6.024  15.886  0.00  0.00    +0.000 A 
ATOM     12  C   UNL     1      49.221   5.862  17.136  0.00  0.00    +0.000 A 
ATOM     13  C   UNL     1      48.944   4.734  17.895  0.00  0.00    +0.000 A 
ATOM     14 CL   UNL     1      49.653   4.552  19.451  0.00  0.00    +0.000 Cl
ATOM     15  C   UNL     1      48.082   3.761  17.404  0.00  0.00    +0.000 A 
ATOM     16  C   UNL     1      47.485   3.920  16.144  0.00  0.00    +0.000 A 
ENDBRANCH   8  10
ENDBRANCH   1   4
BRANCH   1  17
ATOM     17  C   UNL     1      43.337   4.369  10.958  0.00  0.00    +0.000 C 
BRANCH  17  22
ATOM     18  C   UNL     1      46.601   2.648   7.378  0.00  0.00    +0.000 A 
ATOM     19  C   UNL     1      46.133   3.928   7.655  0.00  0.00    +0.000 A 
ATOM     20  C   UNL     1      45.217   4.104   8.693  0.00  0.00    +0.000 A 
ATOM     21  C   UNL     1      44.776   3.005   9.431  0.00  0.00    +0.000 A 
ATOM     22  N   UNL     1      43.872   3.108  10.452  0.00  0.00    +0.000 N 
ATOM     23  N   UNL     1      45.219   1.765   9.161  0.00  0.00    +0.000 NA
ATOM     24  C   UNL     1      46.107   1.606   8.140  0.00  0.00    +0.000 A 
ATOM     25  H   UNL     1      43.657   2.236  10.922  0.00  0.00    +0.000 HD
BRANCH  18  27
ATOM     26  N   UNL     1      47.527   3.180   5.196  0.00  0.00    +0.000 N 
ATOM     27  C   UNL     1      47.567   2.369   6.297  0.00  0.00    +0.000 C 
ATOM     28  O   UNL     1      48.393   1.471   6.392  0.00  0.00    +0.000 OA
ATOM     29  H   UNL     1      48.261   3.042   4.512  0.00  0.00    +0.000 HD
ATOM     30  H   UNL     1      47.041   4.064   5.187  0.00  0.00    +0.000 HD
ENDBRANCH  18  27
ENDBRANCH  17  22
ENDBRANCH   1  17
TORSDOF 5
ENDMDL
MODEL 3
REMARK VINA RESULT:    -9.126      1.899      2.531
REMARK INTER + INTRA:         -12.877
REMARK INTER:                 -11.572
REMARK INTRA:                  -1.305
REMARK UNBOUND:                -1.083
REMARK  Name = 
REMARK  5 active torsions:
REMARK  status: ('A' for Active; 'I' for Inactive)
REMARK    1  A    between atoms: C_2  and  C_4
REMARK    2  A    between atoms: N_8  and  C_9
REMARK    3  A    between atoms: C_9  and  C_10
REMARK    4  A    between atoms: C_10  and  C_13
REMARK    5  A    between atoms: C_17  and  C_18
REMARK                            x       y       z     vdW  Elec       q    Type
REMARK                         _______ _______ _______ _____ _____    ______ ____
ROOT
ATOM      1  C   UNL     1      44.218   3.938  12.476  0.00  0.00    +0.000 C 
ATOM      2  F   UNL     1      43.394   3.968  13.565  0.00  0.00    +0.000 F 
ATOM      3  F   UNL     1      45.189   3.026  12.782  0.00  0.00    +0.000 F 
ENDROOT
BRANCH   1   4
ATOM      4  C   UNL     1      44.797   5.307  12.160  0.00  0.00    +0.000 A 
ATOM      5  C   UNL     1      43.973   6.325  11.667  0.00  0.00    +0.000 A 
ATOM      6  C   UNL     1      44.495   7.589  11.418  0.00  0.00    +0.000 A 
ATOM      7  C   UNL     1      45.841   7.856  11.682  0.00  0.00    +0.000 A 
ATOM      8  C   UNL     1      46.696   6.877  12.223  0.00  0.00    +0.000 A 
ATOM      9  C   UNL     1      46.152   5.593  12.424  0.00  0.00    +0.000 A 
BRANCH   8  10
ATOM     10  C   UNL     1      48.078   7.211  12.644  0.00  0.00    +0.000 A 
ATOM     11  C   UNL     1      48.971   7.834  11.749  0.00  0.00    +0.000 A 
ATOM     12  C   UNL     1      50.251   8.236  12.144  0.00  0.00    +0.000 A 
ATOM     13  C   UNL     1      50.667   8.022  13.451  0.00  0.00    +0.000 A 
ATOM     14 CL   UNL     1      52.224   8.554  13.952  0.00  0.00    +0.000 Cl
ATOM     15  C   UNL     1      49.820   7.394  14.355  0.00  0.00    +0.000 A 
ATOM     16  C   UNL     1      48.542   6.981  13.953  0.00  0.00    +0.000 A 
ENDBRANCH   8  10
ENDBRANCH   1   4
BRANCH   1  17
ATOM     17  C   UNL     1      43.416   3.418  11.257  0.00  0.00    +0.000 C 
BRANCH  17  22
ATOM     18  C   UNL     1      46.554   2.716   7.246  0.00  0.00    +0.000 A 
ATOM     19  C   UNL     1      45.951   3.863   7.751  0.00  0.00    +0.000 A 
ATOM     20  C   UNL     1      45.113   3.755   8.861  0.00  0.00    +0.000 A 
ATOM     21  C   UNL     1      44.882   2.509   9.444  0.00  0.00    +0.000 A 
ATOM     22  N   UNL     1      44.064   2.333  10.527  0.00  0.00    +0.000 N 
ATOM     23  N   UNL     1      45.457   1.395   8.955  0.00  0.00    +0.000 NA
ATOM     24  C   UNL     1      46.267   1.514   7.866  0.00  0.00    +0.000 A 
ATOM     25  H   UNL     1      44.005   1.379  10.867  0.00  0.00    +0.000 HD
BRANCH  18  27
ATOM     26  N   UNL     1      48.777   2.477   6.296  0.00  0.00    +0.000 N 
ATOM     27  C   UNL     1      47.452   2.736   6.074  0.00  0.00    +0.000 C 
ATOM     28  O   UNL     1      47.028   2.944   4.945  0.00  0.00    +0.000 OA
ATOM     29  H   UNL     1      49.360   2.392   5.472  0.00  0.00    +0.000 HD
ATOM     30  H   UNL     1      49.116   2.066   7.153  0.00  0.00    +0.000 HD
ENDBRANCH  18  27
ENDBRANCH  17  22
ENDBRANCH   1  17
TORSDOF 5
ENDMDL
MODEL 4
REMARK VINA RESULT:    -8.396      4.343      7.188
REMARK INTER + INTRA:         -11.934
REMARK INTER:                 -10.824
REMARK INTRA:                  -1.110
REMARK UNBOUND:                -1.083
REMARK  Name = 
REMARK  5 active torsions:
REMARK  status: ('A' for Active; 'I' for Inactive)
REMARK    1  A    between atoms: C_2  and  C_4
REMARK    2  A    between atoms: N_8  and  C_9
REMARK    3  A    between atoms: C_9  and  C_10
REMARK    4  A    between atoms: C_10  and  C_13
REMARK    5  A    between atoms: C_17  and  C_18
REMARK                            x       y       z     vdW  Elec       q    Type
REMARK                         _______ _______ _______ _____ _____    ______ ____
ROOT
ATOM      1  C   UNL     1      45.951   8.003  12.144  0.00  0.00    +0.000 C 
ATOM      2  F   UNL     1      45.630   8.354  13.424  0.00  0.00    +0.000 F 
ATOM      3  F   UNL     1      45.822   9.151  11.412  0.00  0.00    +0.000 F 
ENDROOT
BRANCH   1   4
ATOM      4  C   UNL     1      45.065   6.887  11.618  0.00  0.00    +0.000 A 
ATOM      5  C   UNL     1      43.690   6.893  11.884  0.00  0.00    +0.000 A 
ATOM      6  C   UNL     1      42.873   5.893  11.367  0.00  0.00    +0.000 A 
ATOM      7  C   UNL     1      43.417   4.892  10.558  0.00  0.00    +0.000 A 
ATOM      8  C   UNL     1      44.785   4.874  10.224  0.00  0.00    +0.000 A 
ATOM      9  C   UNL     1      45.597   5.872  10.798  0.00  0.00    +0.000 A 
BRANCH   8  10
ATOM     10  C   UNL     1      45.324   3.901   9.243  0.00  0.00    +0.000 A 
ATOM     11  C   UNL     1      46.044   4.343   8.115  0.00  0.00    +0.000 A 
ATOM     12  C   UNL     1      46.635   3.446   7.219  0.00  0.00    +0.000 A 
ATOM     13  C   UNL     1      46.518   2.080   7.435  0.00  0.00    +0.000 A 
ATOM     14 CL   UNL     1      47.280   0.974   6.361  0.00  0.00    +0.000 Cl
ATOM     15  C   UNL     1      45.800   1.608   8.527  0.00  0.00    +0.000 A 
ATOM     16  C   UNL     1      45.197   2.510   9.416  0.00  0.00    +0.000 A 
ENDBRANCH   8  10
ENDBRANCH   1   4
BRANCH   1  17
ATOM     17  C   UNL     1      47.433   7.554  12.105  0.00  0.00    +0.000 C 
BRANCH  17  22
ATOM     18  C   UNL     1      47.720   4.360  16.124  0.00  0.00    +0.000 A 
ATOM     19  C   UNL     1      46.957   4.308  14.962  0.00  0.00    +0.000 A 
ATOM     20  C   UNL     1      47.067   5.344  14.033  0.00  0.00    +0.000 A 
ATOM     21  C   UNL     1      47.926   6.416  14.279  0.00  0.00    +0.000 A 
ATOM     22  N   UNL     1      48.071   7.467  13.415  0.00  0.00    +0.000 N 
ATOM     23  N   UNL     1      48.659   6.475  15.405  0.00  0.00    +0.000 NA
ATOM     24  C   UNL     1      48.536   5.460  16.307  0.00  0.00    +0.000 A 
ATOM     25  H   UNL     1      48.747   8.166  13.703  0.00  0.00    +0.000 HD
BRANCH  18  27
ATOM     26  N   UNL     1      48.845   2.958  17.758  0.00  0.00    +0.000 N 
ATOM     27  C   UNL     1      47.665   3.311  17.161  0.00  0.00    +0.000 C 
ATOM     28  O   UNL     1      46.607   2.798  17.500  0.00  0.00    +0.000 OA
ATOM     29  H   UNL     1      48.777   2.315  18.537  0.00  0.00    +0.000 HD
ATOM     30  H   UNL     1      49.681   3.518  17.686  0.00  0.00    +0.000 HD
ENDBRANCH  18  27
ENDBRANCH  17  22
ENDBRANCH   1  17
TORSDOF 5
ENDMDL
MODEL 5
REMARK VINA RESULT:    -8.254      1.987      2.787
REMARK INTER + INTRA:         -11.750
REMARK INTER:                 -10.956
REMARK INTRA:                  -0.794
REMARK UNBOUND:                -1.083
REMARK  Name = 
REMARK  5 active torsions:
REMARK  status: ('A' for Active; 'I' for Inactive)
REMARK    1  A    between atoms: C_2  and  C_4
REMARK    2  A    between atoms: N_8  and  C_9
REMARK    3  A    between atoms: C_9  and  C_10
REMARK    4  A    between atoms: C_10  and  C_13
REMARK    5  A    between atoms: C_17  and  C_18
REMARK                            x       y       z     vdW  Elec       q    Type
REMARK                         _______ _______ _______ _____ _____    ______ ____
ROOT
ATOM      1  C   UNL     1      42.911   5.524  12.074  0.00  0.00    +0.000 C 
ATOM      2  F   UNL     1      41.727   6.138  11.782  0.00  0.00    +0.000 F 
ATOM      3  F   UNL     1      42.726   4.944  13.298  0.00  0.00    +0.000 F 
ENDROOT
BRANCH   1   4
ATOM      4  C   UNL     1      44.076   6.499  12.073  0.00  0.00    +0.000 A 
ATOM      5  C   UNL     1      43.971   7.723  11.401  0.00  0.00    +0.000 A 
ATOM      6  C   UNL     1      45.022   8.633  11.436  0.00  0.00    +0.000 A 
ATOM      7  C   UNL     1      46.178   8.341  12.163  0.00  0.00    +0.000 A 
ATOM      8  C   UNL     1      46.308   7.144  12.893  0.00  0.00    +0.000 A 
ATOM      9  C   UNL     1      45.247   6.221  12.804  0.00  0.00    +0.000 A 
BRANCH   8  10
ATOM     10  C   UNL     1      47.470   6.910  13.785  0.00  0.00    +0.000 A 
ATOM     11  C   UNL     1      48.552   7.814  13.808  0.00  0.00    +0.000 A 
ATOM     12  C   UNL     1      49.620   7.664  14.698  0.00  0.00    +0.000 A 
ATOM     13  C   UNL     1      49.628   6.602  15.591  0.00  0.00    +0.000 A 
ATOM     14 CL   UNL     1      50.918   6.438  16.716  0.00  0.00    +0.000 Cl
ATOM     15  C   UNL     1      48.588   5.681  15.584  0.00  0.00    +0.000 A 
ATOM     16  C   UNL     1      47.524   5.827  14.682  0.00  0.00    +0.000 A 
ENDBRANCH   8  10
ENDBRANCH   1   4
BRANCH   1  17
ATOM     17  C   UNL     1      43.166   4.408  11.029  0.00  0.00    +0.000 C 
BRANCH  17  22
ATOM     18  C   UNL     1      46.394   2.308   7.623  0.00  0.00    +0.000 A 
ATOM     19  C   UNL     1      45.713   1.758   8.703  0.00  0.00    +0.000 A 
ATOM     20  C   UNL     1      44.904   2.583   9.486  0.00  0.00    +0.000 A 
ATOM     21  C   UNL     1      44.794   3.941   9.187  0.00  0.00    +0.000 A 
ATOM     22  N   UNL     1      44.027   4.805   9.920  0.00  0.00    +0.000 N 
ATOM     23  N   UNL     1      45.457   4.480   8.149  0.00  0.00    +0.000 NA
ATOM     24  C   UNL     1      46.249   3.665   7.397  0.00  0.00    +0.000 A 
ATOM     25  H   UNL     1      44.014   5.760   9.578  0.00  0.00    +0.000 HD
BRANCH  18  27
ATOM     26  N   UNL     1      48.312   2.165   6.139  0.00  0.00    +0.000 N 
ATOM     27  C   UNL     1      47.273   1.512   6.744  0.00  0.00    +0.000 C 
ATOM     28  O   UNL     1      47.103   0.311   6.586  0.00  0.00    +0.000 OA
ATOM     29  H   UNL     1      48.965   1.587   5.625  0.00  0.00    +0.000 HD
ATOM     30  H   UNL     1      48.627   3.078   6.433  0.00  0.00    +0.000 HD
ENDBRANCH  18  27
ENDBRANCH  17  22
ENDBRANCH   1  17
TORSDOF 5
ENDMDL
MODEL 6
REMARK VINA RESULT:    -8.034      4.658      7.687
REMARK INTER + INTRA:         -11.465
REMARK INTER:                 -10.677
REMARK INTRA:                  -0.789
REMARK UNBOUND:                -1.083
REMARK  Name = 
REMARK  5 active torsions:
REMARK  status: ('A' for Active; 'I' for Inactive)
REMARK    1  A    between atoms: C_2  and  C_4
REMARK    2  A    between atoms: N_8  and  C_9
REMARK    3  A    between atoms: C_9  and  C_10
REMARK    4  A    between atoms: C_10  and  C_13
REMARK    5  A    between atoms: C_17  and  C_18
REMARK                            x       y       z     vdW  Elec       q    Type
REMARK                         _______ _______ _______ _____ _____    ______ ____
ROOT
ATOM      1  C   UNL     1      44.879   6.095  12.442  0.00  0.00    +0.000 C 
ATOM      2  F   UNL     1      43.940   6.385  13.390  0.00  0.00    +0.000 F 
ATOM      3  F   UNL     1      44.858   7.153  11.577  0.00  0.00    +0.000 F 
ENDROOT
BRANCH   1   4
ATOM      4  C   UNL     1      44.596   4.777  11.741  0.00  0.00    +0.000 A 
ATOM      5  C   UNL     1      43.556   3.951  12.185  0.00  0.00    +0.000 A 
ATOM      6  C   UNL     1      43.270   2.766  11.516  0.00  0.00    +0.000 A 
ATOM      7  C   UNL     1      44.004   2.405  10.384  0.00  0.00    +0.000 A 
ATOM      8  C   UNL     1      45.027   3.228   9.874  0.00  0.00    +0.000 A 
ATOM      9  C   UNL     1      45.325   4.401  10.595  0.00  0.00    +0.000 A 
BRANCH   8  10
ATOM     10  C   UNL     1      45.694   2.916   8.587  0.00  0.00    +0.000 A 
ATOM     11  C   UNL     1      45.948   3.933   7.644  0.00  0.00    +0.000 A 
ATOM     12  C   UNL     1      46.650   3.682   6.460  0.00  0.00    +0.000 A 
ATOM     13  C   UNL     1      47.117   2.403   6.194  0.00  0.00    +0.000 A 
ATOM     14 CL   UNL     1      48.018   2.100   4.761  0.00  0.00    +0.000 Cl
ATOM     15  C   UNL     1      46.869   1.372   7.092  0.00  0.00    +0.000 A 
ATOM     16  C   UNL     1      46.154   1.623   8.272  0.00  0.00    +0.000 A 
ENDBRANCH   8  10
ENDBRANCH   1   4
BRANCH   1  17
ATOM     17  C   UNL     1      46.272   6.035  13.120  0.00  0.00    +0.000 C 
BRANCH  17  22
ATOM     18  C   UNL     1      48.602   4.126  17.286  0.00  0.00    +0.000 A 
ATOM     19  C   UNL     1      48.471   5.431  16.823  0.00  0.00    +0.000 A 
ATOM     20  C   UNL     1      47.791   5.661  15.627  0.00  0.00    +0.000 A 
ATOM     21  C   UNL     1      47.262   4.590  14.907  0.00  0.00    +0.000 A 
ATOM     22  N   UNL     1      46.594   4.746  13.722  0.00  0.00    +0.000 N 
ATOM     23  N   UNL     1      47.393   3.325  15.345  0.00  0.00    +0.000 NA
ATOM     24  C   UNL     1      48.065   3.115  16.511  0.00  0.00    +0.000 A 
ATOM     25  H   UNL     1      46.238   3.887  13.317  0.00  0.00    +0.000 HD
BRANCH  18  27
ATOM     26  N   UNL     1      48.565   3.241  19.547  0.00  0.00    +0.000 N 
ATOM     27  C   UNL     1      49.307   3.790  18.538  0.00  0.00    +0.000 C 
ATOM     28  O   UNL     1      50.512   3.965  18.663  0.00  0.00    +0.000 OA
ATOM     29  H   UNL     1      49.079   2.921  20.359  0.00  0.00    +0.000 HD
ATOM     30  H   UNL     1      47.641   2.860  19.400  0.00  0.00    +0.000 HD
ENDBRANCH  18  27
ENDBRANCH  17  22
ENDBRANCH   1  17
TORSDOF 5
ENDMDL
MODEL 7
REMARK VINA RESULT:    -7.296      4.979      7.628
REMARK INTER + INTRA:         -10.512
REMARK INTER:                  -9.222
REMARK INTRA:                  -1.291
REMARK UNBOUND:                -1.083
REMARK  Name = 
REMARK  5 active torsions:
REMARK  status: ('A' for Active; 'I' for Inactive)
REMARK    1  A    between atoms: C_2  and  C_4
REMARK    2  A    between atoms: N_8  and  C_9
REMARK    3  A    between atoms: C_9  and  C_10
REMARK    4  A    between atoms: C_10  and  C_13
REMARK    5  A    between atoms: C_17  and  C_18
REMARK                            x       y       z     vdW  Elec       q    Type
REMARK                         _______ _______ _______ _____ _____    ______ ____
ROOT
ATOM      1  C   UNL     1      48.276   9.110  13.113  0.00  0.00    +0.000 C 
ATOM      2  F   UNL     1      48.142   9.568  14.392  0.00  0.00    +0.000 F 
ATOM      3  F   UNL     1      48.845  10.140  12.417  0.00  0.00    +0.000 F 
ENDROOT
BRANCH   1   4
ATOM      4  C   UNL     1      46.945   8.684  12.517  0.00  0.00    +0.000 A 
ATOM      5  C   UNL     1      45.919   9.621  12.339  0.00  0.00    +0.000 A 
ATOM      6  C   UNL     1      44.717   9.239  11.754  0.00  0.00    +0.000 A 
ATOM      7  C   UNL     1      44.535   7.924  11.318  0.00  0.00    +0.000 A 
ATOM      8  C   UNL     1      45.556   6.961  11.433  0.00  0.00    +0.000 A 
ATOM      9  C   UNL     1      46.747   7.363  12.069  0.00  0.00    +0.000 A 
BRANCH   8  10
ATOM     10  C   UNL     1      45.412   5.614  10.829  0.00  0.00    +0.000 A 
ATOM     11  C   UNL     1      44.995   4.517  11.611  0.00  0.00    +0.000 A 
ATOM     12  C   UNL     1      44.770   3.256  11.051  0.00  0.00    +0.000 A 
ATOM     13  C   UNL     1      44.958   3.063   9.690  0.00  0.00    +0.000 A 
ATOM     14 CL   UNL     1      44.641   1.524   8.990  0.00  0.00    +0.000 Cl
ATOM     15  C   UNL     1      45.386   4.117   8.892  0.00  0.00    +0.000 A 
ATOM     16  C   UNL     1      45.623   5.378   9.458  0.00  0.00    +0.000 A 
ENDBRANCH   8  10
ENDBRANCH   1   4
BRANCH   1  17
ATOM     17  C   UNL     1      49.255   7.909  13.112  0.00  0.00    +0.000 C 
BRANCH  17  22
ATOM     18  C   UNL     1      48.081   4.452  16.732  0.00  0.00    +0.000 A 
ATOM     19  C   UNL     1      47.461   4.769  15.529  0.00  0.00    +0.000 A 
ATOM     20  C   UNL     1      47.995   5.787  14.738  0.00  0.00    +0.000 A 
ATOM     21  C   UNL     1      49.131   6.477  15.161  0.00  0.00    +0.000 A 
ATOM     22  N   UNL     1      49.698   7.491  14.438  0.00  0.00    +0.000 N 
ATOM     23  N   UNL     1      49.730   6.181  16.327  0.00  0.00    +0.000 NA
ATOM     24  C   UNL     1      49.193   5.190  17.093  0.00  0.00    +0.000 A 
ATOM     25  H   UNL     1      50.536   7.891  14.847  0.00  0.00    +0.000 HD
BRANCH  18  27
ATOM     26  N   UNL     1      48.368   3.061  18.703  0.00  0.00    +0.000 N 
ATOM     27  C   UNL     1      47.583   3.394  17.633  0.00  0.00    +0.000 C 
ATOM     28  O   UNL     1      46.499   2.856  17.452  0.00  0.00    +0.000 OA
ATOM     29  H   UNL     1      47.967   2.410  19.367  0.00  0.00    +0.000 HD
ATOM     30  H   UNL     1      49.132   3.640  19.019  0.00  0.00    +0.000 HD
ENDBRANCH  18  27
ENDBRANCH  17  22
ENDBRANCH   1  17
TORSDOF 5
ENDMDL
MODEL 8
REMARK VINA RESULT:    -7.283      4.158      7.255
REMARK INTER + INTRA:         -10.495
REMARK INTER:                  -9.465
REMARK INTRA:                  -1.030
REMARK UNBOUND:                -1.083
REMARK  Name = 
REMARK  5 active torsions:
REMARK  status: ('A' for Active; 'I' for Inactive)
REMARK    1  A    between atoms: C_2  and  C_4
REMARK    2  A    between atoms: N_8  and  C_9
REMARK    3  A    between atoms: C_9  and  C_10
REMARK    4  A    between atoms: C_10  and  C_13
REMARK    5  A    between atoms: C_17  and  C_18
REMARK                            x       y       z     vdW  Elec       q    Type
REMARK                         _______ _______ _______ _____ _____    ______ ____
ROOT
ATOM      1  C   UNL     1      43.970   6.464  11.792  0.00  0.00    +0.000 C 
ATOM      2  F   UNL     1      43.911   6.570  13.152  0.00  0.00    +0.000 F 
ATOM      3  F   UNL     1      42.848   7.093  11.331  0.00  0.00    +0.000 F 
ENDROOT
BRANCH   1   4
ATOM      4  C   UNL     1      44.043   5.017  11.334  0.00  0.00    +0.000 A 
ATOM      5  C   UNL     1      43.237   4.044  11.937  0.00  0.00    +0.000 A 
ATOM      6  C   UNL     1      43.273   2.728  11.489  0.00  0.00    +0.000 A 
ATOM      7  C   UNL     1      44.097   2.375  10.418  0.00  0.00    +0.000 A 
ATOM      8  C   UNL     1      44.889   3.329   9.750  0.00  0.00    +0.000 A 
ATOM      9  C   UNL     1      44.867   4.645  10.253  0.00  0.00    +0.000 A 
BRANCH   8  10
ATOM     10  C   UNL     1      45.640   2.979   8.520  0.00  0.00    +0.000 A 
ATOM     11  C   UNL     1      45.904   3.955   7.537  0.00  0.00    +0.000 A 
ATOM     12  C   UNL     1      46.681   3.673   6.409  0.00  0.00    +0.000 A 
ATOM     13  C   UNL     1      47.215   2.404   6.239  0.00  0.00    +0.000 A 
ATOM     14 CL   UNL     1      48.206   2.065   4.876  0.00  0.00    +0.000 Cl
ATOM     15  C   UNL     1      46.960   1.412   7.179  0.00  0.00    +0.000 A 
ATOM     16  C   UNL     1      46.170   1.693   8.303  0.00  0.00    +0.000 A 
ENDBRANCH   8  10
ENDBRANCH   1   4
BRANCH   1  17
ATOM     17  C   UNL     1      45.216   7.234  11.285  0.00  0.00    +0.000 C 
BRANCH  17  22
ATOM     18  C   UNL     1      48.746   7.309  15.022  0.00  0.00    +0.000 A 
ATOM     19  C   UNL     1      48.257   6.267  14.240  0.00  0.00    +0.000 A 
ATOM     20  C   UNL     1      47.265   6.536  13.297  0.00  0.00    +0.000 A 
ATOM     21  C   UNL     1      46.769   7.832  13.154  0.00  0.00    +0.000 A 
ATOM     22  N   UNL     1      45.789   8.160  12.257  0.00  0.00    +0.000 N 
ATOM     23  N   UNL     1      47.231   8.841  13.913  0.00  0.00    +0.000 NA
ATOM     24  C   UNL     1      48.195   8.563  14.835  0.00  0.00    +0.000 A 
ATOM     25  H   UNL     1      45.539   9.142  12.237  0.00  0.00    +0.000 HD
BRANCH  18  27
ATOM     26  N   UNL     1      50.015   8.147  16.916  0.00  0.00    +0.000 N 
ATOM     27  C   UNL     1      49.792   7.116  16.045  0.00  0.00    +0.000 C 
ATOM     28  O   UNL     1      50.415   6.066  16.135  0.00  0.00    +0.000 OA
ATOM     29  H   UNL     1      50.660   7.962  17.674  0.00  0.00    +0.000 HD
ATOM     30  H   UNL     1      49.368   8.914  17.030  0.00  0.00    +0.000 HD
ENDBRANCH  18  27
ENDBRANCH  17  22
ENDBRANCH   1  17
TORSDOF 5
ENDMDL
MODEL 9
REMARK VINA RESULT:    -7.093      5.547      8.459
REMARK INTER + INTRA:         -10.249
REMARK INTER:                  -8.979
REMARK INTRA:                  -1.271
REMARK UNBOUND:                -1.083
REMARK  Name = 
REMARK  5 active torsions:
REMARK  status: ('A' for Active; 'I' for Inactive)
REMARK    1  A    between atoms: C_2  and  C_4
REMARK    2  A    between atoms: N_8  and  C_9
REMARK    3  A    between atoms: C_9  and  C_10
REMARK    4  A    between atoms: C_10  and  C_13
REMARK    5  A    between atoms: C_17  and  C_18
REMARK                            x       y       z     vdW  Elec       q    Type
REMARK                         _______ _______ _______ _____ _____    ______ ____
ROOT
ATOM      1  C   UNL     1      49.653   8.595  12.078  0.00  0.00    +0.000 C 
ATOM      2  F   UNL     1      49.830   9.787  11.434  0.00  0.00    +0.000 F 
ATOM      3  F   UNL     1      50.305   7.670  11.312  0.00  0.00    +0.000 F 
ENDROOT
BRANCH   1   4
ATOM      4  C   UNL     1      48.182   8.256  12.257  0.00  0.00    +0.000 A 
ATOM      5  C   UNL     1      47.310   9.184  12.837  0.00  0.00    +0.000 A 
ATOM      6  C   UNL     1      45.956   8.890  12.962  0.00  0.00    +0.000 A 
ATOM      7  C   UNL     1      45.457   7.675  12.485  0.00  0.00    +0.000 A 
ATOM      8  C   UNL     1      46.289   6.732  11.851  0.00  0.00    +0.000 A 
ATOM      9  C   UNL     1      47.662   7.037  11.778  0.00  0.00    +0.000 A 
BRANCH   8  10
ATOM     10  C   UNL     1      45.726   5.518  11.212  0.00  0.00    +0.000 A 
ATOM     11  C   UNL     1      45.660   5.411   9.808  0.00  0.00    +0.000 A 
ATOM     12  C   UNL     1      45.213   4.245   9.178  0.00  0.00    +0.000 A 
ATOM     13  C   UNL     1      44.822   3.155   9.943  0.00  0.00    +0.000 A 
ATOM     14 CL   UNL     1      44.312   1.705   9.172  0.00  0.00    +0.000 Cl
ATOM     15  C   UNL     1      44.856   3.232  11.330  0.00  0.00    +0.000 A 
ATOM     16  C   UNL     1      45.293   4.407  11.959  0.00  0.00    +0.000 A 
ENDBRANCH   8  10
ENDBRANCH   1   4
BRANCH   1  17
ATOM     17  C   UNL     1      50.342   8.668  13.464  0.00  0.00    +0.000 C 
BRANCH  17  22
ATOM     18  C   UNL     1      48.388   6.698  17.791  0.00  0.00    +0.000 A 
ATOM     19  C   UNL     1      48.364   7.990  17.277  0.00  0.00    +0.000 A 
ATOM     20  C   UNL     1      49.008   8.249  16.067  0.00  0.00    +0.000 A 
ATOM     21  C   UNL     1      49.671   7.223  15.394  0.00  0.00    +0.000 A 
ATOM     22  N   UNL     1      50.330   7.414  14.210  0.00  0.00    +0.000 N 
ATOM     23  N   UNL     1      49.705   5.974  15.890  0.00  0.00    +0.000 NA
ATOM     24  C   UNL     1      49.078   5.736  17.077  0.00  0.00    +0.000 A 
ATOM     25  H   UNL     1      50.747   6.578  13.814  0.00  0.00    +0.000 HD
BRANCH  18  27
ATOM     26  N   UNL     1      46.575   5.614  18.992  0.00  0.00    +0.000 N 
ATOM     27  C   UNL     1      47.737   6.333  19.065  0.00  0.00    +0.000 C 
ATOM     28  O   UNL     1      48.229   6.632  20.145  0.00  0.00    +0.000 OA
ATOM     29  H   UNL     1      46.198   5.284  19.872  0.00  0.00    +0.000 HD
ATOM     30  H   UNL     1      46.276   5.146  18.150  0.00  0.00    +0.000 HD
ENDBRANCH  18  27
ENDBRANCH  17  22
ENDBRANCH   1  17
TORSDOF 5
ENDMDL
