MODEL 1
REMARK VINA RESULT:    -8.900      0.000      0.000
REMARK INTER + INTRA:         -13.816
REMARK INTER:                 -13.063
REMARK INTRA:                  -0.753
REMARK UNBOUND:                -0.753
REMARK  Name = 
REMARK  9 active torsions:
REMARK  status: ('A' for Active; 'I' for Inactive)
REMARK    1  A    between atoms: C_1  and  C_2
REMARK    2  A    between atoms: C_2  and  N_3
REMARK    3  A    between atoms: C_2  and  C_20
REMARK    4  A    between atoms: N_3  and  C_4
REMARK    5  A    between atoms: C_4  and  C_5
REMARK    6  A    between atoms: C_8  and  C_9
REMARK    7  A    between atoms: C_9  and  O_10
REMARK    8  A    between atoms: O_10  and  C_11
REMARK    9  A    between atoms: C_11  and  C_12
REMARK                            x       y       z     vdW  Elec       q    Type
REMARK                         _______ _______ _______ _____ _____    ______ ____
ROOT
ATOM      1  C   UNL     1      47.624   5.363  14.601  0.00  0.00    +0.000 C 
ENDROOT
BRANCH   1   2
ATOM      2  C   UNL     1      46.557   5.105  13.551  0.00  0.00    +0.000 A 
ATOM      3  C   UNL     1      45.953   6.172  12.885  0.00  0.00    +0.000 A 
ATOM      4  C   UNL     1      44.909   5.908  11.998  0.00  0.00    +0.000 A 
ATOM      5  C   UNL     1      44.487   4.596  11.790  0.00  0.00    +0.000 A 
ATOM      6  C   UNL     1      45.159   3.595  12.484  0.00  0.00    +0.000 A 
ATOM      7  N   UNL     1      46.174   3.819  13.349  0.00  0.00    +0.000 NA
BRANCH   5   8
ATOM      8  C   UNL     1      43.356   4.254  10.869  0.00  0.00    +0.000 C 
BRANCH   8   9
ATOM      9  O   UNL     1      43.844   3.356   9.877  0.00  0.00    +0.000 OA
BRANCH   9  10
ATOM     10  C   UNL     1      44.529   4.035   8.827  0.00  0.00    +0.000 C 
BRANCH  10  11
ATOM     11  C   UNL     1      45.536   3.118   8.193  0.00  0.00    +0.000 A 
ATOM     12  C   UNL     1      46.366   3.520   7.141  0.00  0.00    +0.000 A 
ATOM     13  C   UNL     1      47.271   2.617   6.588  0.00  0.00    +0.000 A 
ATOM     14  C   UNL     1      47.305   1.330   7.094  0.00  0.00    +0.000 A 
ATOM     15  N   UNL     1      46.503   0.893   8.089  0.00  0.00    +0.000 NA
ATOM     16  C   UNL     1      45.640   1.794   8.610  0.00  0.00    +0.000 A 
ENDBRANCH  10  11
ENDBRANCH   9  10
ENDBRANCH   8   9
ENDBRANCH   5   8
ENDBRANCH   1   2
BRANCH   1  17
ATOM     17  N   UNL     1      47.942   4.179  15.401  0.00  0.00    +0.000 NA
ATOM     18  H   UNL     1      48.906   3.906  15.222  0.00  0.00    +0.000 HD
BRANCH  17  20
ATOM     19  C   UNL     1      46.886   3.291  17.498  0.00  0.00    +0.000 C 
ATOM     20  C   UNL     1      47.754   4.376  16.843  0.00  0.00    +0.000 C 
BRANCH  20  21
ATOM     21  C   UNL     1      49.141   4.414  17.455  0.00  0.00    +0.000 A 
ATOM     22  C   UNL     1      49.636   5.483  18.191  0.00  0.00    +0.000 A 
ATOM     23  S   UNL     1      51.212   5.221  18.790  0.00  0.00    +0.000 S 
ATOM     24  C   UNL     1      51.285   3.671  18.091  0.00  0.00    +0.000 A 
ATOM     25  N   UNL     1      52.382   2.880  18.248  0.00  0.00    +0.000 NA
ATOM     26  C   UNL     1      52.284   1.722  17.686  0.00  0.00    +0.000 A 
ATOM     27  N   UNL     1      51.198   1.286  16.971  0.00  0.00    +0.000 N 
ATOM     28  C   UNL     1      50.090   2.070  16.733  0.00  0.00    +0.000 A 
ATOM     29  O   UNL     1      49.176   1.682  16.014  0.00  0.00    +0.000 OA
ATOM     30  C   UNL     1      50.133   3.366  17.390  0.00  0.00    +0.000 A 
ATOM     31  H   UNL     1      51.199   0.376  16.535  0.00  0.00    +0.000 HD
ENDBRANCH  20  21
ENDBRANCH  17  20
ENDBRANCH   1  17
TORSDOF 8
ENDMDL
MODEL 2
REMARK VINA RESULT:    -8.460      2.294      3.253
REMARK INTER + INTRA:         -13.169
REMARK INTER:                 -11.943
REMARK INTRA:                  -1.226
REMARK UNBOUND:                -0.753
REMARK  Name = 
REMARK  9 active torsions:
REMARK  status: ('A' for Active; 'I' for Inactive)
REMARK    1  A    between atoms: C_1  and  C_2
REMARK    2  A    between atoms: C_2  and  N_3
REMARK    3  A    between atoms: C_2  and  C_20
REMARK    4  A    between atoms: N_3  and  C_4
REMARK    5  A    between atoms: C_4  and  C_5
REMARK    6  A    between atoms: C_8  and  C_9
REMARK    7  A    between atoms: C_9  and  O_10
REMARK    8  A    between atoms: O_10  and  C_11
REMARK    9  A    between atoms: C_11  and  C_12
REMARK                            x       y       z     vdW  Elec       q    Type
REMARK                         _______ _______ _______ _____ _____    ______ ____
ROOT
ATOM      1  C   UNL     1      45.677   8.182  12.585  0.00  0.00    +0.000 C 
ENDROOT
BRANCH   1   2
ATOM      2  C   UNL     1      45.259   6.800  12.110  0.00  0.00    +0.000 A 
ATOM      3  C   UNL     1      45.781   6.275  10.928  0.00  0.00    +0.000 A 
ATOM      4  C   UNL     1      45.304   5.047  10.467  0.00  0.00    +0.000 A 
ATOM      5  C   UNL     1      44.322   4.369  11.186  0.00  0.00    +0.000 A 
ATOM      6  C   UNL     1      43.873   4.960  12.363  0.00  0.00    +0.000 A 
ATOM      7  N   UNL     1      44.316   6.148  12.835  0.00  0.00    +0.000 NA
BRANCH   5   8
ATOM      8  C   UNL     1      43.754   3.060  10.730  0.00  0.00    +0.000 C 
BRANCH   8   9
ATOM      9  O   UNL     1      44.084   2.884   9.355  0.00  0.00    +0.000 OA
BRANCH   9  10
ATOM     10  C   UNL     1      44.895   1.732   9.140  0.00  0.00    +0.000 C 
BRANCH  10  11
ATOM     11  C   UNL     1      45.902   2.006   8.059  0.00  0.00    +0.000 A 
ATOM     12  C   UNL     1      45.909   3.190   7.316  0.00  0.00    +0.000 A 
ATOM     13  C   UNL     1      46.863   3.379   6.318  0.00  0.00    +0.000 A 
ATOM     14  C   UNL     1      47.773   2.362   6.082  0.00  0.00    +0.000 A 
ATOM     15  N   UNL     1      47.784   1.193   6.756  0.00  0.00    +0.000 NA
ATOM     16  C   UNL     1      46.850   1.043   7.723  0.00  0.00    +0.000 A 
ENDBRANCH  10  11
ENDBRANCH   9  10
ENDBRANCH   8   9
ENDBRANCH   5   8
ENDBRANCH   1   2
BRANCH   1  17
ATOM     17  N   UNL     1      46.630   8.144  13.695  0.00  0.00    +0.000 NA
ATOM     18  H   UNL     1      46.142   7.868  14.544  0.00  0.00    +0.000 HD
BRANCH  17  20
ATOM     19  C   UNL     1      48.865   7.840  12.592  0.00  0.00    +0.000 C 
ATOM     20  C   UNL     1      47.760   7.234  13.469  0.00  0.00    +0.000 C 
BRANCH  20  21
ATOM     21  C   UNL     1      48.289   6.858  14.840  0.00  0.00    +0.000 A 
ATOM     22  C   UNL     1      49.096   7.682  15.614  0.00  0.00    +0.000 A 
ATOM     23  S   UNL     1      49.498   7.007  17.128  0.00  0.00    +0.000 S 
ATOM     24  C   UNL     1      48.606   5.595  16.803  0.00  0.00    +0.000 A 
ATOM     25  N   UNL     1      48.515   4.594  17.722  0.00  0.00    +0.000 NA
ATOM     26  C   UNL     1      47.782   3.598  17.349  0.00  0.00    +0.000 A 
ATOM     27  N   UNL     1      47.144   3.503  16.138  0.00  0.00    +0.000 N 
ATOM     28  C   UNL     1      47.254   4.461  15.154  0.00  0.00    +0.000 A 
ATOM     29  O   UNL     1      46.744   4.302  14.049  0.00  0.00    +0.000 OA
ATOM     30  C   UNL     1      48.027   5.626  15.547  0.00  0.00    +0.000 A 
ATOM     31  H   UNL     1      46.607   2.683  15.901  0.00  0.00    +0.000 HD
ENDBRANCH  20  21
ENDBRANCH  17  20
ENDBRANCH   1  17
TORSDOF 8
ENDMDL
MODEL 3
REMARK VINA RESULT:    -7.922      2.137      2.837
REMARK INTER + INTRA:         -12.380
REMARK INTER:                 -11.281
REMARK INTRA:                  -1.098
REMARK UNBOUND:                -0.753
REMARK  Name = 
REMARK  9 active torsions:
REMARK  status: ('A' for Active; 'I' for Inactive)
REMARK    1  A    between atoms: C_1  and  C_2
REMARK    2  A    between atoms: C_2  and  N_3
REMARK    3  A    between atoms: C_2  and  C_20
REMARK    4  A    between atoms: N_3  and  C_4
REMARK    5  A    between atoms: C_4  and  C_5
REMARK    6  A    between atoms: C_8  and  C_9
REMARK    7  A    between atoms: C_9  and  O_10
REMARK    8  A    between atoms: O_10  and  C_11
REMARK    9  A    between atoms: C_11  and  C_12
REMARK                            x       y       z     vdW  Elec       q    Type
REMARK                         _______ _______ _______ _____ _____    ______ ____
ROOT
ATOM      1  C   UNL     1      47.890   6.651  13.632  0.00  0.00    +0.000 C 
ENDROOT
BRANCH   1   2
ATOM      2  C   UNL     1      46.811   5.857  12.914  0.00  0.00    +0.000 A 
ATOM      3  C   UNL     1      46.293   6.312  11.701  0.00  0.00    +0.000 A 
ATOM      4  C   UNL     1      45.236   5.614  11.116  0.00  0.00    +0.000 A 
ATOM      5  C   UNL     1      44.717   4.484  11.745  0.00  0.00    +0.000 A 
ATOM      6  C   UNL     1      45.307   4.094  12.942  0.00  0.00    +0.000 A 
ATOM      7  N   UNL     1      46.333   4.749  13.533  0.00  0.00    +0.000 NA
BRANCH   5   8
ATOM      8  C   UNL     1      43.567   3.708  11.178  0.00  0.00    +0.000 C 
BRANCH   8   9
ATOM      9  O   UNL     1      43.820   3.480   9.794  0.00  0.00    +0.000 OA
BRANCH   9  10
ATOM     10  C   UNL     1      44.518   2.257   9.570  0.00  0.00    +0.000 C 
BRANCH  10  11
ATOM     11  C   UNL     1      45.514   2.430   8.459  0.00  0.00    +0.000 A 
ATOM     12  C   UNL     1      46.375   1.406   8.051  0.00  0.00    +0.000 A 
ATOM     13  C   UNL     1      47.286   1.634   7.021  0.00  0.00    +0.000 A 
ATOM     14  C   UNL     1      47.318   2.891   6.442  0.00  0.00    +0.000 A 
ATOM     15  N   UNL     1      46.525   3.914   6.824  0.00  0.00    +0.000 NA
ATOM     16  C   UNL     1      45.647   3.661   7.821  0.00  0.00    +0.000 A 
ENDBRANCH  10  11
ENDBRANCH   9  10
ENDBRANCH   8   9
ENDBRANCH   5   8
ENDBRANCH   1   2
BRANCH   1  17
ATOM     17  N   UNL     1      48.366   6.001  14.853  0.00  0.00    +0.000 NA
ATOM     18  H   UNL     1      48.685   5.061  14.627  0.00  0.00    +0.000 HD
BRANCH  17  20
ATOM     19  C   UNL     1      49.789   8.069  14.855  0.00  0.00    +0.000 C 
ATOM     20  C   UNL     1      49.447   6.731  15.526  0.00  0.00    +0.000 C 
BRANCH  20  21
ATOM     21  C   UNL     1      49.001   6.932  16.962  0.00  0.00    +0.000 A 
ATOM     22  C   UNL     1      48.494   8.126  17.457  0.00  0.00    +0.000 A 
ATOM     23  S   UNL     1      48.036   8.038  19.099  0.00  0.00    +0.000 S 
ATOM     24  C   UNL     1      48.496   6.403  19.201  0.00  0.00    +0.000 A 
ATOM     25  N   UNL     1      48.340   5.700  20.357  0.00  0.00    +0.000 NA
ATOM     26  C   UNL     1      48.705   4.464  20.279  0.00  0.00    +0.000 A 
ATOM     27  N   UNL     1      49.225   3.869  19.157  0.00  0.00    +0.000 N 
ATOM     28  C   UNL     1      49.458   4.552  17.983  0.00  0.00    +0.000 A 
ATOM     29  O   UNL     1      50.007   4.011  17.029  0.00  0.00    +0.000 OA
ATOM     30  C   UNL     1      49.013   5.935  18.007  0.00  0.00    +0.000 A 
ATOM     31  H   UNL     1      49.515   2.903  19.173  0.00  0.00    +0.000 HD
ENDBRANCH  20  21
ENDBRANCH  17  20
ENDBRANCH   1  17
TORSDOF 8
ENDMDL
MODEL 4
REMARK VINA RESULT:    -7.416      2.061      2.511
REMARK INTER + INTRA:         -11.637
REMARK INTER:                 -10.734
REMARK INTRA:                  -0.903
REMARK UNBOUND:                -0.753
REMARK  Name = 
REMARK  9 active torsions:
REMARK  status: ('A' for Active; 'I' for Inactive)
REMARK    1  A    between atoms: C_1  and  C_2
REMARK    2  A    between atoms: C_2  and  N_3
REMARK    3  A    between atoms: C_2  and  C_20
REMARK    4  A    between atoms: N_3  and  C_4
REMARK    5  A    between atoms: C_4  and  C_5
REMARK    6  A    between atoms: C_8  and  C_9
REMARK    7  A    between atoms: C_9  and  O_10
REMARK    8  A    between atoms: O_10  and  C_11
REMARK    9  A    between atoms: C_11  and  C_12
REMARK                            x       y       z     vdW  Elec       q    Type
REMARK                         _______ _______ _______ _____ _____    ______ ____
ROOT
ATOM      1  C   UNL     1      47.903   7.346  13.362  0.00  0.00    +0.000 C 
ENDROOT
BRANCH   1   2
ATOM      2  C   UNL     1      46.990   6.310  12.729  0.00  0.00    +0.000 A 
ATOM      3  C   UNL     1      46.549   6.470  11.414  0.00  0.00    +0.000 A 
ATOM      4  C   UNL     1      45.634   5.554  10.894  0.00  0.00    +0.000 A 
ATOM      5  C   UNL     1      45.176   4.503  11.686  0.00  0.00    +0.000 A 
ATOM      6  C   UNL     1      45.683   4.412  12.978  0.00  0.00    +0.000 A 
ATOM      7  N   UNL     1      46.570   5.284  13.510  0.00  0.00    +0.000 NA
BRANCH   5   8
ATOM      8  C   UNL     1      44.175   3.503  11.191  0.00  0.00    +0.000 C 
BRANCH   8   9
ATOM      9  O   UNL     1      44.249   3.463   9.769  0.00  0.00    +0.000 OA
BRANCH   9  10
ATOM     10  C   UNL     1      44.574   2.162   9.284  0.00  0.00    +0.000 C 
BRANCH  10  11
ATOM     11  C   UNL     1      45.705   2.249   8.298  0.00  0.00    +0.000 A 
ATOM     12  C   UNL     1      46.029   3.429   7.623  0.00  0.00    +0.000 A 
ATOM     13  C   UNL     1      47.083   3.441   6.711  0.00  0.00    +0.000 A 
ATOM     14  C   UNL     1      47.769   2.259   6.489  0.00  0.00    +0.000 A 
ATOM     15  N   UNL     1      47.471   1.092   7.098  0.00  0.00    +0.000 NA
ATOM     16  C   UNL     1      46.448   1.114   7.982  0.00  0.00    +0.000 A 
ENDBRANCH  10  11
ENDBRANCH   9  10
ENDBRANCH   8   9
ENDBRANCH   5   8
ENDBRANCH   1   2
BRANCH   1  17
ATOM     17  N   UNL     1      48.923   6.759  14.232  0.00  0.00    +0.000 NA
ATOM     18  H   UNL     1      49.601   6.260  13.660  0.00  0.00    +0.000 HD
BRANCH  17  20
ATOM     19  C   UNL     1      48.695   8.498  16.028  0.00  0.00    +0.000 C 
ATOM     20  C   UNL     1      49.623   7.743  15.066  0.00  0.00    +0.000 C 
BRANCH  20  21
ATOM     21  C   UNL     1      50.696   6.981  15.820  0.00  0.00    +0.000 A 
ATOM     22  C   UNL     1      52.050   7.283  15.762  0.00  0.00    +0.000 A 
ATOM     23  S   UNL     1      53.011   6.279  16.752  0.00  0.00    +0.000 S 
ATOM     24  C   UNL     1      51.651   5.411  17.294  0.00  0.00    +0.000 A 
ATOM     25  N   UNL     1      51.777   4.402  18.199  0.00  0.00    +0.000 NA
ATOM     26  C   UNL     1      50.659   3.852  18.539  0.00  0.00    +0.000 A 
ATOM     27  N   UNL     1      49.429   4.209  18.047  0.00  0.00    +0.000 N 
ATOM     28  C   UNL     1      49.256   5.181  17.087  0.00  0.00    +0.000 A 
ATOM     29  O   UNL     1      48.152   5.412  16.604  0.00  0.00    +0.000 OA
ATOM     30  C   UNL     1      50.482   5.864  16.711  0.00  0.00    +0.000 A 
ATOM     31  H   UNL     1      48.596   3.718  18.338  0.00  0.00    +0.000 HD
ENDBRANCH  20  21
ENDBRANCH  17  20
ENDBRANCH   1  17
TORSDOF 8
ENDMDL
MODEL 5
REMARK VINA RESULT:    -7.050      2.765      3.826
REMARK INTER + INTRA:         -11.101
REMARK INTER:                 -10.355
REMARK INTRA:                  -0.745
REMARK UNBOUND:                -0.753
REMARK  Name = 
REMARK  9 active torsions:
REMARK  status: ('A' for Active; 'I' for Inactive)
REMARK    1  A    between atoms: C_1  and  C_2
REMARK    2  A    between atoms: C_2  and  N_3
REMARK    3  A    between atoms: C_2  and  C_20
REMARK    4  A    between atoms: N_3  and  C_4
REMARK    5  A    between atoms: C_4  and  C_5
REMARK    6  A    between atoms: C_8  and  C_9
REMARK    7  A    between atoms: C_9  and  O_10
REMARK    8  A    between atoms: O_10  and  C_11
REMARK    9  A    between atoms: C_11  and  C_12
REMARK                            x       y       z     vdW  Elec       q    Type
REMARK                         _______ _______ _______ _____ _____    ______ ____
ROOT
ATOM      1  C   UNL     1      48.687   7.073  14.006  0.00  0.00    +0.000 C 
ENDROOT
BRANCH   1   2
ATOM      2  C   UNL     1      47.660   6.137  13.389  0.00  0.00    +0.000 A 
ATOM      3  C   UNL     1      46.909   6.546  12.286  0.00  0.00    +0.000 A 
ATOM      4  C   UNL     1      45.907   5.703  11.805  0.00  0.00    +0.000 A 
ATOM      5  C   UNL     1      45.671   4.478  12.424  0.00  0.00    +0.000 A 
ATOM      6  C   UNL     1      46.481   4.146  13.506  0.00  0.00    +0.000 A 
ATOM      7  N   UNL     1      47.459   4.941  13.996  0.00  0.00    +0.000 NA
BRANCH   5   8
ATOM      8  C   UNL     1      44.594   3.542  11.967  0.00  0.00    +0.000 C 
BRANCH   8   9
ATOM      9  O   UNL     1      44.335   3.796  10.590  0.00  0.00    +0.000 OA
BRANCH   9  10
ATOM     10  C   UNL     1      44.276   2.596   9.823  0.00  0.00    +0.000 C 
BRANCH  10  11
ATOM     11  C   UNL     1      45.311   2.630   8.735  0.00  0.00    +0.000 A 
ATOM     12  C   UNL     1      46.073   1.512   8.381  0.00  0.00    +0.000 A 
ATOM     13  C   UNL     1      47.025   1.612   7.369  0.00  0.00    +0.000 A 
ATOM     14  C   UNL     1      47.200   2.840   6.754  0.00  0.00    +0.000 A 
ATOM     15  N   UNL     1      46.507   3.950   7.083  0.00  0.00    +0.000 NA
ATOM     16  C   UNL     1      45.585   3.820   8.064  0.00  0.00    +0.000 A 
ENDBRANCH  10  11
ENDBRANCH   9  10
ENDBRANCH   8   9
ENDBRANCH   5   8
ENDBRANCH   1   2
BRANCH   1  17
ATOM     17  N   UNL     1      48.607   7.132  15.466  0.00  0.00    +0.000 NA
ATOM     18  H   UNL     1      47.756   6.666  15.771  0.00  0.00    +0.000 HD
BRANCH  17  20
ATOM     19  C   UNL     1      50.914   7.513  16.380  0.00  0.00    +0.000 C 
ATOM     20  C   UNL     1      49.760   6.528  16.143  0.00  0.00    +0.000 C 
BRANCH  20  21
ATOM     21  C   UNL     1      49.242   5.962  17.451  0.00  0.00    +0.000 A 
ATOM     22  C   UNL     1      49.347   4.627  17.817  0.00  0.00    +0.000 A 
ATOM     23  S   UNL     1      48.712   4.295  19.365  0.00  0.00    +0.000 S 
ATOM     24  C   UNL     1      48.278   5.924  19.601  0.00  0.00    +0.000 A 
ATOM     25  N   UNL     1      47.697   6.335  20.761  0.00  0.00    +0.000 NA
ATOM     26  C   UNL     1      47.450   7.602  20.810  0.00  0.00    +0.000 A 
ATOM     27  N   UNL     1      47.718   8.493  19.802  0.00  0.00    +0.000 N 
ATOM     28  C   UNL     1      48.250   8.116  18.588  0.00  0.00    +0.000 A 
ATOM     29  O   UNL     1      48.392   8.924  17.676  0.00  0.00    +0.000 OA
ATOM     30  C   UNL     1      48.593   6.707  18.505  0.00  0.00    +0.000 A 
ATOM     31  H   UNL     1      47.474   9.467  19.897  0.00  0.00    +0.000 HD
ENDBRANCH  20  21
ENDBRANCH  17  20
ENDBRANCH   1  17
TORSDOF 8
ENDMDL
MODEL 6
REMARK VINA RESULT:    -6.886      2.990      3.873
REMARK INTER + INTRA:         -10.860
REMARK INTER:                  -9.867
REMARK INTRA:                  -0.993
REMARK UNBOUND:                -0.753
REMARK  Name = 
REMARK  9 active torsions:
REMARK  status: ('A' for Active; 'I' for Inactive)
REMARK    1  A    between atoms: C_1  and  C_2
REMARK    2  A    between atoms: C_2  and  N_3
REMARK    3  A    between atoms: C_2  and  C_20
REMARK    4  A    between atoms: N_3  and  C_4
REMARK    5  A    between atoms: C_4  and  C_5
REMARK    6  A    between atoms: C_8  and  C_9
REMARK    7  A    between atoms: C_9  and  O_10
REMARK    8  A    between atoms: O_10  and  C_11
REMARK    9  A    between atoms: C_11  and  C_12
REMARK                            x       y       z     vdW  Elec       q    Type
REMARK                         _______ _______ _______ _____ _____    ______ ____
ROOT
ATOM      1  C   UNL     1      47.011   4.799  15.239  0.00  0.00    +0.000 C 
ENDROOT
BRANCH   1   2
ATOM      2  C   UNL     1      46.301   4.723  13.898  0.00  0.00    +0.000 A 
ATOM      3  C   UNL     1      45.916   5.891  13.239  0.00  0.00    +0.000 A 
ATOM      4  C   UNL     1      45.179   5.787  12.058  0.00  0.00    +0.000 A 
ATOM      5  C   UNL     1      44.840   4.530  11.559  0.00  0.00    +0.000 A 
ATOM      6  C   UNL     1      45.281   3.421  12.274  0.00  0.00    +0.000 A 
ATOM      7  N   UNL     1      45.997   3.491  13.420  0.00  0.00    +0.000 NA
BRANCH   5   8
ATOM      8  C   UNL     1      44.030   4.356  10.311  0.00  0.00    +0.000 C 
BRANCH   8   9
ATOM      9  O   UNL     1      44.886   4.560   9.190  0.00  0.00    +0.000 OA
BRANCH   9  10
ATOM     10  C   UNL     1      44.540   3.722   8.090  0.00  0.00    +0.000 C 
BRANCH  10  11
ATOM     11  C   UNL     1      45.734   2.916   7.662  0.00  0.00    +0.000 A 
ATOM     12  C   UNL     1      45.963   1.610   8.107  0.00  0.00    +0.000 A 
ATOM     13  C   UNL     1      47.096   0.921   7.682  0.00  0.00    +0.000 A 
ATOM     14  C   UNL     1      47.979   1.570   6.835  0.00  0.00    +0.000 A 
ATOM     15  N   UNL     1      47.810   2.838   6.404  0.00  0.00    +0.000 NA
ATOM     16  C   UNL     1      46.698   3.479   6.829  0.00  0.00    +0.000 A 
ENDBRANCH  10  11
ENDBRANCH   9  10
ENDBRANCH   8   9
ENDBRANCH   5   8
ENDBRANCH   1   2
BRANCH   1  17
ATOM     17  N   UNL     1      48.360   5.359  15.144  0.00  0.00    +0.000 NA
ATOM     18  H   UNL     1      48.413   5.959  14.324  0.00  0.00    +0.000 HD
BRANCH  17  20
ATOM     19  C   UNL     1      48.800   5.283  17.614  0.00  0.00    +0.000 C 
ATOM     20  C   UNL     1      48.765   6.124  16.330  0.00  0.00    +0.000 C 
BRANCH  20  21
ATOM     21  C   UNL     1      50.128   6.710  16.018  0.00  0.00    +0.000 A 
ATOM     22  C   UNL     1      51.302   6.327  16.652  0.00  0.00    +0.000 A 
ATOM     23  S   UNL     1      52.686   7.131  16.060  0.00  0.00    +0.000 S 
ATOM     24  C   UNL     1      51.765   8.014  14.934  0.00  0.00    +0.000 A 
ATOM     25  N   UNL     1      52.355   8.889  14.075  0.00  0.00    +0.000 NA
ATOM     26  C   UNL     1      51.536   9.465  13.259  0.00  0.00    +0.000 A 
ATOM     27  N   UNL     1      50.180   9.257  13.232  0.00  0.00    +0.000 N 
ATOM     28  C   UNL     1      49.529   8.428  14.119  0.00  0.00    +0.000 A 
ATOM     29  O   UNL     1      48.306   8.336  14.125  0.00  0.00    +0.000 OA
ATOM     30  C   UNL     1      50.417   7.717  15.023  0.00  0.00    +0.000 A 
ATOM     31  H   UNL     1      49.595   9.762  12.584  0.00  0.00    +0.000 HD
ENDBRANCH  20  21
ENDBRANCH  17  20
ENDBRANCH   1  17
TORSDOF 8
ENDMDL
MODEL 7
REMARK VINA RESULT:    -6.815      4.069      8.854
REMARK INTER + INTRA:         -10.756
REMARK INTER:                  -9.119
REMARK INTRA:                  -1.637
REMARK UNBOUND:                -0.753
REMARK  Name = 
REMARK  9 active torsions:
REMARK  status: ('A' for Active; 'I' for Inactive)
REMARK    1  A    between atoms: C_1  and  C_2
REMARK    2  A    between atoms: C_2  and  N_3
REMARK    3  A    between atoms: C_2  and  C_20
REMARK    4  A    between atoms: N_3  and  C_4
REMARK    5  A    between atoms: C_4  and  C_5
REMARK    6  A    between atoms: C_8  and  C_9
REMARK    7  A    between atoms: C_9  and  O_10
REMARK    8  A    between atoms: O_10  and  C_11
REMARK    9  A    between atoms: C_11  and  C_12
REMARK                            x       y       z     vdW  Elec       q    Type
REMARK                         _______ _______ _______ _____ _____    ______ ____
ROOT
ATOM      1  C   UNL     1      48.251   9.267  14.274  0.00  0.00    +0.000 C 
ENDROOT
BRANCH   1   2
ATOM      2  C   UNL     1      48.637   8.687  15.624  0.00  0.00    +0.000 A 
ATOM      3  C   UNL     1      49.440   7.548  15.697  0.00  0.00    +0.000 A 
ATOM      4  C   UNL     1      49.696   6.983  16.947  0.00  0.00    +0.000 A 
ATOM      5  C   UNL     1      49.152   7.557  18.094  0.00  0.00    +0.000 A 
ATOM      6  C   UNL     1      48.378   8.702  17.927  0.00  0.00    +0.000 A 
ATOM      7  N   UNL     1      48.113   9.272  16.730  0.00  0.00    +0.000 NA
BRANCH   5   8
ATOM      8  C   UNL     1      49.372   6.982  19.460  0.00  0.00    +0.000 C 
BRANCH   8   9
ATOM      9  O   UNL     1      48.262   6.147  19.778  0.00  0.00    +0.000 OA
BRANCH   9  10
ATOM     10  C   UNL     1      48.641   4.779  19.911  0.00  0.00    +0.000 C 
BRANCH  10  11
ATOM     11  C   UNL     1      48.436   4.059  18.609  0.00  0.00    +0.000 A 
ATOM     12  C   UNL     1      49.379   3.173  18.078  0.00  0.00    +0.000 A 
ATOM     13  C   UNL     1      49.134   2.546  16.859  0.00  0.00    +0.000 A 
ATOM     14  C   UNL     1      47.955   2.840  16.196  0.00  0.00    +0.000 A 
ATOM     15  N   UNL     1      47.031   3.709  16.659  0.00  0.00    +0.000 NA
ATOM     16  C   UNL     1      47.294   4.297  17.848  0.00  0.00    +0.000 A 
ENDBRANCH  10  11
ENDBRANCH   9  10
ENDBRANCH   8   9
ENDBRANCH   5   8
ENDBRANCH   1   2
BRANCH   1  17
ATOM     17  N   UNL     1      46.948   8.800  13.799  0.00  0.00    +0.000 NA
ATOM     18  H   UNL     1      46.309   9.591  13.749  0.00  0.00    +0.000 HD
BRANCH  17  20
ATOM     19  C   UNL     1      48.431   7.904  11.983  0.00  0.00    +0.000 C 
ATOM     20  C   UNL     1      47.001   8.138  12.490  0.00  0.00    +0.000 C 
BRANCH  20  21
ATOM     21  C   UNL     1      46.249   6.829  12.640  0.00  0.00    +0.000 A 
ATOM     22  C   UNL     1      46.769   5.701  13.261  0.00  0.00    +0.000 A 
ATOM     23  S   UNL     1      45.675   4.393  13.317  0.00  0.00    +0.000 S 
ATOM     24  C   UNL     1      44.469   5.290  12.518  0.00  0.00    +0.000 A 
ATOM     25  N   UNL     1      43.244   4.753  12.267  0.00  0.00    +0.000 NA
ATOM     26  C   UNL     1      42.423   5.558  11.680  0.00  0.00    +0.000 A 
ATOM     27  N   UNL     1      42.716   6.846  11.310  0.00  0.00    +0.000 N 
ATOM     28  C   UNL     1      43.959   7.414  11.488  0.00  0.00    +0.000 A 
ATOM     29  O   UNL     1      44.213   8.537  11.063  0.00  0.00    +0.000 OA
ATOM     30  C   UNL     1      44.902   6.563  12.192  0.00  0.00    +0.000 A 
ATOM     31  H   UNL     1      42.033   7.413  10.831  0.00  0.00    +0.000 HD
ENDBRANCH  20  21
ENDBRANCH  17  20
ENDBRANCH   1  17
TORSDOF 8
ENDMDL
MODEL 8
REMARK VINA RESULT:    -6.413      3.324      8.697
REMARK INTER + INTRA:         -10.165
REMARK INTER:                  -9.247
REMARK INTRA:                  -0.917
REMARK UNBOUND:                -0.753
REMARK  Name = 
REMARK  9 active torsions:
REMARK  status: ('A' for Active; 'I' for Inactive)
REMARK    1  A    between atoms: C_1  and  C_2
REMARK    2  A    between atoms: C_2  and  N_3
REMARK    3  A    between atoms: C_2  and  C_20
REMARK    4  A    between atoms: N_3  and  C_4
REMARK    5  A    between atoms: C_4  and  C_5
REMARK    6  A    between atoms: C_8  and  C_9
REMARK    7  A    between atoms: C_9  and  O_10
REMARK    8  A    between atoms: O_10  and  C_11
REMARK    9  A    between atoms: C_11  and  C_12
REMARK                            x       y       z     vdW  Elec       q    Type
REMARK                         _______ _______ _______ _____ _____    ______ ____
ROOT
ATOM      1  C   UNL     1      48.842   6.643  12.463  0.00  0.00    +0.000 C 
ENDROOT
BRANCH   1   2
ATOM      2  C   UNL     1      48.804   6.750  13.979  0.00  0.00    +0.000 A 
ATOM      3  C   UNL     1      49.387   7.844  14.621  0.00  0.00    +0.000 A 
ATOM      4  C   UNL     1      49.422   7.865  16.016  0.00  0.00    +0.000 A 
ATOM      5  C   UNL     1      48.881   6.806  16.741  0.00  0.00    +0.000 A 
ATOM      6  C   UNL     1      48.305   5.767  16.017  0.00  0.00    +0.000 A 
ATOM      7  N   UNL     1      48.255   5.718  14.666  0.00  0.00    +0.000 NA
BRANCH   5   8
ATOM      8  C   UNL     1      48.910   6.762  18.239  0.00  0.00    +0.000 C 
BRANCH   8   9
ATOM      9  O   UNL     1      49.221   5.431  18.641  0.00  0.00    +0.000 OA
BRANCH   9  10
ATOM     10  C   UNL     1      50.625   5.224  18.777  0.00  0.00    +0.000 C 
BRANCH  10  11
ATOM     11  C   UNL     1      50.999   3.870  18.242  0.00  0.00    +0.000 A 
ATOM     12  C   UNL     1      52.278   3.325  18.395  0.00  0.00    +0.000 A 
ATOM     13  C   UNL     1      52.565   2.069  17.865  0.00  0.00    +0.000 A 
ATOM     14  C   UNL     1      51.564   1.403  17.180  0.00  0.00    +0.000 A 
ATOM     15  N   UNL     1      50.325   1.904  16.986  0.00  0.00    +0.000 NA
ATOM     16  C   UNL     1      50.075   3.122  17.517  0.00  0.00    +0.000 A 
ENDBRANCH  10  11
ENDBRANCH   9  10
ENDBRANCH   8   9
ENDBRANCH   5   8
ENDBRANCH   1   2
BRANCH   1  17
ATOM     17  N   UNL     1      47.669   7.231  11.815  0.00  0.00    +0.000 NA
ATOM     18  H   UNL     1      47.691   7.007  10.823  0.00  0.00    +0.000 HD
BRANCH  17  20
ATOM     19  C   UNL     1      45.430   7.929  12.710  0.00  0.00    +0.000 C 
ATOM     20  C   UNL     1      46.394   6.779  12.386  0.00  0.00    +0.000 C 
BRANCH  20  21
ATOM     21  C   UNL     1      45.789   5.821  11.378  0.00  0.00    +0.000 A 
ATOM     22  C   UNL     1      46.008   5.892  10.009  0.00  0.00    +0.000 A 
ATOM     23  S   UNL     1      45.230   4.653   9.132  0.00  0.00    +0.000 S 
ATOM     24  C   UNL     1      44.576   3.977  10.551  0.00  0.00    +0.000 A 
ATOM     25  N   UNL     1      43.810   2.854  10.506  0.00  0.00    +0.000 NA
ATOM     26  C   UNL     1      43.407   2.440  11.661  0.00  0.00    +0.000 A 
ATOM     27  N   UNL     1      43.689   3.053  12.856  0.00  0.00    +0.000 N 
ATOM     28  C   UNL     1      44.410   4.224  12.948  0.00  0.00    +0.000 A 
ATOM     29  O   UNL     1      44.566   4.794  14.023  0.00  0.00    +0.000 OA
ATOM     30  C   UNL     1      44.928   4.700  11.677  0.00  0.00    +0.000 A 
ATOM     31  H   UNL     1      43.320   2.690  13.721  0.00  0.00    +0.000 HD
ENDBRANCH  20  21
ENDBRANCH  17  20
ENDBRANCH   1  17
TORSDOF 8
ENDMDL
MODEL 9
REMARK VINA RESULT:    -6.015      2.857      3.513
REMARK INTER + INTRA:          -9.581
REMARK INTER:                  -9.939
REMARK INTRA:                   0.357
REMARK UNBOUND:                -0.753
REMARK  Name = 
REMARK  9 active torsions:
REMARK  status: ('A' for Active; 'I' for Inactive)
REMARK    1  A    between atoms: C_1  and  C_2
REMARK    2  A    between atoms: C_2  and  N_3
REMARK    3  A    between atoms: C_2  and  C_20
REMARK    4  A    between atoms: N_3  and  C_4
REMARK    5  A    between atoms: C_4  and  C_5
REMARK    6  A    between atoms: C_8  and  C_9
REMARK    7  A    between atoms: C_9  and  O_10
REMARK    8  A    between atoms: O_10  and  C_11
REMARK    9  A    between atoms: C_11  and  C_12
REMARK                            x       y       z     vdW  Elec       q    Type
REMARK                         _______ _______ _______ _____ _____    ______ ____
ROOT
ATOM      1  C   UNL     1      47.412   7.681  13.343  0.00  0.00    +0.000 C 
ENDROOT
BRANCH   1   2
ATOM      2  C   UNL     1      46.411   6.585  13.018  0.00  0.00    +0.000 A 
ATOM      3  C   UNL     1      45.074   6.902  12.773  0.00  0.00    +0.000 A 
ATOM      4  C   UNL     1      44.161   5.866  12.575  0.00  0.00    +0.000 A 
ATOM      5  C   UNL     1      44.592   4.541  12.624  0.00  0.00    +0.000 A 
ATOM      6  C   UNL     1      45.945   4.320  12.857  0.00  0.00    +0.000 A 
ATOM      7  N   UNL     1      46.854   5.303  13.052  0.00  0.00    +0.000 NA
BRANCH   5   8
ATOM      8  C   UNL     1      43.654   3.386  12.443  0.00  0.00    +0.000 C 
BRANCH   8   9
ATOM      9  O   UNL     1      43.192   3.392  11.096  0.00  0.00    +0.000 OA
BRANCH   9  10
ATOM     10  C   UNL     1      43.871   4.360  10.299  0.00  0.00    +0.000 C 
BRANCH  10  11
ATOM     11  C   UNL     1      44.778   3.673   9.318  0.00  0.00    +0.000 A 
ATOM     12  C   UNL     1      44.961   2.287   9.301  0.00  0.00    +0.000 A 
ATOM     13  C   UNL     1      45.827   1.712   8.373  0.00  0.00    +0.000 A 
ATOM     14  C   UNL     1      46.499   2.549   7.499  0.00  0.00    +0.000 A 
ATOM     15  N   UNL     1      46.373   3.893   7.499  0.00  0.00    +0.000 NA
ATOM     16  C   UNL     1      45.521   4.421   8.407  0.00  0.00    +0.000 A 
ENDBRANCH  10  11
ENDBRANCH   9  10
ENDBRANCH   8   9
ENDBRANCH   5   8
ENDBRANCH   1   2
BRANCH   1  17
ATOM     17  N   UNL     1      47.703   7.789  14.773  0.00  0.00    +0.000 NA
ATOM     18  H   UNL     1      48.185   6.946  15.078  0.00  0.00    +0.000 HD
BRANCH  17  20
ATOM     19  C   UNL     1      48.164   9.556  16.495  0.00  0.00    +0.000 C 
ATOM     20  C   UNL     1      48.512   8.963  15.122  0.00  0.00    +0.000 C 
BRANCH  20  21
ATOM     21  C   UNL     1      49.961   8.518  15.065  0.00  0.00    +0.000 A 
ATOM     22  C   UNL     1      50.930   9.127  14.280  0.00  0.00    +0.000 A 
ATOM     23  S   UNL     1      52.480   8.435  14.457  0.00  0.00    +0.000 S 
ATOM     24  C   UNL     1      51.909   7.302  15.592  0.00  0.00    +0.000 A 
ATOM     25  N   UNL     1      52.751   6.404  16.172  0.00  0.00    +0.000 NA
ATOM     26  C   UNL     1      52.184   5.626  17.034  0.00  0.00    +0.000 A 
ATOM     27  N   UNL     1      50.851   5.654  17.359  0.00  0.00    +0.000 N 
ATOM     28  C   UNL     1      49.949   6.504  16.756  0.00  0.00    +0.000 A 
ATOM     29  O   UNL     1      48.749   6.440  17.005  0.00  0.00    +0.000 OA
ATOM     30  C   UNL     1      50.551   7.434  15.816  0.00  0.00    +0.000 A 
ATOM     31  H   UNL     1      50.469   4.999  18.023  0.00  0.00    +0.000 HD
ENDBRANCH  20  21
ENDBRANCH  17  20
ENDBRANCH   1  17
TORSDOF 8
ENDMDL
