MODEL 1
REMARK VINA RESULT:    -7.712      0.000      0.000
REMARK INTER + INTRA:         -10.018
REMARK INTER:                  -9.515
REMARK INTRA:                  -0.502
REMARK UNBOUND:                -0.502
REMARK  Name = 
REMARK  4 active torsions:
REMARK  status: ('A' for Active; 'I' for Inactive)
REMARK    1  A    between atoms: C_5  and  N_6
REMARK    2  A    between atoms: N_6  and  C_7
REMARK    3  A    between atoms: C_7  and  C_8
REMARK    4  A    between atoms: C_12  and  C_13
REMARK                            x       y       z     vdW  Elec       q    Type
REMARK                         _______ _______ _______ _____ _____    ______ ____
ROOT
ATOM      1  C   UNL     1      44.228   3.674  10.841  0.00  0.00    +0.000 A 
ATOM      2  C   UNL     1      43.166   3.654  11.743  0.00  0.00    +0.000 A 
ATOM      3  C   UNL     1      43.266   4.395  12.910  0.00  0.00    +0.000 A 
ATOM      4  C   UNL     1      44.417   5.140  13.148  0.00  0.00    +0.000 A 
ATOM      5  C   UNL     1      45.447   5.131  12.207  0.00  0.00    +0.000 A 
ATOM      6  N   UNL     1      45.350   4.420  11.053  0.00  0.00    +0.000 NA
ENDROOT
BRANCH   5   7
ATOM      7  C   UNL     1      46.690   5.881  12.404  0.00  0.00    +0.000 A 
ATOM      8  C   UNL     1      47.144   6.864  11.535  0.00  0.00    +0.000 A 
ATOM      9  N   UNL     1      48.305   7.543  11.664  0.00  0.00    +0.000 NA
ATOM     10  C   UNL     1      49.042   7.224  12.735  0.00  0.00    +0.000 A 
ATOM     11  N   UNL     1      48.720   6.316  13.666  0.00  0.00    +0.000 NA
ATOM     12  C   UNL     1      47.543   5.672  13.477  0.00  0.00    +0.000 A 
ENDBRANCH   5   7
BRANCH   1  13
ATOM     13  C   UNL     1      44.148   2.849   9.569  0.00  0.00    +0.000 C 
BRANCH  13  14
ATOM     14  N   UNL     1      45.379   2.090   9.361  0.00  0.00    +0.000 N 
ATOM     15  H   UNL     1      45.328   1.145   9.737  0.00  0.00    +0.000 HD
BRANCH  14  20
ATOM     16  C   UNL     1      46.864   3.323   6.167  0.00  0.00    +0.000 A 
ATOM     17  C   UNL     1      47.672   2.236   5.889  0.00  0.00    +0.000 A 
ATOM     18  N   UNL     1      47.715   1.130   6.656  0.00  0.00    +0.000 NA
ATOM     19  C   UNL     1      46.919   1.127   7.755  0.00  0.00    +0.000 A 
ATOM     20  C   UNL     1      46.054   2.159   8.140  0.00  0.00    +0.000 A 
ATOM     21  C   UNL     1      46.058   3.280   7.307  0.00  0.00    +0.000 A 
ENDBRANCH  14  20
ENDBRANCH  13  14
ENDBRANCH   1  13
TORSDOF 4
ENDMDL
MODEL 2
REMARK VINA RESULT:    -7.379      1.864      2.795
REMARK INTER + INTRA:          -9.607
REMARK INTER:                  -9.057
REMARK INTRA:                  -0.550
REMARK UNBOUND:                -0.502
REMARK  Name = 
REMARK  4 active torsions:
REMARK  status: ('A' for Active; 'I' for Inactive)
REMARK    1  A    between atoms: C_5  and  N_6
REMARK    2  A    between atoms: N_6  and  C_7
REMARK    3  A    between atoms: C_7  and  C_8
REMARK    4  A    between atoms: C_12  and  C_13
REMARK                            x       y       z     vdW  Elec       q    Type
REMARK                         _______ _______ _______ _____ _____    ______ ____
ROOT
ATOM      1  C   UNL     1      45.019   4.524  11.305  0.00  0.00    +0.000 A 
ATOM      2  C   UNL     1      45.123   5.779  10.710  0.00  0.00    +0.000 A 
ATOM      3  C   UNL     1      45.925   6.738  11.309  0.00  0.00    +0.000 A 
ATOM      4  C   UNL     1      46.606   6.422  12.480  0.00  0.00    +0.000 A 
ATOM      5  C   UNL     1      46.474   5.146  13.029  0.00  0.00    +0.000 A 
ATOM      6  N   UNL     1      45.702   4.196  12.439  0.00  0.00    +0.000 NA
ENDROOT
BRANCH   5   7
ATOM      7  C   UNL     1      47.152   4.755  14.267  0.00  0.00    +0.000 A 
ATOM      8  C   UNL     1      47.202   3.452  14.741  0.00  0.00    +0.000 A 
ATOM      9  N   UNL     1      47.781   3.064  15.899  0.00  0.00    +0.000 NA
ATOM     10  C   UNL     1      48.353   4.043  16.611  0.00  0.00    +0.000 A 
ATOM     11  N   UNL     1      48.401   5.337  16.268  0.00  0.00    +0.000 NA
ATOM     12  C   UNL     1      47.802   5.657  15.096  0.00  0.00    +0.000 A 
ENDBRANCH   5   7
BRANCH   1  13
ATOM     13  C   UNL     1      44.125   3.468  10.679  0.00  0.00    +0.000 C 
BRANCH  13  14
ATOM     14  N   UNL     1      44.126   3.581   9.222  0.00  0.00    +0.000 N 
ATOM     15  H   UNL     1      43.951   4.532   8.901  0.00  0.00    +0.000 HD
BRANCH  14  20
ATOM     16  C   UNL     1      46.960   2.830   6.913  0.00  0.00    +0.000 A 
ATOM     17  C   UNL     1      47.141   1.500   7.244  0.00  0.00    +0.000 A 
ATOM     18  N   UNL     1      46.367   0.845   8.130  0.00  0.00    +0.000 NA
ATOM     19  C   UNL     1      45.378   1.568   8.716  0.00  0.00    +0.000 A 
ATOM     20  C   UNL     1      45.090   2.914   8.462  0.00  0.00    +0.000 A 
ATOM     21  C   UNL     1      45.930   3.538   7.537  0.00  0.00    +0.000 A 
ENDBRANCH  14  20
ENDBRANCH  13  14
ENDBRANCH   1  13
TORSDOF 4
ENDMDL
MODEL 3
REMARK VINA RESULT:    -7.373      1.846      2.379
REMARK INTER + INTRA:          -9.599
REMARK INTER:                  -9.119
REMARK INTRA:                  -0.481
REMARK UNBOUND:                -0.502
REMARK  Name = 
REMARK  4 active torsions:
REMARK  status: ('A' for Active; 'I' for Inactive)
REMARK    1  A    between atoms: C_5  and  N_6
REMARK    2  A    between atoms: N_6  and  C_7
REMARK    3  A    between atoms: C_7  and  C_8
REMARK    4  A    between atoms: C_12  and  C_13
REMARK                            x       y       z     vdW  Elec       q    Type
REMARK                         _______ _______ _______ _____ _____    ______ ____
ROOT
ATOM      1  C   UNL     1      44.841   4.010  11.140  0.00  0.00    +0.000 A 
ATOM      2  C   UNL     1      45.399   3.297  12.199  0.00  0.00    +0.000 A 
ATOM      3  C   UNL     1      46.018   3.997  13.222  0.00  0.00    +0.000 A 
ATOM      4  C   UNL     1      46.061   5.387  13.169  0.00  0.00    +0.000 A 
ATOM      5  C   UNL     1      45.479   6.051  12.089  0.00  0.00    +0.000 A 
ATOM      6  N   UNL     1      44.857   5.372  11.089  0.00  0.00    +0.000 NA
ENDROOT
BRANCH   5   7
ATOM      7  C   UNL     1      45.504   7.511  11.965  0.00  0.00    +0.000 A 
ATOM      8  C   UNL     1      46.522   8.309  12.467  0.00  0.00    +0.000 A 
ATOM      9  N   UNL     1      46.555   9.659  12.408  0.00  0.00    +0.000 NA
ATOM     10  C   UNL     1      45.511  10.234  11.798  0.00  0.00    +0.000 A 
ATOM     11  N   UNL     1      44.472   9.590  11.249  0.00  0.00    +0.000 NA
ATOM     12  C   UNL     1      44.502   8.239  11.343  0.00  0.00    +0.000 A 
ENDBRANCH   5   7
BRANCH   1  13
ATOM     13  C   UNL     1      44.181   3.260   9.995  0.00  0.00    +0.000 C 
BRANCH  13  14
ATOM     14  N   UNL     1      45.000   2.125   9.575  0.00  0.00    +0.000 N 
ATOM     15  H   UNL     1      44.538   1.230   9.723  0.00  0.00    +0.000 HD
BRANCH  14  20
ATOM     16  C   UNL     1      46.720   3.342   6.495  0.00  0.00    +0.000 A 
ATOM     17  C   UNL     1      47.422   2.191   6.189  0.00  0.00    +0.000 A 
ATOM     18  N   UNL     1      47.322   1.052   6.900  0.00  0.00    +0.000 NA
ATOM     19  C   UNL     1      46.490   1.082   7.972  0.00  0.00    +0.000 A 
ATOM     20  C   UNL     1      45.723   2.179   8.380  0.00  0.00    +0.000 A 
ATOM     21  C   UNL     1      45.873   3.331   7.605  0.00  0.00    +0.000 A 
ENDBRANCH  14  20
ENDBRANCH  13  14
ENDBRANCH   1  13
TORSDOF 4
ENDMDL
MODEL 4
REMARK VINA RESULT:    -7.342      1.535      2.099
REMARK INTER + INTRA:          -9.561
REMARK INTER:                  -9.091
REMARK INTRA:                  -0.470
REMARK UNBOUND:                -0.502
REMARK  Name = 
REMARK  4 active torsions:
REMARK  status: ('A' for Active; 'I' for Inactive)
REMARK    1  A    between atoms: C_5  and  N_6
REMARK    2  A    between atoms: N_6  and  C_7
REMARK    3  A    between atoms: C_7  and  C_8
REMARK    4  A    between atoms: C_12  and  C_13
REMARK                            x       y       z     vdW  Elec       q    Type
REMARK                         _______ _______ _______ _____ _____    ______ ____
ROOT
ATOM      1  C   UNL     1      44.894   4.488  11.298  0.00  0.00    +0.000 A 
ATOM      2  C   UNL     1      45.186   3.535  12.272  0.00  0.00    +0.000 A 
ATOM      3  C   UNL     1      46.112   3.847  13.255  0.00  0.00    +0.000 A 
ATOM      4  C   UNL     1      46.719   5.099  13.246  0.00  0.00    +0.000 A 
ATOM      5  C   UNL     1      46.384   6.018  12.252  0.00  0.00    +0.000 A 
ATOM      6  N   UNL     1      45.465   5.726  11.295  0.00  0.00    +0.000 NA
ENDROOT
BRANCH   5   7
ATOM      7  C   UNL     1      46.998   7.347  12.179  0.00  0.00    +0.000 A 
ATOM      8  C   UNL     1      46.340   8.520  12.517  0.00  0.00    +0.000 A 
ATOM      9  N   UNL     1      46.862   9.763  12.420  0.00  0.00    +0.000 NA
ATOM     10  C   UNL     1      48.121   9.824  11.970  0.00  0.00    +0.000 A 
ATOM     11  N   UNL     1      48.883   8.777  11.628  0.00  0.00    +0.000 NA
ATOM     12  C   UNL     1      48.299   7.560  11.749  0.00  0.00    +0.000 A 
ENDBRANCH   5   7
BRANCH   1  13
ATOM     13  C   UNL     1      43.901   4.156  10.198  0.00  0.00    +0.000 C 
BRANCH  13  14
ATOM     14  N   UNL     1      44.486   4.390   8.880  0.00  0.00    +0.000 N 
ATOM     15  H   UNL     1      44.853   5.334   8.774  0.00  0.00    +0.000 HD
BRANCH  14  20
ATOM     16  C   UNL     1      47.124   2.687   6.863  0.00  0.00    +0.000 A 
ATOM     17  C   UNL     1      46.998   1.418   7.399  0.00  0.00    +0.000 A 
ATOM     18  N   UNL     1      46.081   1.096   8.331  0.00  0.00    +0.000 NA
ATOM     19  C   UNL     1      45.268   2.099   8.749  0.00  0.00    +0.000 A 
ATOM     20  C   UNL     1      45.291   3.418   8.280  0.00  0.00    +0.000 A 
ATOM     21  C   UNL     1      46.266   3.691   7.319  0.00  0.00    +0.000 A 
ENDBRANCH  14  20
ENDBRANCH  13  14
ENDBRANCH   1  13
TORSDOF 4
ENDMDL
MODEL 5
REMARK VINA RESULT:    -6.976      1.286      6.045
REMARK INTER + INTRA:          -9.110
REMARK INTER:                  -8.547
REMARK INTRA:                  -0.563
REMARK UNBOUND:                -0.502
REMARK  Name = 
REMARK  4 active torsions:
REMARK  status: ('A' for Active; 'I' for Inactive)
REMARK    1  A    between atoms: C_5  and  N_6
REMARK    2  A    between atoms: N_6  and  C_7
REMARK    3  A    between atoms: C_7  and  C_8
REMARK    4  A    between atoms: C_12  and  C_13
REMARK                            x       y       z     vdW  Elec       q    Type
REMARK                         _______ _______ _______ _____ _____    ______ ____
ROOT
ATOM      1  C   UNL     1      44.380   4.927  11.614  0.00  0.00    +0.000 A 
ATOM      2  C   UNL     1      43.519   4.041  12.258  0.00  0.00    +0.000 A 
ATOM      3  C   UNL     1      43.325   2.782  11.711  0.00  0.00    +0.000 A 
ATOM      4  C   UNL     1      43.996   2.436  10.542  0.00  0.00    +0.000 A 
ATOM      5  C   UNL     1      44.853   3.360   9.943  0.00  0.00    +0.000 A 
ATOM      6  N   UNL     1      45.060   4.590  10.482  0.00  0.00    +0.000 NA
ENDROOT
BRANCH   5   7
ATOM      7  C   UNL     1      45.576   3.064   8.704  0.00  0.00    +0.000 A 
ATOM      8  C   UNL     1      46.050   1.802   8.371  0.00  0.00    +0.000 A 
ATOM      9  N   UNL     1      46.758   1.504   7.259  0.00  0.00    +0.000 NA
ATOM     10  C   UNL     1      46.988   2.530   6.431  0.00  0.00    +0.000 A 
ATOM     11  N   UNL     1      46.573   3.792   6.612  0.00  0.00    +0.000 NA
ATOM     12  C   UNL     1      45.870   4.022   7.746  0.00  0.00    +0.000 A 
ENDBRANCH   5   7
BRANCH   1  13
ATOM     13  C   UNL     1      44.585   6.320  12.184  0.00  0.00    +0.000 C 
BRANCH  13  14
ATOM     14  N   UNL     1      45.578   6.304  13.256  0.00  0.00    +0.000 N 
ATOM     15  H   UNL     1      45.469   5.508  13.881  0.00  0.00    +0.000 HD
BRANCH  14  20
ATOM     16  C   UNL     1      48.684   7.670  11.701  0.00  0.00    +0.000 A 
ATOM     17  C   UNL     1      49.561   7.400  12.735  0.00  0.00    +0.000 A 
ATOM     18  N   UNL     1      49.199   6.767  13.867  0.00  0.00    +0.000 NA
ATOM     19  C   UNL     1      47.894   6.403  13.964  0.00  0.00    +0.000 A 
ATOM     20  C   UNL     1      46.914   6.612  12.987  0.00  0.00    +0.000 A 
ATOM     21  C   UNL     1      47.350   7.277  11.839  0.00  0.00    +0.000 A 
ENDBRANCH  14  20
ENDBRANCH  13  14
ENDBRANCH   1  13
TORSDOF 4
ENDMDL
MODEL 6
REMARK VINA RESULT:    -6.794      2.030      3.516
REMARK INTER + INTRA:          -8.885
REMARK INTER:                  -8.376
REMARK INTRA:                  -0.510
REMARK UNBOUND:                -0.502
REMARK  Name = 
REMARK  4 active torsions:
REMARK  status: ('A' for Active; 'I' for Inactive)
REMARK    1  A    between atoms: C_5  and  N_6
REMARK    2  A    between atoms: N_6  and  C_7
REMARK    3  A    between atoms: C_7  and  C_8
REMARK    4  A    between atoms: C_12  and  C_13
REMARK                            x       y       z     vdW  Elec       q    Type
REMARK                         _______ _______ _______ _____ _____    ______ ____
ROOT
ATOM      1  C   UNL     1      45.295   5.496  11.958  0.00  0.00    +0.000 A 
ATOM      2  C   UNL     1      45.900   6.535  11.254  0.00  0.00    +0.000 A 
ATOM      3  C   UNL     1      47.053   7.108  11.768  0.00  0.00    +0.000 A 
ATOM      4  C   UNL     1      47.576   6.630  12.965  0.00  0.00    +0.000 A 
ATOM      5  C   UNL     1      46.935   5.581  13.625  0.00  0.00    +0.000 A 
ATOM      6  N   UNL     1      45.813   5.004  13.119  0.00  0.00    +0.000 NA
ENDROOT
BRANCH   5   7
ATOM      7  C   UNL     1      47.426   5.043  14.896  0.00  0.00    +0.000 A 
ATOM      8  C   UNL     1      47.109   3.778  15.371  0.00  0.00    +0.000 A 
ATOM      9  N   UNL     1      47.509   3.268  16.557  0.00  0.00    +0.000 NA
ATOM     10  C   UNL     1      48.283   4.072  17.297  0.00  0.00    +0.000 A 
ATOM     11  N   UNL     1      48.686   5.303  16.956  0.00  0.00    +0.000 NA
ATOM     12  C   UNL     1      48.249   5.754  15.756  0.00  0.00    +0.000 A 
ENDBRANCH   5   7
BRANCH   1  13
ATOM     13  C   UNL     1      44.017   4.872  11.424  0.00  0.00    +0.000 C 
BRANCH  13  14
ATOM     14  N   UNL     1      43.977   4.933   9.965  0.00  0.00    +0.000 N 
ATOM     15  H   UNL     1      44.073   5.881   9.608  0.00  0.00    +0.000 HD
BRANCH  14  20
ATOM     16  C   UNL     1      46.333   3.304   7.573  0.00  0.00    +0.000 A 
ATOM     17  C   UNL     1      46.145   1.992   7.968  0.00  0.00    +0.000 A 
ATOM     18  N   UNL     1      45.271   1.625   8.924  0.00  0.00    +0.000 NA
ATOM     19  C   UNL     1      44.568   2.625   9.514  0.00  0.00    +0.000 A 
ATOM     20  C   UNL     1      44.662   3.986   9.199  0.00  0.00    +0.000 A 
ATOM     21  C   UNL     1      45.589   4.304   8.204  0.00  0.00    +0.000 A 
ENDBRANCH  14  20
ENDBRANCH  13  14
ENDBRANCH   1  13
TORSDOF 4
ENDMDL
MODEL 7
REMARK VINA RESULT:    -6.530      2.398      6.911
REMARK INTER + INTRA:          -8.559
REMARK INTER:                  -8.229
REMARK INTRA:                  -0.330
REMARK UNBOUND:                -0.502
REMARK  Name = 
REMARK  4 active torsions:
REMARK  status: ('A' for Active; 'I' for Inactive)
REMARK    1  A    between atoms: C_5  and  N_6
REMARK    2  A    between atoms: N_6  and  C_7
REMARK    3  A    between atoms: C_7  and  C_8
REMARK    4  A    between atoms: C_12  and  C_13
REMARK                            x       y       z     vdW  Elec       q    Type
REMARK                         _______ _______ _______ _____ _____    ______ ____
ROOT
ATOM      1  C   UNL     1      45.029   5.103  12.767  0.00  0.00    +0.000 A 
ATOM      2  C   UNL     1      43.674   5.364  12.956  0.00  0.00    +0.000 A 
ATOM      3  C   UNL     1      42.787   5.066  11.934  0.00  0.00    +0.000 A 
ATOM      4  C   UNL     1      43.270   4.511  10.753  0.00  0.00    +0.000 A 
ATOM      5  C   UNL     1      44.636   4.263  10.619  0.00  0.00    +0.000 A 
ATOM      6  N   UNL     1      45.510   4.538  11.623  0.00  0.00    +0.000 NA
ENDROOT
BRANCH   5   7
ATOM      7  C   UNL     1      45.210   3.695   9.397  0.00  0.00    +0.000 A 
ATOM      8  C   UNL     1      45.370   2.333   9.181  0.00  0.00    +0.000 A 
ATOM      9  N   UNL     1      45.935   1.779   8.085  0.00  0.00    +0.000 NA
ATOM     10  C   UNL     1      46.347   2.644   7.150  0.00  0.00    +0.000 A 
ATOM     11  N   UNL     1      46.236   3.978   7.213  0.00  0.00    +0.000 NA
ATOM     12  C   UNL     1      45.662   4.468   8.338  0.00  0.00    +0.000 A 
ENDBRANCH   5   7
BRANCH   1  13
ATOM     13  C   UNL     1      46.020   5.448  13.866  0.00  0.00    +0.000 C 
BRANCH  13  14
ATOM     14  N   UNL     1      46.477   4.242  14.553  0.00  0.00    +0.000 N 
ATOM     15  H   UNL     1      46.685   3.478  13.912  0.00  0.00    +0.000 HD
BRANCH  14  20
ATOM     16  C   UNL     1      48.613   3.430  17.503  0.00  0.00    +0.000 A 
ATOM     17  C   UNL     1      49.421   4.551  17.480  0.00  0.00    +0.000 A 
ATOM     18  N   UNL     1      49.271   5.554  16.594  0.00  0.00    +0.000 NA
ATOM     19  C   UNL     1      48.271   5.412  15.687  0.00  0.00    +0.000 A 
ATOM     20  C   UNL     1      47.384   4.332  15.611  0.00  0.00    +0.000 A 
ATOM     21  C   UNL     1      47.594   3.323  16.553  0.00  0.00    +0.000 A 
ENDBRANCH  14  20
ENDBRANCH  13  14
ENDBRANCH   1  13
TORSDOF 4
ENDMDL
MODEL 8
REMARK VINA RESULT:    -6.180      2.706      7.184
REMARK INTER + INTRA:          -8.128
REMARK INTER:                  -7.680
REMARK INTRA:                  -0.448
REMARK UNBOUND:                -0.502
REMARK  Name = 
REMARK  4 active torsions:
REMARK  status: ('A' for Active; 'I' for Inactive)
REMARK    1  A    between atoms: C_5  and  N_6
REMARK    2  A    between atoms: N_6  and  C_7
REMARK    3  A    between atoms: C_7  and  C_8
REMARK    4  A    between atoms: C_12  and  C_13
REMARK                            x       y       z     vdW  Elec       q    Type
REMARK                         _______ _______ _______ _____ _____    ______ ____
ROOT
ATOM      1  C   UNL     1      47.159   6.947  13.067  0.00  0.00    +0.000 A 
ATOM      2  C   UNL     1      46.495   8.162  13.227  0.00  0.00    +0.000 A 
ATOM      3  C   UNL     1      45.363   8.409  12.465  0.00  0.00    +0.000 A 
ATOM      4  C   UNL     1      44.920   7.441  11.569  0.00  0.00    +0.000 A 
ATOM      5  C   UNL     1      45.618   6.239  11.456  0.00  0.00    +0.000 A 
ATOM      6  N   UNL     1      46.719   5.983  12.210  0.00  0.00    +0.000 NA
ENDROOT
BRANCH   5   7
ATOM      7  C   UNL     1      45.212   5.186  10.521  0.00  0.00    +0.000 A 
ATOM      8  C   UNL     1      44.369   4.137  10.860  0.00  0.00    +0.000 A 
ATOM      9  N   UNL     1      44.010   3.128  10.036  0.00  0.00    +0.000 NA
ATOM     10  C   UNL     1      44.518   3.187   8.799  0.00  0.00    +0.000 A 
ATOM     11  N   UNL     1      45.323   4.149   8.327  0.00  0.00    +0.000 NA
ATOM     12  C   UNL     1      45.644   5.130   9.204  0.00  0.00    +0.000 A 
ENDBRANCH   5   7
BRANCH   1  13
ATOM     13  C   UNL     1      48.416   6.668  13.874  0.00  0.00    +0.000 C 
BRANCH  13  14
ATOM     14  N   UNL     1      48.121   6.639  15.304  0.00  0.00    +0.000 N 
ATOM     15  H   UNL     1      47.305   7.195  15.550  0.00  0.00    +0.000 HD
BRANCH  14  20
ATOM     16  C   UNL     1      49.039   4.036  17.817  0.00  0.00    +0.000 A 
ATOM     17  C   UNL     1      48.049   3.117  17.524  0.00  0.00    +0.000 A 
ATOM     18  N   UNL     1      47.149   3.287  16.536  0.00  0.00    +0.000 NA
ATOM     19  C   UNL     1      47.246   4.439  15.825  0.00  0.00    +0.000 A 
ATOM     20  C   UNL     1      48.204   5.441  16.019  0.00  0.00    +0.000 A 
ATOM     21  C   UNL     1      49.105   5.209  17.060  0.00  0.00    +0.000 A 
ENDBRANCH  14  20
ENDBRANCH  13  14
ENDBRANCH   1  13
TORSDOF 4
ENDMDL
MODEL 9
REMARK VINA RESULT:    -6.069      3.462      7.288
REMARK INTER + INTRA:          -7.991
REMARK INTER:                  -7.464
REMARK INTRA:                  -0.527
REMARK UNBOUND:                -0.502
REMARK  Name = 
REMARK  4 active torsions:
REMARK  status: ('A' for Active; 'I' for Inactive)
REMARK    1  A    between atoms: C_5  and  N_6
REMARK    2  A    between atoms: N_6  and  C_7
REMARK    3  A    between atoms: C_7  and  C_8
REMARK    4  A    between atoms: C_12  and  C_13
REMARK                            x       y       z     vdW  Elec       q    Type
REMARK                         _______ _______ _______ _____ _____    ______ ____
ROOT
ATOM      1  C   UNL     1      47.432   7.231  13.681  0.00  0.00    +0.000 A 
ATOM      2  C   UNL     1      47.105   8.530  13.299  0.00  0.00    +0.000 A 
ATOM      3  C   UNL     1      45.985   8.732  12.508  0.00  0.00    +0.000 A 
ATOM      4  C   UNL     1      45.217   7.638  12.122  0.00  0.00    +0.000 A 
ATOM      5  C   UNL     1      45.586   6.358  12.540  0.00  0.00    +0.000 A 
ATOM      6  N   UNL     1      46.674   6.155  13.328  0.00  0.00    +0.000 NA
ENDROOT
BRANCH   5   7
ATOM      7  C   UNL     1      44.829   5.164  12.155  0.00  0.00    +0.000 A 
ATOM      8  C   UNL     1      44.096   5.061  10.981  0.00  0.00    +0.000 A 
ATOM      9  N   UNL     1      43.353   3.992  10.618  0.00  0.00    +0.000 NA
ATOM     10  C   UNL     1      43.361   2.966  11.478  0.00  0.00    +0.000 A 
ATOM     11  N   UNL     1      44.038   2.918  12.634  0.00  0.00    +0.000 NA
ATOM     12  C   UNL     1      44.762   4.021  12.938  0.00  0.00    +0.000 A 
ENDBRANCH   5   7
BRANCH   1  13
ATOM     13  C   UNL     1      48.671   6.987  14.526  0.00  0.00    +0.000 C 
BRANCH  13  14
ATOM     14  N   UNL     1      48.309   6.711  15.914  0.00  0.00    +0.000 N 
ATOM     15  H   UNL     1      47.421   7.133  16.181  0.00  0.00    +0.000 HD
BRANCH  14  20
ATOM     16  C   UNL     1      47.854   3.122  16.830  0.00  0.00    +0.000 A 
ATOM     17  C   UNL     1      49.125   2.878  17.319  0.00  0.00    +0.000 A 
ATOM     18  N   UNL     1      50.080   3.823  17.403  0.00  0.00    +0.000 NA
ATOM     19  C   UNL     1      49.744   5.061  16.961  0.00  0.00    +0.000 A 
ATOM     20  C   UNL     1      48.494   5.436  16.453  0.00  0.00    +0.000 A 
ATOM     21  C   UNL     1      47.547   4.411  16.388  0.00  0.00    +0.000 A 
ENDBRANCH  14  20
ENDBRANCH  13  14
ENDBRANCH   1  13
TORSDOF 4
ENDMDL
