MODEL 1
REMARK VINA RESULT:    -7.530      0.000      0.000
REMARK INTER + INTRA:         -10.745
REMARK INTER:                  -9.951
REMARK INTRA:                  -0.794
REMARK UNBOUND:                -0.794
REMARK  Name = 
REMARK  6 active torsions:
REMARK  status: ('A' for Active; 'I' for Inactive)
REMARK    1  A    between atoms: N_1  and  C_2
REMARK    2  A    between atoms: C_2  and  C_3
REMARK    3  A    between atoms: C_6  and  O_7
REMARK    4  A    between atoms: O_7  and  C_8
REMARK    5  A    between atoms: C_8  and  C_9
REMARK    6  A    between atoms: C_9  and  C_12
REMARK                            x       y       z     vdW  Elec       q    Type
REMARK                         _______ _______ _______ _____ _____    ______ ____
ROOT
ATOM      1  O   UNL     1      43.524   3.417  10.017  0.00  0.00    +0.000 OA
ENDROOT
BRANCH   1   5
ATOM      2  C   UNL     1      46.644   2.166   7.634  0.00  0.00    +0.000 A 
ATOM      3  C   UNL     1      46.317   3.519   7.596  0.00  0.00    +0.000 A 
ATOM      4  C   UNL     1      45.267   3.992   8.381  0.00  0.00    +0.000 A 
ATOM      5  C   UNL     1      44.562   3.105   9.188  0.00  0.00    +0.000 A 
ATOM      6  C   UNL     1      44.948   1.770   9.154  0.00  0.00    +0.000 A 
ATOM      7  N   UNL     1      45.968   1.280   8.407  0.00  0.00    +0.000 NA
BRANCH   2   8
ATOM      8  C   UNL     1      47.817   1.647   6.830  0.00  0.00    +0.000 C 
BRANCH   8   9
ATOM      9  N   UNL     1      48.618   2.734   6.257  0.00  0.00    +0.000 NA
ATOM     10  H   UNL     1      47.981   3.421   5.857  0.00  0.00    +0.000 HD
ATOM     11  H   UNL     1      49.140   2.347   5.470  0.00  0.00    +0.000 HD
ENDBRANCH   8   9
ENDBRANCH   2   8
ENDBRANCH   1   5
BRANCH   1  12
ATOM     12  C   UNL     1      43.734   3.189  11.419  0.00  0.00    +0.000 C 
BRANCH  12  13
ATOM     13  C   UNL     1      43.638   4.510  12.200  0.00  0.00    +0.000 C 
ATOM     14  F   UNL     1      42.814   5.361  11.520  0.00  0.00    +0.000 F 
ATOM     15  F   UNL     1      43.013   4.270  13.391  0.00  0.00    +0.000 F 
BRANCH  13  16
ATOM     16  C   UNL     1      45.021   5.103  12.399  0.00  0.00    +0.000 A 
ATOM     17  C   UNL     1      45.526   6.055  11.498  0.00  0.00    +0.000 A 
ATOM     18  C   UNL     1      46.796   6.601  11.684  0.00  0.00    +0.000 A 
ATOM     19  C   UNL     1      47.576   6.202  12.768  0.00  0.00    +0.000 A 
ATOM     20  C   UNL     1      47.091   5.251  13.664  0.00  0.00    +0.000 A 
ATOM     21  C   UNL     1      45.820   4.702  13.480  0.00  0.00    +0.000 A 
ENDBRANCH  13  16
ENDBRANCH  12  13
ENDBRANCH   1  12
TORSDOF 6
ENDMDL
MODEL 2
REMARK VINA RESULT:    -7.142      0.982      1.707
REMARK INTER + INTRA:         -10.232
REMARK INTER:                  -9.535
REMARK INTRA:                  -0.697
REMARK UNBOUND:                -0.794
REMARK  Name = 
REMARK  6 active torsions:
REMARK  status: ('A' for Active; 'I' for Inactive)
REMARK    1  A    between atoms: N_1  and  C_2
REMARK    2  A    between atoms: C_2  and  C_3
REMARK    3  A    between atoms: C_6  and  O_7
REMARK    4  A    between atoms: O_7  and  C_8
REMARK    5  A    between atoms: C_8  and  C_9
REMARK    6  A    between atoms: C_9  and  C_12
REMARK                            x       y       z     vdW  Elec       q    Type
REMARK                         _______ _______ _______ _____ _____    ______ ____
ROOT
ATOM      1  O   UNL     1      43.363   3.731  10.320  0.00  0.00    +0.000 OA
ENDROOT
BRANCH   1   5
ATOM      2  C   UNL     1      46.357   2.947   7.599  0.00  0.00    +0.000 A 
ATOM      3  C   UNL     1      45.900   1.879   8.367  0.00  0.00    +0.000 A 
ATOM      4  C   UNL     1      44.890   2.093   9.305  0.00  0.00    +0.000 A 
ATOM      5  C   UNL     1      44.358   3.368   9.459  0.00  0.00    +0.000 A 
ATOM      6  C   UNL     1      44.883   4.377   8.660  0.00  0.00    +0.000 A 
ATOM      7  N   UNL     1      45.860   4.201   7.735  0.00  0.00    +0.000 NA
BRANCH   2   8
ATOM      8  C   UNL     1      47.413   2.720   6.539  0.00  0.00    +0.000 C 
BRANCH   8   9
ATOM      9  N   UNL     1      48.288   1.589   6.864  0.00  0.00    +0.000 NA
ATOM     10  H   UNL     1      48.319   0.969   6.055  0.00  0.00    +0.000 HD
ATOM     11  H   UNL     1      47.834   1.054   7.606  0.00  0.00    +0.000 HD
ENDBRANCH   8   9
ENDBRANCH   2   8
ENDBRANCH   1   5
BRANCH   1  12
ATOM     12  C   UNL     1      43.700   3.750  11.716  0.00  0.00    +0.000 C 
BRANCH  12  13
ATOM     13  C   UNL     1      43.781   5.196  12.231  0.00  0.00    +0.000 C 
ATOM     14  F   UNL     1      43.149   6.014  11.338  0.00  0.00    +0.000 F 
ATOM     15  F   UNL     1      43.059   5.290  13.387  0.00  0.00    +0.000 F 
BRANCH  13  16
ATOM     16  C   UNL     1      45.230   5.599  12.437  0.00  0.00    +0.000 A 
ATOM     17  C   UNL     1      45.962   5.099  13.526  0.00  0.00    +0.000 A 
ATOM     18  C   UNL     1      47.295   5.468  13.712  0.00  0.00    +0.000 A 
ATOM     19  C   UNL     1      47.908   6.342  12.816  0.00  0.00    +0.000 A 
ATOM     20  C   UNL     1      47.190   6.854  11.737  0.00  0.00    +0.000 A 
ATOM     21  C   UNL     1      45.856   6.486  11.549  0.00  0.00    +0.000 A 
ENDBRANCH  13  16
ENDBRANCH  12  13
ENDBRANCH   1  12
TORSDOF 6
ENDMDL
MODEL 3
REMARK VINA RESULT:    -7.128      2.908      6.091
REMARK INTER + INTRA:         -10.215
REMARK INTER:                  -9.747
REMARK INTRA:                  -0.468
REMARK UNBOUND:                -0.794
REMARK  Name = 
REMARK  6 active torsions:
REMARK  status: ('A' for Active; 'I' for Inactive)
REMARK    1  A    between atoms: N_1  and  C_2
REMARK    2  A    between atoms: C_2  and  C_3
REMARK    3  A    between atoms: C_6  and  O_7
REMARK    4  A    between atoms: O_7  and  C_8
REMARK    5  A    between atoms: C_8  and  C_9
REMARK    6  A    between atoms: C_9  and  C_12
REMARK                            x       y       z     vdW  Elec       q    Type
REMARK                         _______ _______ _______ _____ _____    ______ ____
ROOT
ATOM      1  O   UNL     1      44.951   5.466  10.756  0.00  0.00    +0.000 OA
ENDROOT
BRANCH   1   5
ATOM      2  C   UNL     1      46.897   4.814  14.328  0.00  0.00    +0.000 A 
ATOM      3  C   UNL     1      47.292   5.922  13.582  0.00  0.00    +0.000 A 
ATOM      4  C   UNL     1      46.666   6.184  12.363  0.00  0.00    +0.000 A 
ATOM      5  C   UNL     1      45.661   5.335  11.913  0.00  0.00    +0.000 A 
ATOM      6  C   UNL     1      45.341   4.247  12.716  0.00  0.00    +0.000 A 
ATOM      7  N   UNL     1      45.925   3.968  13.908  0.00  0.00    +0.000 NA
BRANCH   2   8
ATOM      8  C   UNL     1      47.528   4.548  15.678  0.00  0.00    +0.000 C 
BRANCH   8   9
ATOM      9  N   UNL     1      46.554   4.042  16.652  0.00  0.00    +0.000 NA
ATOM     10  H   UNL     1      46.706   4.529  17.535  0.00  0.00    +0.000 HD
ATOM     11  H   UNL     1      46.781   3.063  16.833  0.00  0.00    +0.000 HD
ENDBRANCH   8   9
ENDBRANCH   2   8
ENDBRANCH   1   5
BRANCH   1  12
ATOM     12  C   UNL     1      45.602   5.031   9.552  0.00  0.00    +0.000 C 
BRANCH  12  13
ATOM     13  C   UNL     1      44.823   3.873   8.906  0.00  0.00    +0.000 C 
ATOM     14  F   UNL     1      44.227   3.142   9.894  0.00  0.00    +0.000 F 
ATOM     15  F   UNL     1      43.798   4.394   8.168  0.00  0.00    +0.000 F 
BRANCH  13  16
ATOM     16  C   UNL     1      45.752   3.024   8.059  0.00  0.00    +0.000 A 
ATOM     17  C   UNL     1      46.385   3.566   6.929  0.00  0.00    +0.000 A 
ATOM     18  C   UNL     1      47.241   2.784   6.153  0.00  0.00    +0.000 A 
ATOM     19  C   UNL     1      47.473   1.453   6.495  0.00  0.00    +0.000 A 
ATOM     20  C   UNL     1      46.843   0.899   7.608  0.00  0.00    +0.000 A 
ATOM     21  C   UNL     1      45.985   1.679   8.386  0.00  0.00    +0.000 A 
ENDBRANCH  13  16
ENDBRANCH  12  13
ENDBRANCH   1  12
TORSDOF 6
ENDMDL
MODEL 4
REMARK VINA RESULT:    -6.618      3.025      5.428
REMARK INTER + INTRA:          -9.540
REMARK INTER:                  -8.806
REMARK INTRA:                  -0.735
REMARK UNBOUND:                -0.794
REMARK  Name = 
REMARK  6 active torsions:
REMARK  status: ('A' for Active; 'I' for Inactive)
REMARK    1  A    between atoms: N_1  and  C_2
REMARK    2  A    between atoms: C_2  and  C_3
REMARK    3  A    between atoms: C_6  and  O_7
REMARK    4  A    between atoms: O_7  and  C_8
REMARK    5  A    between atoms: C_8  and  C_9
REMARK    6  A    between atoms: C_9  and  C_12
REMARK                            x       y       z     vdW  Elec       q    Type
REMARK                         _______ _______ _______ _____ _____    ______ ____
ROOT
ATOM      1  O   UNL     1      44.454   4.906  12.895  0.00  0.00    +0.000 OA
ENDROOT
BRANCH   1   5
ATOM      2  C   UNL     1      48.141   6.743  13.003  0.00  0.00    +0.000 A 
ATOM      3  C   UNL     1      47.154   7.341  12.223  0.00  0.00    +0.000 A 
ATOM      4  C   UNL     1      45.891   6.757  12.151  0.00  0.00    +0.000 A 
ATOM      5  C   UNL     1      45.636   5.585  12.855  0.00  0.00    +0.000 A 
ATOM      6  C   UNL     1      46.683   5.050  13.597  0.00  0.00    +0.000 A 
ATOM      7  N   UNL     1      47.920   5.598  13.694  0.00  0.00    +0.000 NA
BRANCH   2   8
ATOM      8  C   UNL     1      49.500   7.394  13.136  0.00  0.00    +0.000 C 
BRANCH   8   9
ATOM      9  N   UNL     1      50.145   7.071  14.413  0.00  0.00    +0.000 NA
ATOM     10  H   UNL     1      49.416   6.866  15.095  0.00  0.00    +0.000 HD
ATOM     11  H   UNL     1      50.607   7.918  14.747  0.00  0.00    +0.000 HD
ENDBRANCH   8   9
ENDBRANCH   2   8
ENDBRANCH   1   5
BRANCH   1  12
ATOM     12  C   UNL     1      44.502   3.516  12.536  0.00  0.00    +0.000 C 
BRANCH  12  13
ATOM     13  C   UNL     1      43.628   3.247  11.301  0.00  0.00    +0.000 C 
ATOM     14  F   UNL     1      42.971   2.063  11.480  0.00  0.00    +0.000 F 
ATOM     15  F   UNL     1      42.651   4.200  11.239  0.00  0.00    +0.000 F 
BRANCH  13  16
ATOM     16  C   UNL     1      44.482   3.233  10.046  0.00  0.00    +0.000 A 
ATOM     17  C   UNL     1      44.910   2.018   9.487  0.00  0.00    +0.000 A 
ATOM     18  C   UNL     1      45.693   2.008   8.332  0.00  0.00    +0.000 A 
ATOM     19  C   UNL     1      46.060   3.208   7.727  0.00  0.00    +0.000 A 
ATOM     20  C   UNL     1      45.652   4.421   8.278  0.00  0.00    +0.000 A 
ATOM     21  C   UNL     1      44.869   4.435   9.433  0.00  0.00    +0.000 A 
ENDBRANCH  13  16
ENDBRANCH  12  13
ENDBRANCH   1  12
TORSDOF 6
ENDMDL
MODEL 5
REMARK VINA RESULT:    -6.568      3.061      6.167
REMARK INTER + INTRA:          -9.474
REMARK INTER:                  -8.965
REMARK INTRA:                  -0.509
REMARK UNBOUND:                -0.794
REMARK  Name = 
REMARK  6 active torsions:
REMARK  status: ('A' for Active; 'I' for Inactive)
REMARK    1  A    between atoms: N_1  and  C_2
REMARK    2  A    between atoms: C_2  and  C_3
REMARK    3  A    between atoms: C_6  and  O_7
REMARK    4  A    between atoms: O_7  and  C_8
REMARK    5  A    between atoms: C_8  and  C_9
REMARK    6  A    between atoms: C_9  and  C_12
REMARK                            x       y       z     vdW  Elec       q    Type
REMARK                         _______ _______ _______ _____ _____    ______ ____
ROOT
ATOM      1  O   UNL     1      44.737   5.034  10.848  0.00  0.00    +0.000 OA
ENDROOT
BRANCH   1   5
ATOM      2  C   UNL     1      47.527   6.297  13.605  0.00  0.00    +0.000 A 
ATOM      3  C   UNL     1      46.837   5.122  13.891  0.00  0.00    +0.000 A 
ATOM      4  C   UNL     1      45.880   4.654  12.991  0.00  0.00    +0.000 A 
ATOM      5  C   UNL     1      45.629   5.369  11.826  0.00  0.00    +0.000 A 
ATOM      6  C   UNL     1      46.354   6.538  11.628  0.00  0.00    +0.000 A 
ATOM      7  N   UNL     1      47.296   7.016  12.479  0.00  0.00    +0.000 NA
BRANCH   2   8
ATOM      8  C   UNL     1      48.608   6.789  14.544  0.00  0.00    +0.000 C 
BRANCH   8   9
ATOM      9  N   UNL     1      49.877   7.027  13.849  0.00  0.00    +0.000 NA
ATOM     10  H   UNL     1      50.629   6.641  14.418  0.00  0.00    +0.000 HD
ATOM     11  H   UNL     1      50.032   8.036  13.832  0.00  0.00    +0.000 HD
ENDBRANCH   8   9
ENDBRANCH   2   8
ENDBRANCH   1   5
BRANCH   1  12
ATOM     12  C   UNL     1      45.291   4.671   9.574  0.00  0.00    +0.000 C 
BRANCH  12  13
ATOM     13  C   UNL     1      45.077   3.173   9.300  0.00  0.00    +0.000 C 
ATOM     14  F   UNL     1      45.384   2.474  10.433  0.00  0.00    +0.000 F 
ATOM     15  F   UNL     1      43.746   2.953   9.085  0.00  0.00    +0.000 F 
BRANCH  13  16
ATOM     16  C   UNL     1      45.920   2.730   8.119  0.00  0.00    +0.000 A 
ATOM     17  C   UNL     1      46.458   1.434   8.072  0.00  0.00    +0.000 A 
ATOM     18  C   UNL     1      47.231   1.028   6.983  0.00  0.00    +0.000 A 
ATOM     19  C   UNL     1      47.477   1.911   5.933  0.00  0.00    +0.000 A 
ATOM     20  C   UNL     1      46.958   3.204   5.972  0.00  0.00    +0.000 A 
ATOM     21  C   UNL     1      46.185   3.613   7.061  0.00  0.00    +0.000 A 
ENDBRANCH  13  16
ENDBRANCH  12  13
ENDBRANCH   1  12
TORSDOF 6
ENDMDL
MODEL 6
REMARK VINA RESULT:    -6.308      3.259      5.710
REMARK INTER + INTRA:          -9.130
REMARK INTER:                  -8.408
REMARK INTRA:                  -0.722
REMARK UNBOUND:                -0.794
REMARK  Name = 
REMARK  6 active torsions:
REMARK  status: ('A' for Active; 'I' for Inactive)
REMARK    1  A    between atoms: N_1  and  C_2
REMARK    2  A    between atoms: C_2  and  C_3
REMARK    3  A    between atoms: C_6  and  O_7
REMARK    4  A    between atoms: O_7  and  C_8
REMARK    5  A    between atoms: C_8  and  C_9
REMARK    6  A    between atoms: C_9  and  C_12
REMARK                            x       y       z     vdW  Elec       q    Type
REMARK                         _______ _______ _______ _____ _____    ______ ____
ROOT
ATOM      1  O   UNL     1      44.599   4.434  13.034  0.00  0.00    +0.000 OA
ENDROOT
BRANCH   1   5
ATOM      2  C   UNL     1      46.809   7.877  12.542  0.00  0.00    +0.000 A 
ATOM      3  C   UNL     1      47.507   6.712  12.849  0.00  0.00    +0.000 A 
ATOM      4  C   UNL     1      46.804   5.521  13.029  0.00  0.00    +0.000 A 
ATOM      5  C   UNL     1      45.420   5.516  12.901  0.00  0.00    +0.000 A 
ATOM      6  C   UNL     1      44.805   6.727  12.605  0.00  0.00    +0.000 A 
ATOM      7  N   UNL     1      45.459   7.900  12.418  0.00  0.00    +0.000 NA
BRANCH   2   8
ATOM      8  C   UNL     1      47.561   9.166  12.289  0.00  0.00    +0.000 C 
BRANCH   8   9
ATOM      9  N   UNL     1      46.721  10.348  12.507  0.00  0.00    +0.000 NA
ATOM     10  H   UNL     1      47.122  10.886  13.274  0.00  0.00    +0.000 HD
ATOM     11  H   UNL     1      45.813  10.021  12.842  0.00  0.00    +0.000 HD
ENDBRANCH   8   9
ENDBRANCH   2   8
ENDBRANCH   1   5
BRANCH   1  12
ATOM     12  C   UNL     1      44.934   3.277  12.253  0.00  0.00    +0.000 C 
BRANCH  12  13
ATOM     13  C   UNL     1      44.030   3.184  11.012  0.00  0.00    +0.000 C 
ATOM     14  F   UNL     1      43.277   2.048  11.105  0.00  0.00    +0.000 F 
ATOM     15  F   UNL     1      43.138   4.218  11.041  0.00  0.00    +0.000 F 
BRANCH  13  16
ATOM     16  C   UNL     1      44.871   3.200   9.748  0.00  0.00    +0.000 A 
ATOM     17  C   UNL     1      45.266   1.999   9.138  0.00  0.00    +0.000 A 
ATOM     18  C   UNL     1      46.037   2.016   7.975  0.00  0.00    +0.000 A 
ATOM     19  C   UNL     1      46.423   3.231   7.411  0.00  0.00    +0.000 A 
ATOM     20  C   UNL     1      46.046   4.430   8.013  0.00  0.00    +0.000 A 
ATOM     21  C   UNL     1      45.276   4.416   9.177  0.00  0.00    +0.000 A 
ENDBRANCH  13  16
ENDBRANCH  12  13
ENDBRANCH   1  12
TORSDOF 6
ENDMDL
MODEL 7
REMARK VINA RESULT:    -6.264      3.112      5.979
REMARK INTER + INTRA:          -9.072
REMARK INTER:                  -8.722
REMARK INTRA:                  -0.350
REMARK UNBOUND:                -0.794
REMARK  Name = 
REMARK  6 active torsions:
REMARK  status: ('A' for Active; 'I' for Inactive)
REMARK    1  A    between atoms: N_1  and  C_2
REMARK    2  A    between atoms: C_2  and  C_3
REMARK    3  A    between atoms: C_6  and  O_7
REMARK    4  A    between atoms: O_7  and  C_8
REMARK    5  A    between atoms: C_8  and  C_9
REMARK    6  A    between atoms: C_9  and  C_12
REMARK                            x       y       z     vdW  Elec       q    Type
REMARK                         _______ _______ _______ _____ _____    ______ ____
ROOT
ATOM      1  O   UNL     1      46.428   5.561  11.750  0.00  0.00    +0.000 OA
ENDROOT
BRANCH   1   5
ATOM      2  C   UNL     1      47.446   4.513  15.603  0.00  0.00    +0.000 A 
ATOM      3  C   UNL     1      47.827   5.780  15.166  0.00  0.00    +0.000 A 
ATOM      4  C   UNL     1      47.509   6.181  13.869  0.00  0.00    +0.000 A 
ATOM      5  C   UNL     1      46.819   5.310  13.032  0.00  0.00    +0.000 A 
ATOM      6  C   UNL     1      46.490   4.061  13.547  0.00  0.00    +0.000 A 
ATOM      7  N   UNL     1      46.779   3.644  14.805  0.00  0.00    +0.000 NA
BRANCH   2   8
ATOM      8  C   UNL     1      47.734   4.084  17.025  0.00  0.00    +0.000 C 
BRANCH   8   9
ATOM      9  N   UNL     1      46.749   3.117  17.521  0.00  0.00    +0.000 NA
ATOM     10  H   UNL     1      46.801   3.103  18.538  0.00  0.00    +0.000 HD
ATOM     11  H   UNL     1      47.048   2.190  17.214  0.00  0.00    +0.000 HD
ENDBRANCH   8   9
ENDBRANCH   2   8
ENDBRANCH   1   5
BRANCH   1  12
ATOM     12  C   UNL     1      45.151   6.197  11.583  0.00  0.00    +0.000 C 
BRANCH  12  13
ATOM     13  C   UNL     1      44.103   5.183  11.094  0.00  0.00    +0.000 C 
ATOM     14  F   UNL     1      43.648   4.474  12.169  0.00  0.00    +0.000 F 
ATOM     15  F   UNL     1      43.019   5.867  10.621  0.00  0.00    +0.000 F 
BRANCH  13  16
ATOM     16  C   UNL     1      44.704   4.277  10.035  0.00  0.00    +0.000 A 
ATOM     17  C   UNL     1      45.415   4.819   8.952  0.00  0.00    +0.000 A 
ATOM     18  C   UNL     1      45.969   3.984   7.980  0.00  0.00    +0.000 A 
ATOM     19  C   UNL     1      45.817   2.602   8.079  0.00  0.00    +0.000 A 
ATOM     20  C   UNL     1      45.105   2.052   9.143  0.00  0.00    +0.000 A 
ATOM     21  C   UNL     1      44.549   2.885  10.116  0.00  0.00    +0.000 A 
ENDBRANCH  13  16
ENDBRANCH  12  13
ENDBRANCH   1  12
TORSDOF 6
ENDMDL
MODEL 8
REMARK VINA RESULT:    -5.863      3.628      6.380
REMARK INTER + INTRA:          -8.543
REMARK INTER:                  -8.072
REMARK INTRA:                  -0.471
REMARK UNBOUND:                -0.794
REMARK  Name = 
REMARK  6 active torsions:
REMARK  status: ('A' for Active; 'I' for Inactive)
REMARK    1  A    between atoms: N_1  and  C_2
REMARK    2  A    between atoms: C_2  and  C_3
REMARK    3  A    between atoms: C_6  and  O_7
REMARK    4  A    between atoms: O_7  and  C_8
REMARK    5  A    between atoms: C_8  and  C_9
REMARK    6  A    between atoms: C_9  and  C_12
REMARK                            x       y       z     vdW  Elec       q    Type
REMARK                         _______ _______ _______ _____ _____    ______ ____
ROOT
ATOM      1  O   UNL     1      44.413   5.269  11.666  0.00  0.00    +0.000 OA
ENDROOT
BRANCH   1   5
ATOM      2  C   UNL     1      45.241   9.297  11.934  0.00  0.00    +0.000 A 
ATOM      3  C   UNL     1      45.981   8.439  12.746  0.00  0.00    +0.000 A 
ATOM      4  C   UNL     1      45.736   7.068  12.695  0.00  0.00    +0.000 A 
ATOM      5  C   UNL     1      44.757   6.578  11.837  0.00  0.00    +0.000 A 
ATOM      6  C   UNL     1      44.059   7.507  11.073  0.00  0.00    +0.000 A 
ATOM      7  N   UNL     1      44.278   8.845  11.095  0.00  0.00    +0.000 NA
BRANCH   2   8
ATOM      8  C   UNL     1      45.533  10.782  11.937  0.00  0.00    +0.000 C 
BRANCH   8   9
ATOM      9  N   UNL     1      44.892  11.473  10.813  0.00  0.00    +0.000 NA
ATOM     10  H   UNL     1      45.001  12.476  10.953  0.00  0.00    +0.000 HD
ATOM     11  H   UNL     1      43.890  11.291  10.873  0.00  0.00    +0.000 HD
ENDBRANCH   8   9
ENDBRANCH   2   8
ENDBRANCH   1   5
BRANCH   1  12
ATOM     12  C   UNL     1      45.264   4.490  10.811  0.00  0.00    +0.000 C 
BRANCH  12  13
ATOM     13  C   UNL     1      44.433   3.761   9.742  0.00  0.00    +0.000 C 
ATOM     14  F   UNL     1      43.636   2.840  10.361  0.00  0.00    +0.000 F 
ATOM     15  F   UNL     1      43.576   4.657   9.167  0.00  0.00    +0.000 F 
BRANCH  13  16
ATOM     16  C   UNL     1      45.347   3.116   8.716  0.00  0.00    +0.000 A 
ATOM     17  C   UNL     1      45.622   1.741   8.771  0.00  0.00    +0.000 A 
ATOM     18  C   UNL     1      46.461   1.149   7.825  0.00  0.00    +0.000 A 
ATOM     19  C   UNL     1      47.035   1.924   6.819  0.00  0.00    +0.000 A 
ATOM     20  C   UNL     1      46.778   3.293   6.760  0.00  0.00    +0.000 A 
ATOM     21  C   UNL     1      45.940   3.887   7.705  0.00  0.00    +0.000 A 
ENDBRANCH  13  16
ENDBRANCH  12  13
ENDBRANCH   1  12
TORSDOF 6
ENDMDL
MODEL 9
REMARK VINA RESULT:    -5.756      4.587      6.435
REMARK INTER + INTRA:          -8.401
REMARK INTER:                  -7.892
REMARK INTRA:                  -0.509
REMARK UNBOUND:                -0.794
REMARK  Name = 
REMARK  6 active torsions:
REMARK  status: ('A' for Active; 'I' for Inactive)
REMARK    1  A    between atoms: N_1  and  C_2
REMARK    2  A    between atoms: C_2  and  C_3
REMARK    3  A    between atoms: C_6  and  O_7
REMARK    4  A    between atoms: O_7  and  C_8
REMARK    5  A    between atoms: C_8  and  C_9
REMARK    6  A    between atoms: C_9  and  C_12
REMARK                            x       y       z     vdW  Elec       q    Type
REMARK                         _______ _______ _______ _____ _____    ______ ____
ROOT
ATOM      1  O   UNL     1      47.444   3.993  14.539  0.00  0.00    +0.000 OA
ENDROOT
BRANCH   1   5
ATOM      2  C   UNL     1      44.408   4.907  11.907  0.00  0.00    +0.000 A 
ATOM      3  C   UNL     1      44.862   3.591  11.922  0.00  0.00    +0.000 A 
ATOM      4  C   UNL     1      45.890   3.231  12.792  0.00  0.00    +0.000 A 
ATOM      5  C   UNL     1      46.447   4.193  13.629  0.00  0.00    +0.000 A 
ATOM      6  C   UNL     1      45.941   5.484  13.537  0.00  0.00    +0.000 A 
ATOM      7  N   UNL     1      44.938   5.864  12.707  0.00  0.00    +0.000 NA
BRANCH   2   8
ATOM      8  C   UNL     1      43.256   5.301  11.008  0.00  0.00    +0.000 C 
BRANCH   8   9
ATOM      9  N   UNL     1      42.188   5.983  11.745  0.00  0.00    +0.000 NA
ATOM     10  H   UNL     1      41.779   5.319  12.401  0.00  0.00    +0.000 HD
ATOM     11  H   UNL     1      41.448   6.206  11.078  0.00  0.00    +0.000 HD
ENDBRANCH   8   9
ENDBRANCH   2   8
ENDBRANCH   1   5
BRANCH   1  12
ATOM     12  C   UNL     1      47.477   4.890  15.659  0.00  0.00    +0.000 C 
BRANCH  12  13
ATOM     13  C   UNL     1      47.584   4.104  16.976  0.00  0.00    +0.000 C 
ATOM     14  F   UNL     1      47.126   4.893  17.994  0.00  0.00    +0.000 F 
ATOM     15  F   UNL     1      46.727   3.042  16.923  0.00  0.00    +0.000 F 
BRANCH  13  16
ATOM     16  C   UNL     1      49.017   3.662  17.208  0.00  0.00    +0.000 A 
ATOM     17  C   UNL     1      49.997   4.590  17.595  0.00  0.00    +0.000 A 
ATOM     18  C   UNL     1      51.314   4.180  17.811  0.00  0.00    +0.000 A 
ATOM     19  C   UNL     1      51.665   2.843  17.639  0.00  0.00    +0.000 A 
ATOM     20  C   UNL     1      50.705   1.913  17.245  0.00  0.00    +0.000 A 
ATOM     21  C   UNL     1      49.387   2.320  17.028  0.00  0.00    +0.000 A 
ENDBRANCH  13  16
ENDBRANCH  12  13
ENDBRANCH   1  12
TORSDOF 6
ENDMDL
