MODEL 1
REMARK VINA RESULT:    -7.906      0.000      0.000
REMARK INTER + INTRA:         -10.239
REMARK INTER:                  -9.755
REMARK INTRA:                  -0.484
REMARK UNBOUND:                -0.484
REMARK  Name = 
REMARK  4 active torsions:
REMARK  status: ('A' for Active; 'I' for Inactive)
REMARK    1  A    between atoms: C_2  and  C_4
REMARK    2  A    between atoms: C_7  and  N_8
REMARK    3  A    between atoms: N_8  and  C_9
REMARK    4  A    between atoms: C_9  and  C_10
REMARK                            x       y       z     vdW  Elec       q    Type
REMARK                         _______ _______ _______ _____ _____    ______ ____
ROOT
ATOM      1  C   UNL     1      46.433   4.548  13.289  0.00  0.00    +0.000 A 
ATOM      2  C   UNL     1      46.714   5.734  12.605  0.00  0.00    +0.000 A 
ATOM      3  C   UNL     1      46.163   5.962  11.334  0.00  0.00    +0.000 A 
ATOM      4  C   UNL     1      45.338   5.011  10.721  0.00  0.00    +0.000 A 
ATOM      5  C   UNL     1      45.001   3.867  11.454  0.00  0.00    +0.000 A 
ATOM      6  C   UNL     1      45.562   3.621  12.713  0.00  0.00    +0.000 A 
ENDROOT
BRANCH   1   8
ATOM      7  N   UNL     1      47.127   5.174  15.545  0.00  0.00    +0.000 N 
ATOM      8  C   UNL     1      47.080   4.203  14.582  0.00  0.00    +0.000 C 
ATOM      9  O   UNL     1      47.540   3.088  14.797  0.00  0.00    +0.000 OA
ATOM     10  H   UNL     1      47.490   4.894  16.443  0.00  0.00    +0.000 HD
ATOM     11  H   UNL     1      46.552   6.002  15.503  0.00  0.00    +0.000 HD
ENDBRANCH   1   8
BRANCH   4  12
ATOM     12  N   UNL     1      44.852   5.121   9.418  0.00  0.00    +0.000 N 
ATOM     13  H   UNL     1      45.404   5.743   8.831  0.00  0.00    +0.000 HD
BRANCH  12  14
ATOM     14  C   UNL     1      44.365   3.929   8.733  0.00  0.00    +0.000 C 
BRANCH  14  15
ATOM     15  C   UNL     1      45.517   3.115   8.184  0.00  0.00    +0.000 A 
ATOM     16  C   UNL     1      45.654   1.749   8.476  0.00  0.00    +0.000 A 
ATOM     17  C   UNL     1      46.667   0.990   7.878  0.00  0.00    +0.000 A 
ATOM     18  C   UNL     1      47.550   1.583   6.976  0.00  0.00    +0.000 A 
ATOM     19  C   UNL     1      47.427   2.939   6.679  0.00  0.00    +0.000 A 
ATOM     20  C   UNL     1      46.423   3.699   7.283  0.00  0.00    +0.000 A 
ENDBRANCH  14  15
ENDBRANCH  12  14
ENDBRANCH   4  12
TORSDOF 4
ENDMDL
MODEL 2
REMARK VINA RESULT:    -7.884      2.681      5.933
REMARK INTER + INTRA:         -10.211
REMARK INTER:                  -9.537
REMARK INTRA:                  -0.674
REMARK UNBOUND:                -0.484
REMARK  Name = 
REMARK  4 active torsions:
REMARK  status: ('A' for Active; 'I' for Inactive)
REMARK    1  A    between atoms: C_2  and  C_4
REMARK    2  A    between atoms: C_7  and  N_8
REMARK    3  A    between atoms: N_8  and  C_9
REMARK    4  A    between atoms: C_9  and  C_10
REMARK                            x       y       z     vdW  Elec       q    Type
REMARK                         _______ _______ _______ _____ _____    ______ ____
ROOT
ATOM      1  C   UNL     1      46.235   2.128   7.915  0.00  0.00    +0.000 A 
ATOM      2  C   UNL     1      45.257   1.666   8.801  0.00  0.00    +0.000 A 
ATOM      3  C   UNL     1      44.397   2.574   9.437  0.00  0.00    +0.000 A 
ATOM      4  C   UNL     1      44.504   3.952   9.212  0.00  0.00    +0.000 A 
ATOM      5  C   UNL     1      45.432   4.390   8.261  0.00  0.00    +0.000 A 
ATOM      6  C   UNL     1      46.310   3.494   7.638  0.00  0.00    +0.000 A 
ENDROOT
BRANCH   1   8
ATOM      7  N   UNL     1      48.338   1.802   6.716  0.00  0.00    +0.000 N 
ATOM      8  C   UNL     1      47.247   1.224   7.306  0.00  0.00    +0.000 C 
ATOM      9  O   UNL     1      47.129   0.005   7.343  0.00  0.00    +0.000 OA
ATOM     10  H   UNL     1      49.053   1.172   6.387  0.00  0.00    +0.000 HD
ATOM     11  H   UNL     1      48.592   2.764   6.881  0.00  0.00    +0.000 HD
ENDBRANCH   1   8
BRANCH   4  12
ATOM     12  N   UNL     1      43.761   4.917   9.894  0.00  0.00    +0.000 N 
ATOM     13  H   UNL     1      42.879   5.144   9.439  0.00  0.00    +0.000 HD
BRANCH  12  14
ATOM     14  C   UNL     1      43.688   4.867  11.349  0.00  0.00    +0.000 C 
BRANCH  14  15
ATOM     15  C   UNL     1      45.038   5.161  11.968  0.00  0.00    +0.000 A 
ATOM     16  C   UNL     1      45.784   6.290  11.598  0.00  0.00    +0.000 A 
ATOM     17  C   UNL     1      46.982   6.599  12.253  0.00  0.00    +0.000 A 
ATOM     18  C   UNL     1      47.445   5.789  13.290  0.00  0.00    +0.000 A 
ATOM     19  C   UNL     1      46.715   4.663  13.665  0.00  0.00    +0.000 A 
ATOM     20  C   UNL     1      45.525   4.348  13.005  0.00  0.00    +0.000 A 
ENDBRANCH  14  15
ENDBRANCH  12  14
ENDBRANCH   4  12
TORSDOF 4
ENDMDL
MODEL 3
REMARK VINA RESULT:    -6.549      1.770      2.327
REMARK INTER + INTRA:          -8.564
REMARK INTER:                  -8.150
REMARK INTRA:                  -0.415
REMARK UNBOUND:                -0.484
REMARK  Name = 
REMARK  4 active torsions:
REMARK  status: ('A' for Active; 'I' for Inactive)
REMARK    1  A    between atoms: C_2  and  C_4
REMARK    2  A    between atoms: C_7  and  N_8
REMARK    3  A    between atoms: N_8  and  C_9
REMARK    4  A    between atoms: C_9  and  C_10
REMARK                            x       y       z     vdW  Elec       q    Type
REMARK                         _______ _______ _______ _____ _____    ______ ____
ROOT
ATOM      1  C   UNL     1      46.916   6.450  12.754  0.00  0.00    +0.000 A 
ATOM      2  C   UNL     1      46.239   7.158  11.756  0.00  0.00    +0.000 A 
ATOM      3  C   UNL     1      45.213   6.538  11.025  0.00  0.00    +0.000 A 
ATOM      4  C   UNL     1      44.856   5.206  11.266  0.00  0.00    +0.000 A 
ATOM      5  C   UNL     1      45.486   4.539  12.323  0.00  0.00    +0.000 A 
ATOM      6  C   UNL     1      46.525   5.141  13.043  0.00  0.00    +0.000 A 
ENDROOT
BRANCH   1   8
ATOM      7  N   UNL     1      49.331   6.734  12.986  0.00  0.00    +0.000 N 
ATOM      8  C   UNL     1      48.085   7.017  13.476  0.00  0.00    +0.000 C 
ATOM      9  O   UNL     1      47.950   7.729  14.464  0.00  0.00    +0.000 OA
ATOM     10  H   UNL     1      50.104   7.198  13.436  0.00  0.00    +0.000 HD
ATOM     11  H   UNL     1      49.472   6.370  12.055  0.00  0.00    +0.000 HD
ENDBRANCH   1   8
BRANCH   4  12
ATOM     12  N   UNL     1      43.929   4.494  10.503  0.00  0.00    +0.000 N 
ATOM     13  H   UNL     1      43.571   5.019   9.708  0.00  0.00    +0.000 HD
BRANCH  12  14
ATOM     14  C   UNL     1      44.161   3.081  10.230  0.00  0.00    +0.000 C 
BRANCH  14  15
ATOM     15  C   UNL     1      45.074   2.905   9.036  0.00  0.00    +0.000 A 
ATOM     16  C   UNL     1      45.484   3.998   8.259  0.00  0.00    +0.000 A 
ATOM     17  C   UNL     1      46.409   3.830   7.221  0.00  0.00    +0.000 A 
ATOM     18  C   UNL     1      46.940   2.569   6.953  0.00  0.00    +0.000 A 
ATOM     19  C   UNL     1      46.540   1.473   7.714  0.00  0.00    +0.000 A 
ATOM     20  C   UNL     1      45.609   1.639   8.744  0.00  0.00    +0.000 A 
ENDBRANCH  14  15
ENDBRANCH  12  14
ENDBRANCH   4  12
TORSDOF 4
ENDMDL
MODEL 4
REMARK VINA RESULT:    -5.686      3.045      7.179
REMARK INTER + INTRA:          -7.499
REMARK INTER:                  -7.113
REMARK INTRA:                  -0.386
REMARK UNBOUND:                -0.484
REMARK  Name = 
REMARK  4 active torsions:
REMARK  status: ('A' for Active; 'I' for Inactive)
REMARK    1  A    between atoms: C_2  and  C_4
REMARK    2  A    between atoms: C_7  and  N_8
REMARK    3  A    between atoms: N_8  and  C_9
REMARK    4  A    between atoms: C_9  and  C_10
REMARK                            x       y       z     vdW  Elec       q    Type
REMARK                         _______ _______ _______ _____ _____    ______ ____
ROOT
ATOM      1  C   UNL     1      45.535   4.929  11.512  0.00  0.00    +0.000 A 
ATOM      2  C   UNL     1      46.319   6.054  11.785  0.00  0.00    +0.000 A 
ATOM      3  C   UNL     1      46.974   6.173  13.020  0.00  0.00    +0.000 A 
ATOM      4  C   UNL     1      46.849   5.184  14.004  0.00  0.00    +0.000 A 
ATOM      5  C   UNL     1      46.129   4.028  13.683  0.00  0.00    +0.000 A 
ATOM      6  C   UNL     1      45.454   3.910  12.463  0.00  0.00    +0.000 A 
ENDROOT
BRANCH   1   8
ATOM      7  N   UNL     1      45.347   5.076   9.081  0.00  0.00    +0.000 N 
ATOM      8  C   UNL     1      44.726   4.806  10.270  0.00  0.00    +0.000 C 
ATOM      9  O   UNL     1      43.552   4.458  10.297  0.00  0.00    +0.000 OA
ATOM     10  H   UNL     1      44.808   4.903   8.247  0.00  0.00    +0.000 HD
ATOM     11  H   UNL     1      46.351   5.120   8.997  0.00  0.00    +0.000 HD
ENDBRANCH   1   8
BRANCH   4  12
ATOM     12  N   UNL     1      47.377   5.290  15.292  0.00  0.00    +0.000 N 
ATOM     13  H   UNL     1      47.229   6.204  15.715  0.00  0.00    +0.000 HD
BRANCH  12  14
ATOM     14  C   UNL     1      47.236   4.173  16.217  0.00  0.00    +0.000 C 
BRANCH  14  15
ATOM     15  C   UNL     1      48.582   3.755  16.768  0.00  0.00    +0.000 A 
ATOM     16  C   UNL     1      49.007   2.418  16.731  0.00  0.00    +0.000 A 
ATOM     17  C   UNL     1      50.295   2.067  17.152  0.00  0.00    +0.000 A 
ATOM     18  C   UNL     1      51.176   3.046  17.608  0.00  0.00    +0.000 A 
ATOM     19  C   UNL     1      50.767   4.377  17.653  0.00  0.00    +0.000 A 
ATOM     20  C   UNL     1      49.478   4.727  17.243  0.00  0.00    +0.000 A 
ENDBRANCH  14  15
ENDBRANCH  12  14
ENDBRANCH   4  12
TORSDOF 4
ENDMDL
MODEL 5
REMARK VINA RESULT:    -5.573      2.914      6.241
REMARK INTER + INTRA:          -7.360
REMARK INTER:                  -6.916
REMARK INTRA:                  -0.445
REMARK UNBOUND:                -0.484
REMARK  Name = 
REMARK  4 active torsions:
REMARK  status: ('A' for Active; 'I' for Inactive)
REMARK    1  A    between atoms: C_2  and  C_4
REMARK    2  A    between atoms: C_7  and  N_8
REMARK    3  A    between atoms: N_8  and  C_9
REMARK    4  A    between atoms: C_9  and  C_10
REMARK                            x       y       z     vdW  Elec       q    Type
REMARK                         _______ _______ _______ _____ _____    ______ ____
ROOT
ATOM      1  C   UNL     1      44.881   3.772  10.337  0.00  0.00    +0.000 A 
ATOM      2  C   UNL     1      44.880   3.241  11.630  0.00  0.00    +0.000 A 
ATOM      3  C   UNL     1      45.276   4.034  12.718  0.00  0.00    +0.000 A 
ATOM      4  C   UNL     1      45.690   5.359  12.536  0.00  0.00    +0.000 A 
ATOM      5  C   UNL     1      45.605   5.900  11.248  0.00  0.00    +0.000 A 
ATOM      6  C   UNL     1      45.232   5.111  10.153  0.00  0.00    +0.000 A 
ENDROOT
BRANCH   1   8
ATOM      7  N   UNL     1      44.212   3.599   7.995  0.00  0.00    +0.000 N 
ATOM      8  C   UNL     1      44.585   2.946   9.138  0.00  0.00    +0.000 C 
ATOM      9  O   UNL     1      44.686   1.725   9.154  0.00  0.00    +0.000 OA
ATOM     10  H   UNL     1      44.101   3.029   7.171  0.00  0.00    +0.000 HD
ATOM     11  H   UNL     1      44.356   4.590   7.870  0.00  0.00    +0.000 HD
ENDBRANCH   1   8
BRANCH   4  12
ATOM     12  N   UNL     1      46.203   6.166  13.552  0.00  0.00    +0.000 N 
ATOM     13  H   UNL     1      45.699   6.077  14.432  0.00  0.00    +0.000 HD
BRANCH  12  14
ATOM     14  C   UNL     1      47.647   6.297  13.701  0.00  0.00    +0.000 C 
BRANCH  14  15
ATOM     15  C   UNL     1      48.174   7.443  12.864  0.00  0.00    +0.000 A 
ATOM     16  C   UNL     1      47.509   8.677  12.808  0.00  0.00    +0.000 A 
ATOM     17  C   UNL     1      48.065   9.756  12.110  0.00  0.00    +0.000 A 
ATOM     18  C   UNL     1      49.295   9.618  11.467  0.00  0.00    +0.000 A 
ATOM     19  C   UNL     1      49.965   8.398  11.513  0.00  0.00    +0.000 A 
ATOM     20  C   UNL     1      49.406   7.317  12.200  0.00  0.00    +0.000 A 
ENDBRANCH  14  15
ENDBRANCH  12  14
ENDBRANCH   4  12
TORSDOF 4
ENDMDL
MODEL 6
REMARK VINA RESULT:    -5.241      3.416      5.968
REMARK INTER + INTRA:          -6.950
REMARK INTER:                  -6.570
REMARK INTRA:                  -0.380
REMARK UNBOUND:                -0.484
REMARK  Name = 
REMARK  4 active torsions:
REMARK  status: ('A' for Active; 'I' for Inactive)
REMARK    1  A    between atoms: C_2  and  C_4
REMARK    2  A    between atoms: C_7  and  N_8
REMARK    3  A    between atoms: N_8  and  C_9
REMARK    4  A    between atoms: C_9  and  C_10
REMARK                            x       y       z     vdW  Elec       q    Type
REMARK                         _______ _______ _______ _____ _____    ______ ____
ROOT
ATOM      1  C   UNL     1      44.694   4.212  11.602  0.00  0.00    +0.000 A 
ATOM      2  C   UNL     1      45.578   4.185  12.685  0.00  0.00    +0.000 A 
ATOM      3  C   UNL     1      46.009   5.385  13.272  0.00  0.00    +0.000 A 
ATOM      4  C   UNL     1      45.579   6.625  12.785  0.00  0.00    +0.000 A 
ATOM      5  C   UNL     1      44.630   6.632  11.756  0.00  0.00    +0.000 A 
ATOM      6  C   UNL     1      44.211   5.442  11.150  0.00  0.00    +0.000 A 
ENDROOT
BRANCH   1   8
ATOM      7  N   UNL     1      43.396   2.147  11.473  0.00  0.00    +0.000 N 
ATOM      8  C   UNL     1      44.297   2.981  10.869  0.00  0.00    +0.000 C 
ATOM      9  O   UNL     1      44.739   2.723   9.755  0.00  0.00    +0.000 OA
ATOM     10  H   UNL     1      43.074   1.365  10.923  0.00  0.00    +0.000 HD
ATOM     11  H   UNL     1      42.832   2.441  12.256  0.00  0.00    +0.000 HD
ENDBRANCH   1   8
BRANCH   4  12
ATOM     12  N   UNL     1      46.054   7.854  13.245  0.00  0.00    +0.000 N 
ATOM     13  H   UNL     1      46.706   7.770  14.022  0.00  0.00    +0.000 HD
BRANCH  12  14
ATOM     14  C   UNL     1      46.403   8.892  12.282  0.00  0.00    +0.000 C 
BRANCH  14  15
ATOM     15  C   UNL     1      47.893   8.900  12.015  0.00  0.00    +0.000 A 
ATOM     16  C   UNL     1      48.631   7.710  11.933  0.00  0.00    +0.000 A 
ATOM     17  C   UNL     1      49.987   7.733  11.585  0.00  0.00    +0.000 A 
ATOM     18  C   UNL     1      50.620   8.944  11.308  0.00  0.00    +0.000 A 
ATOM     19  C   UNL     1      49.901  10.134  11.388  0.00  0.00    +0.000 A 
ATOM     20  C   UNL     1      48.550  10.113  11.746  0.00  0.00    +0.000 A 
ENDBRANCH  14  15
ENDBRANCH  12  14
ENDBRANCH   4  12
TORSDOF 4
ENDMDL
MODEL 7
REMARK VINA RESULT:    -5.221      3.833      5.989
REMARK INTER + INTRA:          -6.926
REMARK INTER:                  -6.617
REMARK INTRA:                  -0.309
REMARK UNBOUND:                -0.484
REMARK  Name = 
REMARK  4 active torsions:
REMARK  status: ('A' for Active; 'I' for Inactive)
REMARK    1  A    between atoms: C_2  and  C_4
REMARK    2  A    between atoms: C_7  and  N_8
REMARK    3  A    between atoms: N_8  and  C_9
REMARK    4  A    between atoms: C_9  and  C_10
REMARK                            x       y       z     vdW  Elec       q    Type
REMARK                         _______ _______ _______ _____ _____    ______ ____
ROOT
ATOM      1  C   UNL     1      48.815   4.763  18.472  0.00  0.00    +0.000 A 
ATOM      2  C   UNL     1      48.239   3.498  18.327  0.00  0.00    +0.000 A 
ATOM      3  C   UNL     1      47.584   3.155  17.133  0.00  0.00    +0.000 A 
ATOM      4  C   UNL     1      47.482   4.067  16.075  0.00  0.00    +0.000 A 
ATOM      5  C   UNL     1      48.136   5.297  16.206  0.00  0.00    +0.000 A 
ATOM      6  C   UNL     1      48.772   5.657  17.399  0.00  0.00    +0.000 A 
ENDROOT
BRANCH   1   8
ATOM      7  N   UNL     1      49.654   4.276  20.713  0.00  0.00    +0.000 N 
ATOM      8  C   UNL     1      49.416   5.221  19.753  0.00  0.00    +0.000 C 
ATOM      9  O   UNL     1      49.710   6.395  19.945  0.00  0.00    +0.000 OA
ATOM     10  H   UNL     1      50.142   4.591  21.538  0.00  0.00    +0.000 HD
ATOM     11  H   UNL     1      49.660   3.288  20.507  0.00  0.00    +0.000 HD
ENDBRANCH   1   8
BRANCH   4  12
ATOM     12  N   UNL     1      46.750   3.835  14.910  0.00  0.00    +0.000 N 
ATOM     13  H   UNL     1      45.943   3.231  15.053  0.00  0.00    +0.000 HD
BRANCH  12  14
ATOM     14  C   UNL     1      46.518   4.933  13.981  0.00  0.00    +0.000 C 
BRANCH  14  15
ATOM     15  C   UNL     1      45.351   4.628  13.065  0.00  0.00    +0.000 A 
ATOM     16  C   UNL     1      45.289   3.435  12.330  0.00  0.00    +0.000 A 
ATOM     17  C   UNL     1      44.156   3.124  11.568  0.00  0.00    +0.000 A 
ATOM     18  C   UNL     1      43.070   3.998  11.538  0.00  0.00    +0.000 A 
ATOM     19  C   UNL     1      43.119   5.188  12.261  0.00  0.00    +0.000 A 
ATOM     20  C   UNL     1      44.254   5.503  13.013  0.00  0.00    +0.000 A 
ENDBRANCH  14  15
ENDBRANCH  12  14
ENDBRANCH   4  12
TORSDOF 4
ENDMDL
MODEL 8
REMARK VINA RESULT:    -5.188      3.021      7.311
REMARK INTER + INTRA:          -6.886
REMARK INTER:                  -6.463
REMARK INTRA:                  -0.423
REMARK UNBOUND:                -0.484
REMARK  Name = 
REMARK  4 active torsions:
REMARK  status: ('A' for Active; 'I' for Inactive)
REMARK    1  A    between atoms: C_2  and  C_4
REMARK    2  A    between atoms: C_7  and  N_8
REMARK    3  A    between atoms: N_8  and  C_9
REMARK    4  A    between atoms: C_9  and  C_10
REMARK                            x       y       z     vdW  Elec       q    Type
REMARK                         _______ _______ _______ _____ _____    ______ ____
ROOT
ATOM      1  C   UNL     1      44.809   4.771  11.233  0.00  0.00    +0.000 A 
ATOM      2  C   UNL     1      44.941   4.316  12.548  0.00  0.00    +0.000 A 
ATOM      3  C   UNL     1      45.685   5.057  13.479  0.00  0.00    +0.000 A 
ATOM      4  C   UNL     1      46.318   6.252  13.114  0.00  0.00    +0.000 A 
ATOM      5  C   UNL     1      46.107   6.735  11.818  0.00  0.00    +0.000 A 
ATOM      6  C   UNL     1      45.385   5.992  10.876  0.00  0.00    +0.000 A 
ENDROOT
BRANCH   1   8
ATOM      7  N   UNL     1      44.118   4.480   8.909  0.00  0.00    +0.000 N 
ATOM      8  C   UNL     1      44.134   3.970  10.178  0.00  0.00    +0.000 C 
ATOM      9  O   UNL     1      43.624   2.882  10.421  0.00  0.00    +0.000 OA
ATOM     10  H   UNL     1      43.733   3.883   8.193  0.00  0.00    +0.000 HD
ATOM     11  H   UNL     1      44.728   5.231   8.623  0.00  0.00    +0.000 HD
ENDBRANCH   1   8
BRANCH   4  12
ATOM     12  N   UNL     1      47.164   6.977  13.953  0.00  0.00    +0.000 N 
ATOM     13  H   UNL     1      46.671   7.480  14.689  0.00  0.00    +0.000 HD
BRANCH  12  14
ATOM     14  C   UNL     1      48.429   6.389  14.377  0.00  0.00    +0.000 C 
BRANCH  14  15
ATOM     15  C   UNL     1      48.394   6.037  15.849  0.00  0.00    +0.000 A 
ATOM     16  C   UNL     1      47.905   4.800  16.296  0.00  0.00    +0.000 A 
ATOM     17  C   UNL     1      47.975   4.453  17.651  0.00  0.00    +0.000 A 
ATOM     18  C   UNL     1      48.540   5.334  18.573  0.00  0.00    +0.000 A 
ATOM     19  C   UNL     1      49.027   6.566  18.143  0.00  0.00    +0.000 A 
ATOM     20  C   UNL     1      48.948   6.918  16.793  0.00  0.00    +0.000 A 
ENDBRANCH  14  15
ENDBRANCH  12  14
ENDBRANCH   4  12
TORSDOF 4
ENDMDL
MODEL 9
REMARK VINA RESULT:    -5.038      3.909      5.758
REMARK INTER + INTRA:          -6.700
REMARK INTER:                  -6.228
REMARK INTRA:                  -0.473
REMARK UNBOUND:                -0.484
REMARK  Name = 
REMARK  4 active torsions:
REMARK  status: ('A' for Active; 'I' for Inactive)
REMARK    1  A    between atoms: C_2  and  C_4
REMARK    2  A    between atoms: C_7  and  N_8
REMARK    3  A    between atoms: N_8  and  C_9
REMARK    4  A    between atoms: C_9  and  C_10
REMARK                            x       y       z     vdW  Elec       q    Type
REMARK                         _______ _______ _______ _____ _____    ______ ____
ROOT
ATOM      1  C   UNL     1      49.961   7.948  12.159  0.00  0.00    +0.000 A 
ATOM      2  C   UNL     1      48.786   7.679  11.453  0.00  0.00    +0.000 A 
ATOM      3  C   UNL     1      47.695   7.080  12.102  0.00  0.00    +0.000 A 
ATOM      4  C   UNL     1      47.762   6.729  13.456  0.00  0.00    +0.000 A 
ATOM      5  C   UNL     1      48.914   7.081  14.167  0.00  0.00    +0.000 A 
ATOM      6  C   UNL     1      50.015   7.659  13.524  0.00  0.00    +0.000 A 
ENDROOT
BRANCH   1   8
ATOM      7  N   UNL     1      52.317   7.706  11.562  0.00  0.00    +0.000 N 
ATOM      8  C   UNL     1      51.185   8.472  11.497  0.00  0.00    +0.000 C 
ATOM      9  O   UNL     1      51.187   9.539  10.895  0.00  0.00    +0.000 OA
ATOM     10  H   UNL     1      53.110   8.036  11.033  0.00  0.00    +0.000 HD
ATOM     11  H   UNL     1      52.293   6.732  11.823  0.00  0.00    +0.000 HD
ENDBRANCH   1   8
BRANCH   4  12
ATOM     12  N   UNL     1      46.762   6.030  14.133  0.00  0.00    +0.000 N 
ATOM     13  H   UNL     1      45.914   6.574  14.276  0.00  0.00    +0.000 HD
BRANCH  12  14
ATOM     14  C   UNL     1      46.525   4.628  13.811  0.00  0.00    +0.000 C 
BRANCH  14  15
ATOM     15  C   UNL     1      45.252   4.467  13.007  0.00  0.00    +0.000 A 
ATOM     16  C   UNL     1      44.237   5.435  13.040  0.00  0.00    +0.000 A 
ATOM     17  C   UNL     1      43.113   5.318  12.213  0.00  0.00    +0.000 A 
ATOM     18  C   UNL     1      42.995   4.239  11.338  0.00  0.00    +0.000 A 
ATOM     19  C   UNL     1      43.994   3.270  11.296  0.00  0.00    +0.000 A 
ATOM     20  C   UNL     1      45.111   3.380  12.129  0.00  0.00    +0.000 A 
ENDBRANCH  14  15
ENDBRANCH  12  14
ENDBRANCH   4  12
TORSDOF 4
ENDMDL
