MODEL 1
REMARK VINA RESULT:    -8.921      0.000      0.000
REMARK INTER + INTRA:         -11.545
REMARK INTER:                 -11.007
REMARK INTRA:                  -0.538
REMARK UNBOUND:                -0.538
REMARK  Name = 
REMARK  4 active torsions:
REMARK  status: ('A' for Active; 'I' for Inactive)
REMARK    1  A    between atoms: C_2  and  C_4
REMARK    2  A    between atoms: N_8  and  C_9
REMARK    3  A    between atoms: C_9  and  C_10
REMARK    4  A    between atoms: C_14  and  C_15
REMARK                            x       y       z     vdW  Elec       q    Type
REMARK                         _______ _______ _______ _____ _____    ______ ____
ROOT
ATOM      1  C   UNL     1      43.549   3.683  11.186  0.00  0.00    +0.000 C 
ENDROOT
BRANCH   1   6
ATOM      2  C   UNL     1      46.631   2.479   7.229  0.00  0.00    +0.000 A 
ATOM      3  C   UNL     1      46.044   3.687   7.583  0.00  0.00    +0.000 A 
ATOM      4  C   UNL     1      45.230   3.738   8.714  0.00  0.00    +0.000 A 
ATOM      5  C   UNL     1      45.005   2.590   9.464  0.00  0.00    +0.000 A 
ATOM      6  N   UNL     1      44.292   2.579  10.631  0.00  0.00    +0.000 N 
ATOM      7  N   UNL     1      45.535   1.405   9.101  0.00  0.00    +0.000 NA
ATOM      8  C   UNL     1      46.327   1.367   7.996  0.00  0.00    +0.000 A 
ATOM      9  H   UNL     1      44.127   1.643  10.978  0.00  0.00    +0.000 HD
BRANCH   2  11
ATOM     10  N   UNL     1      47.446   3.293   5.096  0.00  0.00    +0.000 N 
ATOM     11  C   UNL     1      47.556   2.355   6.086  0.00  0.00    +0.000 C 
ATOM     12  O   UNL     1      48.410   1.479   6.043  0.00  0.00    +0.000 OA
ATOM     13  H   UNL     1      48.152   3.266   4.372  0.00  0.00    +0.000 HD
ATOM     14  H   UNL     1      46.938   4.158   5.218  0.00  0.00    +0.000 HD
ENDBRANCH   2  11
ENDBRANCH   1   6
BRANCH   1  15
ATOM     15  C   UNL     1      44.459   4.763  11.714  0.00  0.00    +0.000 A 
ATOM     16  C   UNL     1      44.448   6.051  11.167  0.00  0.00    +0.000 A 
ATOM     17  C   UNL     1      45.305   7.032  11.660  0.00  0.00    +0.000 A 
ATOM     18  C   UNL     1      46.175   6.737  12.712  0.00  0.00    +0.000 A 
ATOM     19  C   UNL     1      46.201   5.462  13.304  0.00  0.00    +0.000 A 
ATOM     20  C   UNL     1      45.342   4.484  12.772  0.00  0.00    +0.000 A 
BRANCH  19  21
ATOM     21  C   UNL     1      47.069   5.164  14.460  0.00  0.00    +0.000 A 
ATOM     22  C   UNL     1      48.089   6.035  14.860  0.00  0.00    +0.000 A 
ATOM     23  N   UNL     1      48.920   5.840  15.917  0.00  0.00    +0.000 NA
ATOM     24  C   UNL     1      48.715   4.715  16.636  0.00  0.00    +0.000 A 
ATOM     25  C   UNL     1      47.730   3.792  16.339  0.00  0.00    +0.000 A 
ATOM     26  F   UNL     1      47.570   2.698  17.093  0.00  0.00    +0.000 F 
ATOM     27  C   UNL     1      46.905   4.012  15.243  0.00  0.00    +0.000 A 
ENDBRANCH  19  21
ENDBRANCH   1  15
TORSDOF 4
ENDMDL
MODEL 2
REMARK VINA RESULT:    -8.587      3.261      4.640
REMARK INTER + INTRA:         -11.132
REMARK INTER:                 -10.511
REMARK INTRA:                  -0.621
REMARK UNBOUND:                -0.538
REMARK  Name = 
REMARK  4 active torsions:
REMARK  status: ('A' for Active; 'I' for Inactive)
REMARK    1  A    between atoms: C_2  and  C_4
REMARK    2  A    between atoms: N_8  and  C_9
REMARK    3  A    between atoms: C_9  and  C_10
REMARK    4  A    between atoms: C_14  and  C_15
REMARK                            x       y       z     vdW  Elec       q    Type
REMARK                         _______ _______ _______ _____ _____    ______ ____
ROOT
ATOM      1  C   UNL     1      43.468   3.695  11.260  0.00  0.00    +0.000 C 
ENDROOT
BRANCH   1   6
ATOM      2  C   UNL     1      46.533   2.730   7.226  0.00  0.00    +0.000 A 
ATOM      3  C   UNL     1      45.933   3.911   7.644  0.00  0.00    +0.000 A 
ATOM      4  C   UNL     1      45.127   3.895   8.782  0.00  0.00    +0.000 A 
ATOM      5  C   UNL     1      44.924   2.708   9.475  0.00  0.00    +0.000 A 
ATOM      6  N   UNL     1      44.220   2.630  10.646  0.00  0.00    +0.000 N 
ATOM      7  N   UNL     1      45.465   1.549   9.050  0.00  0.00    +0.000 NA
ATOM      8  C   UNL     1      46.249   1.577   7.939  0.00  0.00    +0.000 A 
ATOM      9  H   UNL     1      44.070   1.675  10.947  0.00  0.00    +0.000 HD
BRANCH   2  11
ATOM     10  N   UNL     1      48.759   2.378   6.334  0.00  0.00    +0.000 N 
ATOM     11  C   UNL     1      47.450   2.675   6.072  0.00  0.00    +0.000 C 
ATOM     12  O   UNL     1      47.053   2.847   4.926  0.00  0.00    +0.000 OA
ATOM     13  H   UNL     1      49.357   2.235   5.531  0.00  0.00    +0.000 HD
ATOM     14  H   UNL     1      49.064   1.987   7.215  0.00  0.00    +0.000 HD
ENDBRANCH   2  11
ENDBRANCH   1   6
BRANCH   1  15
ATOM     15  C   UNL     1      44.369   4.745  11.860  0.00  0.00    +0.000 A 
ATOM     16  C   UNL     1      45.415   4.395  12.721  0.00  0.00    +0.000 A 
ATOM     17  C   UNL     1      46.228   5.381  13.275  0.00  0.00    +0.000 A 
ATOM     18  C   UNL     1      46.009   6.725  12.965  0.00  0.00    +0.000 A 
ATOM     19  C   UNL     1      44.983   7.116  12.088  0.00  0.00    +0.000 A 
ATOM     20  C   UNL     1      44.163   6.103  11.560  0.00  0.00    +0.000 A 
BRANCH  19  21
ATOM     21  C   UNL     1      44.791   8.528  11.703  0.00  0.00    +0.000 A 
ATOM     22  C   UNL     1      45.603   9.548  12.213  0.00  0.00    +0.000 A 
ATOM     23  N   UNL     1      45.498  10.865  11.900  0.00  0.00    +0.000 NA
ATOM     24  C   UNL     1      44.536  11.192  11.011  0.00  0.00    +0.000 A 
ATOM     25  C   UNL     1      43.687  10.266  10.436  0.00  0.00    +0.000 A 
ATOM     26  F   UNL     1      42.756  10.650   9.554  0.00  0.00    +0.000 F 
ATOM     27  C   UNL     1      43.808   8.928  10.786  0.00  0.00    +0.000 A 
ENDBRANCH  19  21
ENDBRANCH   1  15
TORSDOF 4
ENDMDL
MODEL 3
REMARK VINA RESULT:    -8.041      2.267      2.727
REMARK INTER + INTRA:         -10.460
REMARK INTER:                 -10.114
REMARK INTRA:                  -0.345
REMARK UNBOUND:                -0.538
REMARK  Name = 
REMARK  4 active torsions:
REMARK  status: ('A' for Active; 'I' for Inactive)
REMARK    1  A    between atoms: C_2  and  C_4
REMARK    2  A    between atoms: N_8  and  C_9
REMARK    3  A    between atoms: C_9  and  C_10
REMARK    4  A    between atoms: C_14  and  C_15
REMARK                            x       y       z     vdW  Elec       q    Type
REMARK                         _______ _______ _______ _____ _____    ______ ____
ROOT
ATOM      1  C   UNL     1      43.334   3.147  11.248  0.00  0.00    +0.000 C 
ENDROOT
BRANCH   1   6
ATOM      2  C   UNL     1      46.355   2.660   7.096  0.00  0.00    +0.000 A 
ATOM      3  C   UNL     1      45.404   3.622   7.416  0.00  0.00    +0.000 A 
ATOM      4  C   UNL     1      44.707   3.510   8.618  0.00  0.00    +0.000 A 
ATOM      5  C   UNL     1      44.957   2.444   9.473  0.00  0.00    +0.000 A 
ATOM      6  N   UNL     1      44.378   2.314  10.706  0.00  0.00    +0.000 N 
ATOM      7  N   UNL     1      45.844   1.483   9.149  0.00  0.00    +0.000 NA
ATOM      8  C   UNL     1      46.519   1.601   7.974  0.00  0.00    +0.000 A 
ATOM      9  H   UNL     1      44.580   1.422  11.139  0.00  0.00    +0.000 HD
BRANCH   2  11
ATOM     10  N   UNL     1      48.507   2.435   6.005  0.00  0.00    +0.000 N 
ATOM     11  C   UNL     1      47.180   2.739   5.876  0.00  0.00    +0.000 C 
ATOM     12  O   UNL     1      46.694   3.025   4.789  0.00  0.00    +0.000 OA
ATOM     13  H   UNL     1      49.042   2.386   5.148  0.00  0.00    +0.000 HD
ATOM     14  H   UNL     1      48.882   1.958   6.814  0.00  0.00    +0.000 HD
ENDBRANCH   2  11
ENDBRANCH   1   6
BRANCH   1  15
ATOM     15  C   UNL     1      43.770   4.585  11.371  0.00  0.00    +0.000 A 
ATOM     16  C   UNL     1      42.894   5.635  11.072  0.00  0.00    +0.000 A 
ATOM     17  C   UNL     1      43.319   6.957  11.179  0.00  0.00    +0.000 A 
ATOM     18  C   UNL     1      44.621   7.242  11.595  0.00  0.00    +0.000 A 
ATOM     19  C   UNL     1      45.524   6.217  11.925  0.00  0.00    +0.000 A 
ATOM     20  C   UNL     1      45.077   4.891  11.788  0.00  0.00    +0.000 A 
BRANCH  19  21
ATOM     21  C   UNL     1      46.879   6.514  12.431  0.00  0.00    +0.000 A 
ATOM     22  C   UNL     1      47.342   5.996  13.647  0.00  0.00    +0.000 A 
ATOM     23  N   UNL     1      48.575   6.212  14.174  0.00  0.00    +0.000 NA
ATOM     24  C   UNL     1      49.411   6.978  13.441  0.00  0.00    +0.000 A 
ATOM     25  C   UNL     1      49.063   7.531  12.222  0.00  0.00    +0.000 A 
ATOM     26  F   UNL     1      49.939   8.276  11.537  0.00  0.00    +0.000 F 
ATOM     27  C   UNL     1      47.790   7.304  11.715  0.00  0.00    +0.000 A 
ENDBRANCH  19  21
ENDBRANCH   1  15
TORSDOF 4
ENDMDL
MODEL 4
REMARK VINA RESULT:    -7.955      3.613      7.231
REMARK INTER + INTRA:         -10.353
REMARK INTER:                  -9.600
REMARK INTRA:                  -0.753
REMARK UNBOUND:                -0.538
REMARK  Name = 
REMARK  4 active torsions:
REMARK  status: ('A' for Active; 'I' for Inactive)
REMARK    1  A    between atoms: C_2  and  C_4
REMARK    2  A    between atoms: N_8  and  C_9
REMARK    3  A    between atoms: C_9  and  C_10
REMARK    4  A    between atoms: C_14  and  C_15
REMARK                            x       y       z     vdW  Elec       q    Type
REMARK                         _______ _______ _______ _____ _____    ______ ____
ROOT
ATOM      1  C   UNL     1      44.579   6.485  12.350  0.00  0.00    +0.000 C 
ENDROOT
BRANCH   1   6
ATOM      2  C   UNL     1      49.569   7.753  12.648  0.00  0.00    +0.000 A 
ATOM      3  C   UNL     1      48.666   7.874  11.599  0.00  0.00    +0.000 A 
ATOM      4  C   UNL     1      47.355   7.435  11.781  0.00  0.00    +0.000 A 
ATOM      5  C   UNL     1      46.969   6.875  12.992  0.00  0.00    +0.000 A 
ATOM      6  N   UNL     1      45.683   6.503  13.276  0.00  0.00    +0.000 N 
ATOM      7  N   UNL     1      47.851   6.713  13.999  0.00  0.00    +0.000 NA
ATOM      8  C   UNL     1      49.127   7.144  13.810  0.00  0.00    +0.000 A 
ATOM      9  H   UNL     1      45.606   6.006  14.154  0.00  0.00    +0.000 HD
BRANCH   2  11
ATOM     10  N   UNL     1      51.789   7.950  13.600  0.00  0.00    +0.000 N 
ATOM     11  C   UNL     1      50.955   8.251  12.559  0.00  0.00    +0.000 C 
ATOM     12  O   UNL     1      51.354   8.870  11.581  0.00  0.00    +0.000 OA
ATOM     13  H   UNL     1      52.763   8.200  13.482  0.00  0.00    +0.000 HD
ATOM     14  H   UNL     1      51.572   7.240  14.286  0.00  0.00    +0.000 HD
ENDBRANCH   2  11
ENDBRANCH   1   6
BRANCH   1  15
ATOM     15  C   UNL     1      44.355   5.111  11.770  0.00  0.00    +0.000 A 
ATOM     16  C   UNL     1      43.453   4.216  12.357  0.00  0.00    +0.000 A 
ATOM     17  C   UNL     1      43.269   2.947  11.814  0.00  0.00    +0.000 A 
ATOM     18  C   UNL     1      43.978   2.564  10.673  0.00  0.00    +0.000 A 
ATOM     19  C   UNL     1      44.877   3.441  10.042  0.00  0.00    +0.000 A 
ATOM     20  C   UNL     1      45.060   4.709  10.623  0.00  0.00    +0.000 A 
BRANCH  19  21
ATOM     21  C   UNL     1      45.577   3.067   8.797  0.00  0.00    +0.000 A 
ATOM     22  C   UNL     1      45.939   4.022   7.839  0.00  0.00    +0.000 A 
ATOM     23  N   UNL     1      46.592   3.760   6.678  0.00  0.00    +0.000 NA
ATOM     24  C   UNL     1      46.926   2.470   6.459  0.00  0.00    +0.000 A 
ATOM     25  C   UNL     1      46.629   1.448   7.341  0.00  0.00    +0.000 A 
ATOM     26  F   UNL     1      46.992   0.188   7.073  0.00  0.00    +0.000 F 
ATOM     27  C   UNL     1      45.947   1.744   8.514  0.00  0.00    +0.000 A 
ENDBRANCH  19  21
ENDBRANCH   1  15
TORSDOF 4
ENDMDL
MODEL 5
REMARK VINA RESULT:    -7.522      3.916      8.314
REMARK INTER + INTRA:          -9.818
REMARK INTER:                  -9.379
REMARK INTRA:                  -0.440
REMARK UNBOUND:                -0.538
REMARK  Name = 
REMARK  4 active torsions:
REMARK  status: ('A' for Active; 'I' for Inactive)
REMARK    1  A    between atoms: C_2  and  C_4
REMARK    2  A    between atoms: N_8  and  C_9
REMARK    3  A    between atoms: C_9  and  C_10
REMARK    4  A    between atoms: C_14  and  C_15
REMARK                            x       y       z     vdW  Elec       q    Type
REMARK                         _______ _______ _______ _____ _____    ______ ____
ROOT
ATOM      1  C   UNL     1      46.159   5.615  13.655  0.00  0.00    +0.000 C 
ENDROOT
BRANCH   1   6
ATOM      2  C   UNL     1      49.020   4.361  17.759  0.00  0.00    +0.000 A 
ATOM      3  C   UNL     1      49.073   5.470  16.925  0.00  0.00    +0.000 A 
ATOM      4  C   UNL     1      48.176   5.560  15.861  0.00  0.00    +0.000 A 
ATOM      5  C   UNL     1      47.254   4.545  15.638  0.00  0.00    +0.000 A 
ATOM      6  N   UNL     1      46.288   4.601  14.672  0.00  0.00    +0.000 N 
ATOM      7  N   UNL     1      47.227   3.444  16.416  0.00  0.00    +0.000 NA
ATOM      8  C   UNL     1      48.106   3.367  17.451  0.00  0.00    +0.000 A 
ATOM      9  H   UNL     1      45.784   3.729  14.572  0.00  0.00    +0.000 HD
BRANCH   2  11
ATOM     10  N   UNL     1      51.152   3.740  18.731  0.00  0.00    +0.000 N 
ATOM     11  C   UNL     1      49.889   4.221  18.943  0.00  0.00    +0.000 C 
ATOM     12  O   UNL     1      49.513   4.556  20.059  0.00  0.00    +0.000 OA
ATOM     13  H   UNL     1      51.776   3.750  19.528  0.00  0.00    +0.000 HD
ATOM     14  H   UNL     1      51.573   3.697  17.813  0.00  0.00    +0.000 HD
ENDBRANCH   2  11
ENDBRANCH   1   6
BRANCH   1  15
ATOM     15  C   UNL     1      45.220   5.190  12.554  0.00  0.00    +0.000 A 
ATOM     16  C   UNL     1      43.843   5.421  12.648  0.00  0.00    +0.000 A 
ATOM     17  C   UNL     1      42.990   5.010  11.627  0.00  0.00    +0.000 A 
ATOM     18  C   UNL     1      43.507   4.372  10.497  0.00  0.00    +0.000 A 
ATOM     19  C   UNL     1      44.886   4.141  10.355  0.00  0.00    +0.000 A 
ATOM     20  C   UNL     1      45.722   4.546  11.410  0.00  0.00    +0.000 A 
BRANCH  19  21
ATOM     21  C   UNL     1      45.445   3.529   9.133  0.00  0.00    +0.000 A 
ATOM     22  C   UNL     1      45.833   4.303   8.033  0.00  0.00    +0.000 A 
ATOM     23  N   UNL     1      46.365   3.819   6.881  0.00  0.00    +0.000 NA
ATOM     24  C   UNL     1      46.541   2.481   6.821  0.00  0.00    +0.000 A 
ATOM     25  C   UNL     1      46.206   1.625   7.853  0.00  0.00    +0.000 A 
ATOM     26  F   UNL     1      46.411   0.307   7.738  0.00  0.00    +0.000 F 
ATOM     27  C   UNL     1      45.650   2.147   9.013  0.00  0.00    +0.000 A 
ENDBRANCH  19  21
ENDBRANCH   1  15
TORSDOF 4
ENDMDL
MODEL 6
REMARK VINA RESULT:    -7.370      3.153      3.972
REMARK INTER + INTRA:          -9.631
REMARK INTER:                  -9.015
REMARK INTRA:                  -0.616
REMARK UNBOUND:                -0.538
REMARK  Name = 
REMARK  4 active torsions:
REMARK  status: ('A' for Active; 'I' for Inactive)
REMARK    1  A    between atoms: C_2  and  C_4
REMARK    2  A    between atoms: N_8  and  C_9
REMARK    3  A    between atoms: C_9  and  C_10
REMARK    4  A    between atoms: C_14  and  C_15
REMARK                            x       y       z     vdW  Elec       q    Type
REMARK                         _______ _______ _______ _____ _____    ______ ____
ROOT
ATOM      1  C   UNL     1      44.061   5.303  11.388  0.00  0.00    +0.000 C 
ENDROOT
BRANCH   1   6
ATOM      2  C   UNL     1      46.359   3.103   7.328  0.00  0.00    +0.000 A 
ATOM      3  C   UNL     1      46.472   4.387   7.845  0.00  0.00    +0.000 A 
ATOM      4  C   UNL     1      45.717   4.735   8.964  0.00  0.00    +0.000 A 
ATOM      5  C   UNL     1      44.857   3.808   9.541  0.00  0.00    +0.000 A 
ATOM      6  N   UNL     1      44.151   4.046  10.688  0.00  0.00    +0.000 N 
ATOM      7  N   UNL     1      44.707   2.575   9.017  0.00  0.00    +0.000 NA
ATOM      8  C   UNL     1      45.449   2.247   7.925  0.00  0.00    +0.000 A 
ATOM      9  H   UNL     1      43.487   3.310  10.897  0.00  0.00    +0.000 HD
BRANCH   2  11
ATOM     10  N   UNL     1      48.350   2.009   6.482  0.00  0.00    +0.000 N 
ATOM     11  C   UNL     1      47.170   2.636   6.187  0.00  0.00    +0.000 C 
ATOM     12  O   UNL     1      46.789   2.767   5.031  0.00  0.00    +0.000 OA
ATOM     13  H   UNL     1      48.846   1.596   5.702  0.00  0.00    +0.000 HD
ATOM     14  H   UNL     1      48.568   1.664   7.406  0.00  0.00    +0.000 HD
ENDBRANCH   2  11
ENDBRANCH   1   6
BRANCH   1  15
ATOM     15  C   UNL     1      45.281   5.561  12.236  0.00  0.00    +0.000 A 
ATOM     16  C   UNL     1      45.545   4.795  13.377  0.00  0.00    +0.000 A 
ATOM     17  C   UNL     1      46.670   5.057  14.154  0.00  0.00    +0.000 A 
ATOM     18  C   UNL     1      47.547   6.082  13.794  0.00  0.00    +0.000 A 
ATOM     19  C   UNL     1      47.329   6.861  12.644  0.00  0.00    +0.000 A 
ATOM     20  C   UNL     1      46.174   6.589  11.889  0.00  0.00    +0.000 A 
BRANCH  19  21
ATOM     21  C   UNL     1      48.288   7.899  12.220  0.00  0.00    +0.000 A 
ATOM     22  C   UNL     1      49.575   7.576  11.773  0.00  0.00    +0.000 A 
ATOM     23  N   UNL     1      50.510   8.469  11.356  0.00  0.00    +0.000 NA
ATOM     24  C   UNL     1      50.139   9.768  11.366  0.00  0.00    +0.000 A 
ATOM     25  C   UNL     1      48.891  10.198  11.776  0.00  0.00    +0.000 A 
ATOM     26  F   UNL     1      48.578  11.500  11.756  0.00  0.00    +0.000 F 
ATOM     27  C   UNL     1      47.961   9.263  12.210  0.00  0.00    +0.000 A 
ENDBRANCH  19  21
ENDBRANCH   1  15
TORSDOF 4
ENDMDL
MODEL 7
REMARK VINA RESULT:    -6.949      4.337      8.781
REMARK INTER + INTRA:          -9.111
REMARK INTER:                  -8.581
REMARK INTRA:                  -0.531
REMARK UNBOUND:                -0.538
REMARK  Name = 
REMARK  4 active torsions:
REMARK  status: ('A' for Active; 'I' for Inactive)
REMARK    1  A    between atoms: C_2  and  C_4
REMARK    2  A    between atoms: N_8  and  C_9
REMARK    3  A    between atoms: C_9  and  C_10
REMARK    4  A    between atoms: C_14  and  C_15
REMARK                            x       y       z     vdW  Elec       q    Type
REMARK                         _______ _______ _______ _____ _____    ______ ____
ROOT
ATOM      1  C   UNL     1      48.225   7.214  13.924  0.00  0.00    +0.000 C 
ENDROOT
BRANCH   1   6
ATOM      2  C   UNL     1      48.811   5.492  18.751  0.00  0.00    +0.000 A 
ATOM      3  C   UNL     1      48.806   6.787  18.247  0.00  0.00    +0.000 A 
ATOM      4  C   UNL     1      48.638   6.978  16.876  0.00  0.00    +0.000 A 
ATOM      5  C   UNL     1      48.489   5.885  16.032  0.00  0.00    +0.000 A 
ATOM      6  N   UNL     1      48.232   5.995  14.693  0.00  0.00    +0.000 N 
ATOM      7  N   UNL     1      48.538   4.624  16.507  0.00  0.00    +0.000 NA
ATOM      8  C   UNL     1      48.702   4.449  17.846  0.00  0.00    +0.000 A 
ATOM      9  H   UNL     1      48.274   5.104  14.213  0.00  0.00    +0.000 HD
BRANCH   2  11
ATOM     10  N   UNL     1      48.592   3.942  20.601  0.00  0.00    +0.000 N 
ATOM     11  C   UNL     1      48.918   5.207  20.194  0.00  0.00    +0.000 C 
ATOM     12  O   UNL     1      49.319   6.048  20.988  0.00  0.00    +0.000 OA
ATOM     13  H   UNL     1      48.772   3.723  21.573  0.00  0.00    +0.000 HD
ATOM     14  H   UNL     1      48.505   3.167  19.959  0.00  0.00    +0.000 HD
ENDBRANCH   2  11
ENDBRANCH   1   6
BRANCH   1  15
ATOM     15  C   UNL     1      47.021   7.300  13.020  0.00  0.00    +0.000 A 
ATOM     16  C   UNL     1      46.263   8.473  12.933  0.00  0.00    +0.000 A 
ATOM     17  C   UNL     1      45.147   8.529  12.102  0.00  0.00    +0.000 A 
ATOM     18  C   UNL     1      44.785   7.415  11.341  0.00  0.00    +0.000 A 
ATOM     19  C   UNL     1      45.532   6.226  11.383  0.00  0.00    +0.000 A 
ATOM     20  C   UNL     1      46.641   6.189  12.247  0.00  0.00    +0.000 A 
BRANCH  19  21
ATOM     21  C   UNL     1      45.194   5.070  10.530  0.00  0.00    +0.000 A 
ATOM     22  C   UNL     1      44.387   4.023  10.992  0.00  0.00    +0.000 A 
ATOM     23  N   UNL     1      44.022   2.934  10.268  0.00  0.00    +0.000 NA
ATOM     24  C   UNL     1      44.472   2.886   8.995  0.00  0.00    +0.000 A 
ATOM     25  C   UNL     1      45.264   3.869   8.432  0.00  0.00    +0.000 A 
ATOM     26  F   UNL     1      45.674   3.770   7.162  0.00  0.00    +0.000 F 
ATOM     27  C   UNL     1      45.634   4.964   9.202  0.00  0.00    +0.000 A 
ENDBRANCH  19  21
ENDBRANCH   1  15
TORSDOF 4
ENDMDL
MODEL 8
REMARK VINA RESULT:    -6.751      4.263      7.392
REMARK INTER + INTRA:          -8.867
REMARK INTER:                  -8.148
REMARK INTRA:                  -0.719
REMARK UNBOUND:                -0.538
REMARK  Name = 
REMARK  4 active torsions:
REMARK  status: ('A' for Active; 'I' for Inactive)
REMARK    1  A    between atoms: C_2  and  C_4
REMARK    2  A    between atoms: N_8  and  C_9
REMARK    3  A    between atoms: C_9  and  C_10
REMARK    4  A    between atoms: C_14  and  C_15
REMARK                            x       y       z     vdW  Elec       q    Type
REMARK                         _______ _______ _______ _____ _____    ______ ____
ROOT
ATOM      1  C   UNL     1      45.965   6.025  13.454  0.00  0.00    +0.000 C 
ENDROOT
BRANCH   1   6
ATOM      2  C   UNL     1      49.681   9.097  11.622  0.00  0.00    +0.000 A 
ATOM      3  C   UNL     1      49.622   7.713  11.728  0.00  0.00    +0.000 A 
ATOM      4  C   UNL     1      48.486   7.125  12.283  0.00  0.00    +0.000 A 
ATOM      5  C   UNL     1      47.437   7.919  12.730  0.00  0.00    +0.000 A 
ATOM      6  N   UNL     1      46.257   7.414  13.203  0.00  0.00    +0.000 N 
ATOM      7  N   UNL     1      47.506   9.264  12.672  0.00  0.00    +0.000 NA
ATOM      8  C   UNL     1      48.619   9.827  12.130  0.00  0.00    +0.000 A 
ATOM      9  H   UNL     1      45.656   8.129  13.596  0.00  0.00    +0.000 HD
BRANCH   2  11
ATOM     10  N   UNL     1      51.973   9.077  10.835  0.00  0.00    +0.000 N 
ATOM     11  C   UNL     1      50.818   9.793  10.990  0.00  0.00    +0.000 C 
ATOM     12  O   UNL     1      50.722  10.945  10.586  0.00  0.00    +0.000 OA
ATOM     13  H   UNL     1      52.710   9.524  10.304  0.00  0.00    +0.000 HD
ATOM     14  H   UNL     1      52.008   8.071  10.920  0.00  0.00    +0.000 HD
ENDBRANCH   2  11
ENDBRANCH   1   6
BRANCH   1  15
ATOM     15  C   UNL     1      45.060   5.442  12.397  0.00  0.00    +0.000 A 
ATOM     16  C   UNL     1      43.675   5.636  12.443  0.00  0.00    +0.000 A 
ATOM     17  C   UNL     1      42.855   5.079  11.465  0.00  0.00    +0.000 A 
ATOM     18  C   UNL     1      43.413   4.331  10.426  0.00  0.00    +0.000 A 
ATOM     19  C   UNL     1      44.801   4.131  10.333  0.00  0.00    +0.000 A 
ATOM     20  C   UNL     1      45.604   4.686  11.345  0.00  0.00    +0.000 A 
BRANCH  19  21
ATOM     21  C   UNL     1      45.402   3.400   9.200  0.00  0.00    +0.000 A 
ATOM     22  C   UNL     1      45.548   2.008   9.215  0.00  0.00    +0.000 A 
ATOM     23  N   UNL     1      46.079   1.263   8.212  0.00  0.00    +0.000 NA
ATOM     24  C   UNL     1      46.475   1.939   7.112  0.00  0.00    +0.000 A 
ATOM     25  C   UNL     1      46.366   3.311   6.984  0.00  0.00    +0.000 A 
ATOM     26  F   UNL     1      46.769   3.926   5.865  0.00  0.00    +0.000 F 
ATOM     27  C   UNL     1      45.833   4.048   8.033  0.00  0.00    +0.000 A 
ENDBRANCH  19  21
ENDBRANCH   1  15
TORSDOF 4
ENDMDL
MODEL 9
REMARK VINA RESULT:    -6.670      4.413      8.572
REMARK INTER + INTRA:          -8.767
REMARK INTER:                  -8.180
REMARK INTRA:                  -0.587
REMARK UNBOUND:                -0.538
REMARK  Name = 
REMARK  4 active torsions:
REMARK  status: ('A' for Active; 'I' for Inactive)
REMARK    1  A    between atoms: C_2  and  C_4
REMARK    2  A    between atoms: N_8  and  C_9
REMARK    3  A    between atoms: C_9  and  C_10
REMARK    4  A    between atoms: C_14  and  C_15
REMARK                            x       y       z     vdW  Elec       q    Type
REMARK                         _______ _______ _______ _____ _____    ______ ____
ROOT
ATOM      1  C   UNL     1      47.877   4.588  16.749  0.00  0.00    +0.000 C 
ENDROOT
BRANCH   1   6
ATOM      2  C   UNL     1      52.096   1.814  17.804  0.00  0.00    +0.000 A 
ATOM      3  C   UNL     1      50.853   1.423  17.322  0.00  0.00    +0.000 A 
ATOM      4  C   UNL     1      49.865   2.389  17.134  0.00  0.00    +0.000 A 
ATOM      5  C   UNL     1      50.125   3.720  17.436  0.00  0.00    +0.000 A 
ATOM      6  N   UNL     1      49.239   4.734  17.197  0.00  0.00    +0.000 N 
ATOM      7  N   UNL     1      51.313   4.101  17.947  0.00  0.00    +0.000 NA
ATOM      8  C   UNL     1      52.269   3.150  18.126  0.00  0.00    +0.000 A 
ATOM      9  H   UNL     1      49.543   5.618  17.588  0.00  0.00    +0.000 HD
BRANCH   2  11
ATOM     10  N   UNL     1      53.439  -0.011  16.944  0.00  0.00    +0.000 N 
ATOM     11  C   UNL     1      53.214   0.866  17.969  0.00  0.00    +0.000 C 
ATOM     12  O   UNL     1      53.933   0.887  18.960  0.00  0.00    +0.000 OA
ATOM     13  H   UNL     1      54.271  -0.582  17.016  0.00  0.00    +0.000 HD
ATOM     14  H   UNL     1      53.038   0.110  16.024  0.00  0.00    +0.000 HD
ENDBRANCH   2  11
ENDBRANCH   1   6
BRANCH   1  15
ATOM     15  C   UNL     1      47.659   5.222  15.398  0.00  0.00    +0.000 A 
ATOM     16  C   UNL     1      48.384   6.353  15.004  0.00  0.00    +0.000 A 
ATOM     17  C   UNL     1      48.159   6.932  13.758  0.00  0.00    +0.000 A 
ATOM     18  C   UNL     1      47.214   6.381  12.890  0.00  0.00    +0.000 A 
ATOM     19  C   UNL     1      46.482   5.233  13.239  0.00  0.00    +0.000 A 
ATOM     20  C   UNL     1      46.712   4.681  14.512  0.00  0.00    +0.000 A 
BRANCH  19  21
ATOM     21  C   UNL     1      45.532   4.606  12.299  0.00  0.00    +0.000 A 
ATOM     22  C   UNL     1      44.582   3.671  12.724  0.00  0.00    +0.000 A 
ATOM     23  N   UNL     1      43.669   3.059  11.926  0.00  0.00    +0.000 NA
ATOM     24  C   UNL     1      43.687   3.411  10.622  0.00  0.00    +0.000 A 
ATOM     25  C   UNL     1      44.573   4.332  10.096  0.00  0.00    +0.000 A 
ATOM     26  F   UNL     1      44.537   4.646   8.795  0.00  0.00    +0.000 F 
ATOM     27  C   UNL     1      45.505   4.930  10.934  0.00  0.00    +0.000 A 
ENDBRANCH  19  21
ENDBRANCH   1  15
TORSDOF 4
ENDMDL
