MODEL 1
REMARK VINA RESULT:    -7.404      0.000      0.000
REMARK INTER + INTRA:         -10.002
REMARK INTER:                  -9.352
REMARK INTRA:                  -0.650
REMARK UNBOUND:                -0.650
REMARK  Name = 
REMARK  5 active torsions:
REMARK  status: ('A' for Active; 'I' for Inactive)
REMARK    1  A    between atoms: C_2  and  C_3
REMARK    2  A    between atoms: C_6  and  N_7
REMARK    3  A    between atoms: N_7  and  C_8
REMARK    4  A    between atoms: C_8  and  C_9
REMARK    5  A    between atoms: C_19  and  N_20
REMARK                            x       y       z     vdW  Elec       q    Type
REMARK                         _______ _______ _______ _____ _____    ______ ____
ROOT
ATOM      1  N   UNL     1      43.995   4.641  10.062  0.00  0.00    +0.000 N 
ATOM      2  H   UNL     1      43.214   5.134   9.644  0.00  0.00    +0.000 HD
ENDROOT
BRANCH   1   6
ATOM      3  C   UNL     1      46.734   2.832   7.480  0.00  0.00    +0.000 A 
ATOM      4  N   UNL     1      46.665   4.193   7.479  0.00  0.00    +0.000 NA
ATOM      5  C   UNL     1      45.756   4.764   8.313  0.00  0.00    +0.000 A 
ATOM      6  C   UNL     1      44.897   4.062   9.154  0.00  0.00    +0.000 A 
ATOM      7  C   UNL     1      45.011   2.666   9.118  0.00  0.00    +0.000 A 
ATOM      8  C   UNL     1      45.964   2.015   8.316  0.00  0.00    +0.000 A 
BRANCH   8   9
ATOM      9  N   UNL     1      45.924   0.611   8.238  0.00  0.00    +0.000 N 
ATOM     10  H   UNL     1      44.989   0.212   8.229  0.00  0.00    +0.000 HD
ATOM     11  H   UNL     1      46.542   0.115   8.880  0.00  0.00    +0.000 HD
ENDBRANCH   8   9
BRANCH   3  13
ATOM     12  N   UNL     1      48.436   1.783   5.808  0.00  0.00    +0.000 NA
ATOM     13  C   UNL     1      47.696   2.271   6.563  0.00  0.00    +0.000 C 
ENDBRANCH   3  13
ENDBRANCH   1   6
BRANCH   1  14
ATOM     14  C   UNL     1      44.109   4.653  11.527  0.00  0.00    +0.000 C 
ATOM     15  C   UNL     1      43.389   3.611  12.361  0.00  0.00    +0.000 C 
ATOM     16  C   UNL     1      42.839   4.995  12.312  0.00  0.00    +0.000 C 
BRANCH  14  17
ATOM     17  C   UNL     1      45.350   5.374  12.065  0.00  0.00    +0.000 A 
ATOM     18  C   UNL     1      46.143   4.778  13.069  0.00  0.00    +0.000 A 
ATOM     19  C   UNL     1      47.366   5.328  13.467  0.00  0.00    +0.000 A 
ATOM     20  C   UNL     1      47.814   6.502  12.872  0.00  0.00    +0.000 A 
ATOM     21 CL   UNL     1      49.351   7.146  13.299  0.00  0.00    +0.000 Cl
ATOM     22  C   UNL     1      47.030   7.146  11.917  0.00  0.00    +0.000 A 
ATOM     23  C   UNL     1      45.806   6.589  11.528  0.00  0.00    +0.000 A 
ENDBRANCH  14  17
ENDBRANCH   1  14
TORSDOF 5
ENDMDL
MODEL 2
REMARK VINA RESULT:    -7.051      0.968      1.681
REMARK INTER + INTRA:          -9.557
REMARK INTER:                  -8.890
REMARK INTRA:                  -0.667
REMARK UNBOUND:                -0.650
REMARK  Name = 
REMARK  5 active torsions:
REMARK  status: ('A' for Active; 'I' for Inactive)
REMARK    1  A    between atoms: C_2  and  C_3
REMARK    2  A    between atoms: C_6  and  N_7
REMARK    3  A    between atoms: N_7  and  C_8
REMARK    4  A    between atoms: C_8  and  C_9
REMARK    5  A    between atoms: C_19  and  N_20
REMARK                            x       y       z     vdW  Elec       q    Type
REMARK                         _______ _______ _______ _____ _____    ______ ____
ROOT
ATOM      1  N   UNL     1      43.764   5.148  10.077  0.00  0.00    +0.000 N 
ATOM      2  H   UNL     1      43.231   5.728   9.438  0.00  0.00    +0.000 HD
ENDROOT
BRANCH   1   6
ATOM      3  C   UNL     1      45.984   2.184   8.148  0.00  0.00    +0.000 A 
ATOM      4  N   UNL     1      45.091   1.789   9.099  0.00  0.00    +0.000 NA
ATOM      5  C   UNL     1      44.390   2.769   9.728  0.00  0.00    +0.000 A 
ATOM      6  C   UNL     1      44.524   4.132   9.476  0.00  0.00    +0.000 A 
ATOM      7  C   UNL     1      45.453   4.482   8.486  0.00  0.00    +0.000 A 
ATOM      8  C   UNL     1      46.173   3.517   7.763  0.00  0.00    +0.000 A 
BRANCH   8   9
ATOM      9  N   UNL     1      47.179   3.955   6.883  0.00  0.00    +0.000 N 
ATOM     10  H   UNL     1      47.241   4.964   6.776  0.00  0.00    +0.000 HD
ATOM     11  H   UNL     1      47.219   3.475   5.984  0.00  0.00    +0.000 HD
ENDBRANCH   8   9
BRANCH   3  13
ATOM     12  N   UNL     1      47.301   0.265   6.973  0.00  0.00    +0.000 NA
ATOM     13  C   UNL     1      46.721   1.112   7.524  0.00  0.00    +0.000 C 
ENDBRANCH   3  13
ENDBRANCH   1   6
BRANCH   1  14
ATOM     14  C   UNL     1      43.717   5.483  11.507  0.00  0.00    +0.000 C 
ATOM     15  C   UNL     1      42.645   4.888  12.400  0.00  0.00    +0.000 C 
ATOM     16  C   UNL     1      42.520   6.312  11.981  0.00  0.00    +0.000 C 
BRANCH  14  17
ATOM     17  C   UNL     1      45.047   5.974  12.091  0.00  0.00    +0.000 A 
ATOM     18  C   UNL     1      45.724   5.211  13.066  0.00  0.00    +0.000 A 
ATOM     19  C   UNL     1      47.011   5.544  13.501  0.00  0.00    +0.000 A 
ATOM     20  C   UNL     1      47.643   6.665  12.974  0.00  0.00    +0.000 A 
ATOM     21 CL   UNL     1      49.254   7.040  13.444  0.00  0.00    +0.000 Cl
ATOM     22  C   UNL     1      46.981   7.471  12.050  0.00  0.00    +0.000 A 
ATOM     23  C   UNL     1      45.691   7.131  11.623  0.00  0.00    +0.000 A 
ENDBRANCH  14  17
ENDBRANCH   1  14
TORSDOF 5
ENDMDL
MODEL 3
REMARK VINA RESULT:    -6.619      3.532      6.249
REMARK INTER + INTRA:          -9.011
REMARK INTER:                  -8.559
REMARK INTRA:                  -0.452
REMARK UNBOUND:                -0.650
REMARK  Name = 
REMARK  5 active torsions:
REMARK  status: ('A' for Active; 'I' for Inactive)
REMARK    1  A    between atoms: C_2  and  C_3
REMARK    2  A    between atoms: C_6  and  N_7
REMARK    3  A    between atoms: N_7  and  C_8
REMARK    4  A    between atoms: C_8  and  C_9
REMARK    5  A    between atoms: C_19  and  N_20
REMARK                            x       y       z     vdW  Elec       q    Type
REMARK                         _______ _______ _______ _____ _____    ______ ____
ROOT
ATOM      1  N   UNL     1      45.193   4.321  12.467  0.00  0.00    +0.000 N 
ATOM      2  H   UNL     1      44.995   3.461  12.964  0.00  0.00    +0.000 HD
ENDROOT
BRANCH   1   6
ATOM      3  C   UNL     1      48.414   6.575  13.876  0.00  0.00    +0.000 A 
ATOM      4  N   UNL     1      47.920   5.598  14.688  0.00  0.00    +0.000 NA
ATOM      5  C   UNL     1      46.861   4.886  14.220  0.00  0.00    +0.000 A 
ATOM      6  C   UNL     1      46.250   5.088  12.985  0.00  0.00    +0.000 A 
ATOM      7  C   UNL     1      46.799   6.102  12.189  0.00  0.00    +0.000 A 
ATOM      8  C   UNL     1      47.925   6.840  12.591  0.00  0.00    +0.000 A 
BRANCH   8   9
ATOM      9  N   UNL     1      48.332   7.925  11.794  0.00  0.00    +0.000 N 
ATOM     10  H   UNL     1      48.364   8.819  12.278  0.00  0.00    +0.000 HD
ATOM     11  H   UNL     1      47.876   8.002  10.886  0.00  0.00    +0.000 HD
ENDBRANCH   8   9
BRANCH   3  13
ATOM     12  N   UNL     1      50.427   7.937  14.817  0.00  0.00    +0.000 NA
ATOM     13  C   UNL     1      49.523   7.318  14.424  0.00  0.00    +0.000 C 
ENDBRANCH   3  13
ENDBRANCH   1   6
BRANCH   1  14
ATOM     14  C   UNL     1      44.406   4.612  11.260  0.00  0.00    +0.000 C 
ATOM     15  C   UNL     1      43.566   5.872  11.177  0.00  0.00    +0.000 C 
ATOM     16  C   UNL     1      42.882   4.568  11.407  0.00  0.00    +0.000 C 
BRANCH  14  17
ATOM     17  C   UNL     1      44.899   3.908   9.991  0.00  0.00    +0.000 A 
ATOM     18  C   UNL     1      45.466   4.653   8.935  0.00  0.00    +0.000 A 
ATOM     19  C   UNL     1      46.071   4.034   7.837  0.00  0.00    +0.000 A 
ATOM     20  C   UNL     1      46.109   2.646   7.768  0.00  0.00    +0.000 A 
ATOM     21 CL   UNL     1      46.919   1.874   6.462  0.00  0.00    +0.000 Cl
ATOM     22  C   UNL     1      45.510   1.880   8.767  0.00  0.00    +0.000 A 
ATOM     23  C   UNL     1      44.904   2.509   9.861  0.00  0.00    +0.000 A 
ENDBRANCH  14  17
ENDBRANCH   1  14
TORSDOF 5
ENDMDL
MODEL 4
REMARK VINA RESULT:    -6.588      3.318      6.333
REMARK INTER + INTRA:          -8.971
REMARK INTER:                  -9.332
REMARK INTRA:                   0.361
REMARK UNBOUND:                -0.650
REMARK  Name = 
REMARK  5 active torsions:
REMARK  status: ('A' for Active; 'I' for Inactive)
REMARK    1  A    between atoms: C_2  and  C_3
REMARK    2  A    between atoms: C_6  and  N_7
REMARK    3  A    between atoms: N_7  and  C_8
REMARK    4  A    between atoms: C_8  and  C_9
REMARK    5  A    between atoms: C_19  and  N_20
REMARK                            x       y       z     vdW  Elec       q    Type
REMARK                         _______ _______ _______ _____ _____    ______ ____
ROOT
ATOM      1  N   UNL     1      44.153   5.496  10.598  0.00  0.00    +0.000 N 
ATOM      2  H   UNL     1      43.326   5.885  10.159  0.00  0.00    +0.000 HD
ENDROOT
BRANCH   1   6
ATOM      3  C   UNL     1      46.629   8.379  12.329  0.00  0.00    +0.000 A 
ATOM      4  N   UNL     1      47.199   7.202  11.945  0.00  0.00    +0.000 NA
ATOM      5  C   UNL     1      46.374   6.269  11.399  0.00  0.00    +0.000 A 
ATOM      6  C   UNL     1      45.004   6.428  11.213  0.00  0.00    +0.000 A 
ATOM      7  C   UNL     1      44.470   7.658  11.622  0.00  0.00    +0.000 A 
ATOM      8  C   UNL     1      45.274   8.684  12.147  0.00  0.00    +0.000 A 
BRANCH   8   9
ATOM      9  N   UNL     1      44.643   9.834  12.654  0.00  0.00    +0.000 N 
ATOM     10  H   UNL     1      43.899   9.651  13.323  0.00  0.00    +0.000 HD
ATOM     11  H   UNL     1      44.369  10.529  11.961  0.00  0.00    +0.000 HD
ENDBRANCH   8   9
BRANCH   3  13
ATOM     12  N   UNL     1      48.294  10.101  13.356  0.00  0.00    +0.000 NA
ATOM     13  C   UNL     1      47.537   9.329  12.923  0.00  0.00    +0.000 C 
ENDBRANCH   3  13
ENDBRANCH   1   6
BRANCH   1  14
ATOM     14  C   UNL     1      44.313   4.034  10.583  0.00  0.00    +0.000 C 
ATOM     15  C   UNL     1      43.372   3.151  11.380  0.00  0.00    +0.000 C 
ATOM     16  C   UNL     1      44.751   3.378  11.896  0.00  0.00    +0.000 C 
BRANCH  14  17
ATOM     17  C   UNL     1      45.067   3.487   9.367  0.00  0.00    +0.000 A 
ATOM     18  C   UNL     1      45.655   4.369   8.435  0.00  0.00    +0.000 A 
ATOM     19  C   UNL     1      46.484   3.910   7.406  0.00  0.00    +0.000 A 
ATOM     20  C   UNL     1      46.731   2.547   7.282  0.00  0.00    +0.000 A 
ATOM     21 CL   UNL     1      47.810   1.979   6.069  0.00  0.00    +0.000 Cl
ATOM     22  C   UNL     1      46.122   1.645   8.151  0.00  0.00    +0.000 A 
ATOM     23  C   UNL     1      45.291   2.114   9.176  0.00  0.00    +0.000 A 
ENDBRANCH  14  17
ENDBRANCH   1  14
TORSDOF 5
ENDMDL
MODEL 5
REMARK VINA RESULT:    -6.167      4.101      6.683
REMARK INTER + INTRA:          -8.439
REMARK INTER:                  -8.017
REMARK INTRA:                  -0.423
REMARK UNBOUND:                -0.650
REMARK  Name = 
REMARK  5 active torsions:
REMARK  status: ('A' for Active; 'I' for Inactive)
REMARK    1  A    between atoms: C_2  and  C_3
REMARK    2  A    between atoms: C_6  and  N_7
REMARK    3  A    between atoms: N_7  and  C_8
REMARK    4  A    between atoms: C_8  and  C_9
REMARK    5  A    between atoms: C_19  and  N_20
REMARK                            x       y       z     vdW  Elec       q    Type
REMARK                         _______ _______ _______ _____ _____    ______ ____
ROOT
ATOM      1  N   UNL     1      45.684   3.952  13.425  0.00  0.00    +0.000 N 
ATOM      2  H   UNL     1      45.673   2.948  13.566  0.00  0.00    +0.000 HD
ENDROOT
BRANCH   1   6
ATOM      3  C   UNL     1      48.669   6.022  15.484  0.00  0.00    +0.000 A 
ATOM      4  N   UNL     1      48.390   6.414  14.209  0.00  0.00    +0.000 NA
ATOM      5  C   UNL     1      47.428   5.717  13.548  0.00  0.00    +0.000 A 
ATOM      6  C   UNL     1      46.720   4.641  14.076  0.00  0.00    +0.000 A 
ATOM      7  C   UNL     1      47.043   4.283  15.392  0.00  0.00    +0.000 A 
ATOM      8  C   UNL     1      47.991   4.992  16.148  0.00  0.00    +0.000 A 
BRANCH   8   9
ATOM      9  N   UNL     1      48.352   4.488  17.410  0.00  0.00    +0.000 N 
ATOM     10  H   UNL     1      47.826   3.670  17.708  0.00  0.00    +0.000 HD
ATOM     11  H   UNL     1      48.431   5.180  18.155  0.00  0.00    +0.000 HD
ENDBRANCH   8   9
BRANCH   3  13
ATOM     12  N   UNL     1      50.553   7.348  16.704  0.00  0.00    +0.000 NA
ATOM     13  C   UNL     1      49.712   6.775  16.137  0.00  0.00    +0.000 C 
ENDBRANCH   3  13
ENDBRANCH   1   6
BRANCH   1  14
ATOM     14  C   UNL     1      44.672   4.528  12.528  0.00  0.00    +0.000 C 
ATOM     15  C   UNL     1      43.855   5.730  12.964  0.00  0.00    +0.000 C 
ATOM     16  C   UNL     1      43.209   4.387  12.961  0.00  0.00    +0.000 C 
BRANCH  14  17
ATOM     17  C   UNL     1      44.883   4.215  11.043  0.00  0.00    +0.000 A 
ATOM     18  C   UNL     1      45.350   5.214  10.161  0.00  0.00    +0.000 A 
ATOM     19  C   UNL     1      45.707   4.925   8.841  0.00  0.00    +0.000 A 
ATOM     20  C   UNL     1      45.589   3.622   8.370  0.00  0.00    +0.000 A 
ATOM     21 CL   UNL     1      46.098   3.239   6.772  0.00  0.00    +0.000 Cl
ATOM     22  C   UNL     1      45.080   2.623   9.197  0.00  0.00    +0.000 A 
ATOM     23  C   UNL     1      44.722   2.923  10.517  0.00  0.00    +0.000 A 
ENDBRANCH  14  17
ENDBRANCH   1  14
TORSDOF 5
ENDMDL
MODEL 6
REMARK VINA RESULT:    -6.029      3.562      6.262
REMARK INTER + INTRA:          -8.266
REMARK INTER:                  -8.019
REMARK INTRA:                  -0.247
REMARK UNBOUND:                -0.650
REMARK  Name = 
REMARK  5 active torsions:
REMARK  status: ('A' for Active; 'I' for Inactive)
REMARK    1  A    between atoms: C_2  and  C_3
REMARK    2  A    between atoms: C_6  and  N_7
REMARK    3  A    between atoms: N_7  and  C_8
REMARK    4  A    between atoms: C_8  and  C_9
REMARK    5  A    between atoms: C_19  and  N_20
REMARK                            x       y       z     vdW  Elec       q    Type
REMARK                         _______ _______ _______ _____ _____    ______ ____
ROOT
ATOM      1  N   UNL     1      45.236   4.895  12.332  0.00  0.00    +0.000 N 
ATOM      2  H   UNL     1      45.364   4.168  13.027  0.00  0.00    +0.000 HD
ENDROOT
BRANCH   1   6
ATOM      3  C   UNL     1      47.472   8.335  13.112  0.00  0.00    +0.000 A 
ATOM      4  N   UNL     1      46.115   8.456  13.074  0.00  0.00    +0.000 NA
ATOM      5  C   UNL     1      45.405   7.329  12.802  0.00  0.00    +0.000 A 
ATOM      6  C   UNL     1      45.961   6.077  12.556  0.00  0.00    +0.000 A 
ATOM      7  C   UNL     1      47.360   6.008  12.611  0.00  0.00    +0.000 A 
ATOM      8  C   UNL     1      48.151   7.122  12.936  0.00  0.00    +0.000 A 
BRANCH   8   9
ATOM      9  N   UNL     1      49.549   7.001  12.840  0.00  0.00    +0.000 N 
ATOM     10  H   UNL     1      49.881   6.064  12.624  0.00  0.00    +0.000 HD
ATOM     11  H   UNL     1      50.082   7.428  13.596  0.00  0.00    +0.000 HD
ENDBRANCH   8   9
BRANCH   3  13
ATOM     12  N   UNL     1      48.790  10.522  13.634  0.00  0.00    +0.000 NA
ATOM     13  C   UNL     1      48.185   9.560  13.381  0.00  0.00    +0.000 C 
ENDBRANCH   3  13
ENDBRANCH   1   6
BRANCH   1  14
ATOM     14  C   UNL     1      44.376   4.596  11.178  0.00  0.00    +0.000 C 
ATOM     15  C   UNL     1      43.031   5.281  11.026  0.00  0.00    +0.000 C 
ATOM     16  C   UNL     1      43.066   3.859  11.470  0.00  0.00    +0.000 C 
BRANCH  14  17
ATOM     17  C   UNL     1      45.116   4.031   9.961  0.00  0.00    +0.000 A 
ATOM     18  C   UNL     1      45.152   2.639   9.730  0.00  0.00    +0.000 A 
ATOM     19  C   UNL     1      45.676   2.101   8.550  0.00  0.00    +0.000 A 
ATOM     20  C   UNL     1      46.191   2.952   7.578  0.00  0.00    +0.000 A 
ATOM     21 CL   UNL     1      46.767   2.306   6.092  0.00  0.00    +0.000 Cl
ATOM     22  C   UNL     1      46.221   4.327   7.799  0.00  0.00    +0.000 A 
ATOM     23  C   UNL     1      45.697   4.856   8.984  0.00  0.00    +0.000 A 
ENDBRANCH  14  17
ENDBRANCH   1  14
TORSDOF 5
ENDMDL
MODEL 7
REMARK VINA RESULT:    -5.193      4.445      6.628
REMARK INTER + INTRA:          -7.210
REMARK INTER:                  -6.928
REMARK INTRA:                  -0.282
REMARK UNBOUND:                -0.650
REMARK  Name = 
REMARK  5 active torsions:
REMARK  status: ('A' for Active; 'I' for Inactive)
REMARK    1  A    between atoms: C_2  and  C_3
REMARK    2  A    between atoms: C_6  and  N_7
REMARK    3  A    between atoms: N_7  and  C_8
REMARK    4  A    between atoms: C_8  and  C_9
REMARK    5  A    between atoms: C_19  and  N_20
REMARK                            x       y       z     vdW  Elec       q    Type
REMARK                         _______ _______ _______ _____ _____    ______ ____
ROOT
ATOM      1  N   UNL     1      47.858   5.175  15.565  0.00  0.00    +0.000 N 
ATOM      2  H   UNL     1      48.382   6.032  15.429  0.00  0.00    +0.000 HD
ENDROOT
BRANCH   1   6
ATOM      3  C   UNL     1      45.412   4.049  12.373  0.00  0.00    +0.000 A 
ATOM      4  N   UNL     1      46.067   3.063  13.048  0.00  0.00    +0.000 NA
ATOM      5  C   UNL     1      46.872   3.450  14.073  0.00  0.00    +0.000 A 
ATOM      6  C   UNL     1      47.076   4.768  14.472  0.00  0.00    +0.000 A 
ATOM      7  C   UNL     1      46.375   5.741  13.747  0.00  0.00    +0.000 A 
ATOM      8  C   UNL     1      45.489   5.406  12.710  0.00  0.00    +0.000 A 
BRANCH   8   9
ATOM      9  N   UNL     1      44.928   6.446  11.947  0.00  0.00    +0.000 N 
ATOM     10  H   UNL     1      44.609   6.170  11.021  0.00  0.00    +0.000 HD
ATOM     11  H   UNL     1      45.464   7.313  11.921  0.00  0.00    +0.000 HD
ENDBRANCH   8   9
BRANCH   3  13
ATOM     12  N   UNL     1      43.884   3.213  10.434  0.00  0.00    +0.000 NA
ATOM     13  C   UNL     1      44.588   3.593  11.281  0.00  0.00    +0.000 C 
ENDBRANCH   3  13
ENDBRANCH   1   6
BRANCH   1  14
ATOM     14  C   UNL     1      48.033   4.459  16.837  0.00  0.00    +0.000 C 
ATOM     15  C   UNL     1      46.830   3.901  17.575  0.00  0.00    +0.000 C 
ATOM     16  C   UNL     1      47.478   5.140  18.091  0.00  0.00    +0.000 C 
BRANCH  14  17
ATOM     17  C   UNL     1      49.432   3.872  17.051  0.00  0.00    +0.000 A 
ATOM     18  C   UNL     1      50.520   4.715  17.364  0.00  0.00    +0.000 A 
ATOM     19  C   UNL     1      51.771   4.202  17.723  0.00  0.00    +0.000 A 
ATOM     20  C   UNL     1      51.960   2.825  17.763  0.00  0.00    +0.000 A 
ATOM     21 CL   UNL     1      53.471   2.183  18.279  0.00  0.00    +0.000 Cl
ATOM     22  C   UNL     1      50.923   1.966  17.407  0.00  0.00    +0.000 A 
ATOM     23  C   UNL     1      49.675   2.489  17.046  0.00  0.00    +0.000 A 
ENDBRANCH  14  17
ENDBRANCH   1  14
TORSDOF 5
ENDMDL
MODEL 8
REMARK VINA RESULT:    -5.128      2.948      5.307
REMARK INTER + INTRA:          -7.128
REMARK INTER:                  -6.547
REMARK INTRA:                  -0.580
REMARK UNBOUND:                -0.650
REMARK  Name = 
REMARK  5 active torsions:
REMARK  status: ('A' for Active; 'I' for Inactive)
REMARK    1  A    between atoms: C_2  and  C_3
REMARK    2  A    between atoms: C_6  and  N_7
REMARK    3  A    between atoms: N_7  and  C_8
REMARK    4  A    between atoms: C_8  and  C_9
REMARK    5  A    between atoms: C_19  and  N_20
REMARK                            x       y       z     vdW  Elec       q    Type
REMARK                         _______ _______ _______ _____ _____    ______ ____
ROOT
ATOM      1  N   UNL     1      46.749   7.426  13.616  0.00  0.00    +0.000 N 
ATOM      2  H   UNL     1      46.097   8.141  13.918  0.00  0.00    +0.000 HD
ENDROOT
BRANCH   1   6
ATOM      3  C   UNL     1      44.989   4.370  11.379  0.00  0.00    +0.000 A 
ATOM      4  N   UNL     1      44.958   4.261  12.737  0.00  0.00    +0.000 NA
ATOM      5  C   UNL     1      45.551   5.256  13.448  0.00  0.00    +0.000 A 
ATOM      6  C   UNL     1      46.185   6.363  12.892  0.00  0.00    +0.000 A 
ATOM      7  C   UNL     1      46.185   6.428  11.492  0.00  0.00    +0.000 A 
ATOM      8  C   UNL     1      45.547   5.460  10.699  0.00  0.00    +0.000 A 
BRANCH   8   9
ATOM      9  N   UNL     1      45.707   5.528   9.303  0.00  0.00    +0.000 N 
ATOM     10  H   UNL     1      46.410   6.192   8.987  0.00  0.00    +0.000 HD
ATOM     11  H   UNL     1      44.846   5.601   8.763  0.00  0.00    +0.000 HD
ENDBRANCH   8   9
BRANCH   3  13
ATOM     12  N   UNL     1      43.913   2.374  10.094  0.00  0.00    +0.000 NA
ATOM     13  C   UNL     1      44.368   3.280  10.666  0.00  0.00    +0.000 C 
ENDBRANCH   3  13
ENDBRANCH   1   6
BRANCH   1  14
ATOM     14  C   UNL     1      48.174   7.626  13.918  0.00  0.00    +0.000 C 
ATOM     15  C   UNL     1      48.875   6.743  14.933  0.00  0.00    +0.000 C 
ATOM     16  C   UNL     1      48.514   8.136  15.321  0.00  0.00    +0.000 C 
BRANCH  14  17
ATOM     17  C   UNL     1      48.964   8.345  12.819  0.00  0.00    +0.000 A 
ATOM     18  C   UNL     1      48.545   9.607  12.347  0.00  0.00    +0.000 A 
ATOM     19  C   UNL     1      49.326  10.362  11.466  0.00  0.00    +0.000 A 
ATOM     20  C   UNL     1      50.544   9.856  11.025  0.00  0.00    +0.000 A 
ATOM     21 CL   UNL     1      51.547  10.808  10.003  0.00  0.00    +0.000 Cl
ATOM     22  C   UNL     1      50.961   8.589  11.428  0.00  0.00    +0.000 A 
ATOM     23  C   UNL     1      50.171   7.840  12.308  0.00  0.00    +0.000 A 
ENDBRANCH  14  17
ENDBRANCH   1  14
TORSDOF 5
ENDMDL
MODEL 9
REMARK VINA RESULT:    -5.091      4.302      7.088
REMARK INTER + INTRA:          -7.081
REMARK INTER:                  -7.137
REMARK INTRA:                   0.056
REMARK UNBOUND:                -0.650
REMARK  Name = 
REMARK  5 active torsions:
REMARK  status: ('A' for Active; 'I' for Inactive)
REMARK    1  A    between atoms: C_2  and  C_3
REMARK    2  A    between atoms: C_6  and  N_7
REMARK    3  A    between atoms: N_7  and  C_8
REMARK    4  A    between atoms: C_8  and  C_9
REMARK    5  A    between atoms: C_19  and  N_20
REMARK                            x       y       z     vdW  Elec       q    Type
REMARK                         _______ _______ _______ _____ _____    ______ ____
ROOT
ATOM      1  N   UNL     1      47.564   6.411  12.526  0.00  0.00    +0.000 N 
ATOM      2  H   UNL     1      48.364   6.499  11.910  0.00  0.00    +0.000 HD
ENDROOT
BRANCH   1   6
ATOM      3  C   UNL     1      48.307   5.554  16.545  0.00  0.00    +0.000 A 
ATOM      4  N   UNL     1      48.851   6.692  16.028  0.00  0.00    +0.000 NA
ATOM      5  C   UNL     1      48.613   6.945  14.714  0.00  0.00    +0.000 A 
ATOM      6  C   UNL     1      47.865   6.130  13.869  0.00  0.00    +0.000 A 
ATOM      7  C   UNL     1      47.326   4.976  14.452  0.00  0.00    +0.000 A 
ATOM      8  C   UNL     1      47.491   4.680  15.815  0.00  0.00    +0.000 A 
BRANCH   8   9
ATOM      9  N   UNL     1      47.032   3.439  16.291  0.00  0.00    +0.000 N 
ATOM     10  H   UNL     1      46.082   3.448  16.655  0.00  0.00    +0.000 HD
ATOM     11  H   UNL     1      47.670   2.940  16.910  0.00  0.00    +0.000 HD
ENDBRANCH   8   9
BRANCH   3  13
ATOM     12  N   UNL     1      48.872   5.079  19.045  0.00  0.00    +0.000 NA
ATOM     13  C   UNL     1      48.605   5.316  17.936  0.00  0.00    +0.000 C 
ENDBRANCH   3  13
ENDBRANCH   1   6
BRANCH   1  14
ATOM     14  C   UNL     1      46.230   6.644  11.954  0.00  0.00    +0.000 C 
ATOM     15  C   UNL     1      45.752   8.056  11.673  0.00  0.00    +0.000 C 
ATOM     16  C   UNL     1      45.206   7.337  12.859  0.00  0.00    +0.000 C 
BRANCH  14  17
ATOM     17  C   UNL     1      45.640   5.447  11.200  0.00  0.00    +0.000 A 
ATOM     18  C   UNL     1      45.649   5.417   9.789  0.00  0.00    +0.000 A 
ATOM     19  C   UNL     1      45.270   4.277   9.073  0.00  0.00    +0.000 A 
ATOM     20  C   UNL     1      44.857   3.142   9.762  0.00  0.00    +0.000 A 
ATOM     21 CL   UNL     1      44.463   1.710   8.894  0.00  0.00    +0.000 Cl
ATOM     22  C   UNL     1      44.784   3.156  11.153  0.00  0.00    +0.000 A 
ATOM     23  C   UNL     1      45.164   4.303  11.861  0.00  0.00    +0.000 A 
ENDBRANCH  14  17
ENDBRANCH   1  14
TORSDOF 5
ENDMDL
