MODEL 1
REMARK VINA RESULT:    -7.446      0.000      0.000
REMARK INTER + INTRA:         -11.719
REMARK INTER:                 -10.492
REMARK INTRA:                  -1.227
REMARK UNBOUND:                -1.227
REMARK  Name = 
REMARK  8 active torsions:
REMARK  status: ('A' for Active; 'I' for Inactive)
REMARK    1  A    between atoms: C_1  and  O_2
REMARK    2  A    between atoms: O_2  and  C_3
REMARK    3  A    between atoms: C_8  and  C_9
REMARK    4  A    between atoms: N_11  and  C_12
REMARK    5  A    between atoms: C_12  and  C_13
REMARK    6  A    between atoms: C_16  and  C_17
REMARK    7  A    between atoms: C_17  and  N_18
REMARK    8  A    between atoms: C_19  and  C_21
REMARK                            x       y       z     vdW  Elec       q    Type
REMARK                         _______ _______ _______ _____ _____    ______ ____
ROOT
ATOM      1  C   UNL     1      50.406   7.460  15.206  0.00  0.00    +0.000 A 
ATOM      2  C   UNL     1      50.776   8.119  14.026  0.00  0.00    +0.000 A 
ATOM      3  C   UNL     1      49.859   8.279  12.980  0.00  0.00    +0.000 A 
ATOM      4  C   UNL     1      48.547   7.803  13.102  0.00  0.00    +0.000 A 
ATOM      5  C   UNL     1      48.172   7.164  14.292  0.00  0.00    +0.000 A 
ATOM      6  C   UNL     1      49.087   7.006  15.337  0.00  0.00    +0.000 A 
ENDROOT
BRANCH   1   7
ATOM      7  C   UNL     1      51.397   7.265  16.324  0.00  0.00    +0.000 C 
BRANCH   7  10
ATOM      8  C   UNL     1      51.151   5.122  17.524  0.00  0.00    +0.000 C 
ATOM      9  O   UNL     1      50.388   5.608  18.358  0.00  0.00    +0.000 OA
ATOM     10  N   UNL     1      51.704   5.870  16.514  0.00  0.00    +0.000 N 
ATOM     11  H   UNL     1      52.325   5.422  15.846  0.00  0.00    +0.000 HD
BRANCH   8  17
ATOM     12  C   UNL     1      50.636   2.638  17.169  0.00  0.00    +0.000 A 
ATOM     13  N   UNL     1      50.951   1.320  17.267  0.00  0.00    +0.000 NA
ATOM     14  C   UNL     1      52.154   1.006  17.790  0.00  0.00    +0.000 A 
ATOM     15  C   UNL     1      53.073   1.948  18.212  0.00  0.00    +0.000 A 
ATOM     16  C   UNL     1      52.732   3.295  18.102  0.00  0.00    +0.000 A 
ATOM     17  C   UNL     1      51.485   3.668  17.579  0.00  0.00    +0.000 A 
BRANCH  12  19
ATOM     18  C   UNL     1      48.327   2.845  17.553  0.00  0.00    +0.000 C 
ATOM     19  O   UNL     1      49.406   2.961  16.630  0.00  0.00    +0.000 OA
ENDBRANCH  12  19
ENDBRANCH   8  17
ENDBRANCH   7  10
ENDBRANCH   1   7
BRANCH   4  20
ATOM     20  C   UNL     1      47.572   7.905  11.957  0.00  0.00    +0.000 C 
BRANCH  20  21
ATOM     21  N   UNL     1      46.869   6.659  11.777  0.00  0.00    +0.000 N 
ATOM     22  C   UNL     1      45.500   6.604  11.716  0.00  0.00    +0.000 C 
ATOM     23  O   UNL     1      44.803   7.613  11.772  0.00  0.00    +0.000 OA
ATOM     24  H   UNL     1      47.391   5.811  11.970  0.00  0.00    +0.000 HD
BRANCH  22  25
ATOM     25  C   UNL     1      44.914   5.273  11.507  0.00  0.00    +0.000 A 
ATOM     26  C   UNL     1      44.185   4.672  12.525  0.00  0.00    +0.000 A 
ATOM     27  S   UNL     1      43.511   3.167  12.087  0.00  0.00    +0.000 S 
ATOM     28  C   UNL     1      44.216   3.238  10.541  0.00  0.00    +0.000 A 
ATOM     29  N   UNL     1      44.043   2.228   9.645  0.00  0.00    +0.000 NA
ATOM     30  C   UNL     1      44.662   2.397   8.524  0.00  0.00    +0.000 A 
ATOM     31  N   UNL     1      45.436   3.486   8.217  0.00  0.00    +0.000 N 
ATOM     32  C   UNL     1      45.619   4.540   9.080  0.00  0.00    +0.000 A 
ATOM     33  O   UNL     1      46.291   5.514   8.761  0.00  0.00    +0.000 OA
ATOM     34  C   UNL     1      44.947   4.397  10.358  0.00  0.00    +0.000 A 
ATOM     35  H   UNL     1      45.893   3.560   7.321  0.00  0.00    +0.000 HD
ENDBRANCH  22  25
ENDBRANCH  20  21
ENDBRANCH   4  20
TORSDOF 7
ENDMDL
MODEL 2
REMARK VINA RESULT:    -7.382      3.186      9.118
REMARK INTER + INTRA:         -11.630
REMARK INTER:                 -10.828
REMARK INTRA:                  -0.802
REMARK UNBOUND:                -1.227
REMARK  Name = 
REMARK  8 active torsions:
REMARK  status: ('A' for Active; 'I' for Inactive)
REMARK    1  A    between atoms: C_1  and  O_2
REMARK    2  A    between atoms: O_2  and  C_3
REMARK    3  A    between atoms: C_8  and  C_9
REMARK    4  A    between atoms: N_11  and  C_12
REMARK    5  A    between atoms: C_12  and  C_13
REMARK    6  A    between atoms: C_16  and  C_17
REMARK    7  A    between atoms: C_17  and  N_18
REMARK    8  A    between atoms: C_19  and  C_21
REMARK                            x       y       z     vdW  Elec       q    Type
REMARK                         _______ _______ _______ _____ _____    ______ ____
ROOT
ATOM      1  C   UNL     1      45.134   4.328  11.511  0.00  0.00    +0.000 A 
ATOM      2  C   UNL     1      45.328   4.320  12.899  0.00  0.00    +0.000 A 
ATOM      3  C   UNL     1      45.856   5.440  13.552  0.00  0.00    +0.000 A 
ATOM      4  C   UNL     1      46.181   6.598  12.833  0.00  0.00    +0.000 A 
ATOM      5  C   UNL     1      45.964   6.612  11.448  0.00  0.00    +0.000 A 
ATOM      6  C   UNL     1      45.435   5.494  10.796  0.00  0.00    +0.000 A 
ENDROOT
BRANCH   1   7
ATOM      7  C   UNL     1      44.588   3.115  10.801  0.00  0.00    +0.000 C 
BRANCH   7  10
ATOM      8  C   UNL     1      45.193   3.189   8.409  0.00  0.00    +0.000 C 
ATOM      9  O   UNL     1      44.235   3.906   8.127  0.00  0.00    +0.000 OA
ATOM     10  N   UNL     1      45.422   2.742   9.687  0.00  0.00    +0.000 N 
ATOM     11  H   UNL     1      46.231   2.154   9.872  0.00  0.00    +0.000 HD
BRANCH   8  17
ATOM     12  C   UNL     1      46.769   1.541   7.243  0.00  0.00    +0.000 A 
ATOM     13  N   UNL     1      47.681   1.223   6.287  0.00  0.00    +0.000 NA
ATOM     14  C   UNL     1      48.011   2.182   5.398  0.00  0.00    +0.000 A 
ATOM     15  C   UNL     1      47.462   3.450   5.405  0.00  0.00    +0.000 A 
ATOM     16  C   UNL     1      46.527   3.758   6.391  0.00  0.00    +0.000 A 
ATOM     17  C   UNL     1      46.166   2.796   7.347  0.00  0.00    +0.000 A 
BRANCH  12  19
ATOM     18  C   UNL     1      46.592  -0.766   7.652  0.00  0.00    +0.000 C 
ATOM     19  O   UNL     1      46.428   0.558   8.151  0.00  0.00    +0.000 OA
ENDBRANCH  12  19
ENDBRANCH   8  17
ENDBRANCH   7  10
ENDBRANCH   1   7
BRANCH   4  20
ATOM     20  C   UNL     1      46.817   7.784  13.513  0.00  0.00    +0.000 C 
BRANCH  20  21
ATOM     21  N   UNL     1      47.494   7.375  14.718  0.00  0.00    +0.000 N 
ATOM     22  C   UNL     1      48.746   6.815  14.688  0.00  0.00    +0.000 C 
ATOM     23  O   UNL     1      49.370   6.667  13.642  0.00  0.00    +0.000 OA
ATOM     24  H   UNL     1      46.920   7.262  15.546  0.00  0.00    +0.000 HD
BRANCH  22  25
ATOM     25  C   UNL     1      49.330   6.465  15.990  0.00  0.00    +0.000 A 
ATOM     26  C   UNL     1      50.470   7.122  16.434  0.00  0.00    +0.000 A 
ATOM     27  S   UNL     1      50.969   6.650  17.996  0.00  0.00    +0.000 S 
ATOM     28  C   UNL     1      49.713   5.510  18.112  0.00  0.00    +0.000 A 
ATOM     29  N   UNL     1      49.574   4.730  19.219  0.00  0.00    +0.000 NA
ATOM     30  C   UNL     1      48.600   3.884  19.158  0.00  0.00    +0.000 A 
ATOM     31  N   UNL     1      47.749   3.750  18.092  0.00  0.00    +0.000 N 
ATOM     32  C   UNL     1      47.836   4.531  16.963  0.00  0.00    +0.000 A 
ATOM     33  O   UNL     1      47.038   4.407  16.041  0.00  0.00    +0.000 OA
ATOM     34  C   UNL     1      48.919   5.496  16.980  0.00  0.00    +0.000 A 
ATOM     35  H   UNL     1      47.004   3.070  18.106  0.00  0.00    +0.000 HD
ENDBRANCH  22  25
ENDBRANCH  20  21
ENDBRANCH   4  20
TORSDOF 7
ENDMDL
MODEL 3
REMARK VINA RESULT:    -7.228      3.410      5.329
REMARK INTER + INTRA:         -11.413
REMARK INTER:                 -10.648
REMARK INTRA:                  -0.764
REMARK UNBOUND:                -1.227
REMARK  Name = 
REMARK  8 active torsions:
REMARK  status: ('A' for Active; 'I' for Inactive)
REMARK    1  A    between atoms: C_1  and  O_2
REMARK    2  A    between atoms: O_2  and  C_3
REMARK    3  A    between atoms: C_8  and  C_9
REMARK    4  A    between atoms: N_11  and  C_12
REMARK    5  A    between atoms: C_12  and  C_13
REMARK    6  A    between atoms: C_16  and  C_17
REMARK    7  A    between atoms: C_17  and  N_18
REMARK    8  A    between atoms: C_19  and  C_21
REMARK                            x       y       z     vdW  Elec       q    Type
REMARK                         _______ _______ _______ _____ _____    ______ ____
ROOT
ATOM      1  C   UNL     1      51.410   3.157  17.684  0.00  0.00    +0.000 A 
ATOM      2  C   UNL     1      50.710   2.070  17.144  0.00  0.00    +0.000 A 
ATOM      3  C   UNL     1      49.334   2.155  16.900  0.00  0.00    +0.000 A 
ATOM      4  C   UNL     1      48.634   3.339  17.170  0.00  0.00    +0.000 A 
ATOM      5  C   UNL     1      49.340   4.434  17.688  0.00  0.00    +0.000 A 
ATOM      6  C   UNL     1      50.714   4.348  17.930  0.00  0.00    +0.000 A 
ENDROOT
BRANCH   1   7
ATOM      7  C   UNL     1      52.886   3.060  17.970  0.00  0.00    +0.000 C 
BRANCH   7  10
ATOM      8  C   UNL     1      54.092   0.943  18.365  0.00  0.00    +0.000 C 
ATOM      9  O   UNL     1      54.315   1.219  19.542  0.00  0.00    +0.000 OA
ATOM     10  N   UNL     1      53.422   1.797  17.525  0.00  0.00    +0.000 N 
ATOM     11  H   UNL     1      53.259   1.522  16.560  0.00  0.00    +0.000 HD
BRANCH   8  17
ATOM     12  C   UNL     1      54.423  -1.595  18.471  0.00  0.00    +0.000 A 
ATOM     13  N   UNL     1      54.874  -2.770  17.960  0.00  0.00    +0.000 NA
ATOM     14  C   UNL     1      55.462  -2.735  16.746  0.00  0.00    +0.000 A 
ATOM     15  C   UNL     1      55.613  -1.580  16.004  0.00  0.00    +0.000 A 
ATOM     16  C   UNL     1      55.143  -0.384  16.545  0.00  0.00    +0.000 A 
ATOM     17  C   UNL     1      54.539  -0.371  17.812  0.00  0.00    +0.000 A 
BRANCH  12  19
ATOM     18  C   UNL     1      54.423  -2.547  20.620  0.00  0.00    +0.000 C 
ATOM     19  O   UNL     1      53.817  -1.631  19.712  0.00  0.00    +0.000 OA
ENDBRANCH  12  19
ENDBRANCH   8  17
ENDBRANCH   7  10
ENDBRANCH   1   7
BRANCH   4  20
ATOM     20  C   UNL     1      47.141   3.422  16.979  0.00  0.00    +0.000 C 
BRANCH  20  21
ATOM     21  N   UNL     1      46.811   4.406  15.979  0.00  0.00    +0.000 N 
ATOM     22  C   UNL     1      46.931   4.142  14.639  0.00  0.00    +0.000 C 
ATOM     23  O   UNL     1      47.287   3.045  14.218  0.00  0.00    +0.000 OA
ATOM     24  H   UNL     1      46.753   5.369  16.292  0.00  0.00    +0.000 HD
BRANCH  22  25
ATOM     25  C   UNL     1      46.539   5.226  13.727  0.00  0.00    +0.000 A 
ATOM     26  C   UNL     1      47.415   6.276  13.486  0.00  0.00    +0.000 A 
ATOM     27  S   UNL     1      46.834   7.404  12.346  0.00  0.00    +0.000 S 
ATOM     28  C   UNL     1      45.367   6.561  12.176  0.00  0.00    +0.000 A 
ATOM     29  N   UNL     1      44.391   7.014  11.343  0.00  0.00    +0.000 NA
ATOM     30  C   UNL     1      43.318   6.295  11.338  0.00  0.00    +0.000 A 
ATOM     31  N   UNL     1      43.133   5.163  12.089  0.00  0.00    +0.000 N 
ATOM     32  C   UNL     1      44.098   4.656  12.926  0.00  0.00    +0.000 A 
ATOM     33  O   UNL     1      43.913   3.623  13.558  0.00  0.00    +0.000 OA
ATOM     34  C   UNL     1      45.325   5.430  12.971  0.00  0.00    +0.000 A 
ATOM     35  H   UNL     1      42.270   4.644  12.039  0.00  0.00    +0.000 HD
ENDBRANCH  22  25
ENDBRANCH  20  21
ENDBRANCH   4  20
TORSDOF 7
ENDMDL
MODEL 4
REMARK VINA RESULT:    -6.853      1.968      3.241
REMARK INTER + INTRA:         -10.883
REMARK INTER:                  -9.523
REMARK INTRA:                  -1.360
REMARK UNBOUND:                -1.227
REMARK  Name = 
REMARK  8 active torsions:
REMARK  status: ('A' for Active; 'I' for Inactive)
REMARK    1  A    between atoms: C_1  and  O_2
REMARK    2  A    between atoms: O_2  and  C_3
REMARK    3  A    between atoms: C_8  and  C_9
REMARK    4  A    between atoms: N_11  and  C_12
REMARK    5  A    between atoms: C_12  and  C_13
REMARK    6  A    between atoms: C_16  and  C_17
REMARK    7  A    between atoms: C_17  and  N_18
REMARK    8  A    between atoms: C_19  and  C_21
REMARK                            x       y       z     vdW  Elec       q    Type
REMARK                         _______ _______ _______ _____ _____    ______ ____
ROOT
ATOM      1  C   UNL     1      48.897   4.764  17.343  0.00  0.00    +0.000 A 
ATOM      2  C   UNL     1      49.624   5.905  16.978  0.00  0.00    +0.000 A 
ATOM      3  C   UNL     1      49.314   6.605  15.806  0.00  0.00    +0.000 A 
ATOM      4  C   UNL     1      48.256   6.190  14.986  0.00  0.00    +0.000 A 
ATOM      5  C   UNL     1      47.515   5.062  15.365  0.00  0.00    +0.000 A 
ATOM      6  C   UNL     1      47.824   4.364  16.536  0.00  0.00    +0.000 A 
ENDROOT
BRANCH   1   7
ATOM      7  C   UNL     1      49.244   3.995  18.592  0.00  0.00    +0.000 C 
BRANCH   7  10
ATOM      8  C   UNL     1      50.970   2.454  17.733  0.00  0.00    +0.000 C 
ATOM      9  O   UNL     1      50.165   1.847  17.029  0.00  0.00    +0.000 OA
ATOM     10  N   UNL     1      50.596   3.498  18.541  0.00  0.00    +0.000 N 
ATOM     11  H   UNL     1      51.300   3.972  19.102  0.00  0.00    +0.000 HD
BRANCH   8  17
ATOM     12  C   UNL     1      53.477   2.977  17.678  0.00  0.00    +0.000 A 
ATOM     13  N   UNL     1      54.781   2.601  17.617  0.00  0.00    +0.000 NA
ATOM     14  C   UNL     1      55.047   1.279  17.586  0.00  0.00    +0.000 A 
ATOM     15  C   UNL     1      54.070   0.303  17.626  0.00  0.00    +0.000 A 
ATOM     16  C   UNL     1      52.737   0.707  17.690  0.00  0.00    +0.000 A 
ATOM     17  C   UNL     1      52.414   2.073  17.708  0.00  0.00    +0.000 A 
BRANCH  12  19
ATOM     18  C   UNL     1      54.316   5.129  18.113  0.00  0.00    +0.000 C 
ATOM     19  O   UNL     1      53.205   4.331  17.715  0.00  0.00    +0.000 OA
ENDBRANCH  12  19
ENDBRANCH   8  17
ENDBRANCH   7  10
ENDBRANCH   1   7
BRANCH   4  20
ATOM     20  C   UNL     1      47.957   6.891  13.685  0.00  0.00    +0.000 C 
BRANCH  20  21
ATOM     21  N   UNL     1      47.236   6.019  12.793  0.00  0.00    +0.000 N 
ATOM     22  C   UNL     1      46.312   6.500  11.902  0.00  0.00    +0.000 C 
ATOM     23  O   UNL     1      46.077   7.700  11.788  0.00  0.00    +0.000 OA
ATOM     24  H   UNL     1      47.230   5.032  13.029  0.00  0.00    +0.000 HD
BRANCH  22  25
ATOM     25  C   UNL     1      45.666   5.504  11.036  0.00  0.00    +0.000 A 
ATOM     26  C   UNL     1      45.768   5.620   9.655  0.00  0.00    +0.000 A 
ATOM     27  S   UNL     1      45.029   4.339   8.804  0.00  0.00    +0.000 S 
ATOM     28  C   UNL     1      44.497   3.614  10.247  0.00  0.00    +0.000 A 
ATOM     29  N   UNL     1      43.769   2.464  10.227  0.00  0.00    +0.000 NA
ATOM     30  C   UNL     1      43.403   2.043  11.392  0.00  0.00    +0.000 A 
ATOM     31  N   UNL     1      43.701   2.667  12.576  0.00  0.00    +0.000 N 
ATOM     32  C   UNL     1      44.452   3.816  12.647  0.00  0.00    +0.000 A 
ATOM     33  O   UNL     1      44.728   4.330  13.725  0.00  0.00    +0.000 OA
ATOM     34  C   UNL     1      44.886   4.333  11.363  0.00  0.00    +0.000 A 
ATOM     35  H   UNL     1      43.386   2.286  13.455  0.00  0.00    +0.000 HD
ENDBRANCH  22  25
ENDBRANCH  20  21
ENDBRANCH   4  20
TORSDOF 7
ENDMDL
MODEL 5
REMARK VINA RESULT:    -6.786      2.666      8.803
REMARK INTER + INTRA:         -10.789
REMARK INTER:                  -9.602
REMARK INTRA:                  -1.188
REMARK UNBOUND:                -1.227
REMARK  Name = 
REMARK  8 active torsions:
REMARK  status: ('A' for Active; 'I' for Inactive)
REMARK    1  A    between atoms: C_1  and  O_2
REMARK    2  A    between atoms: O_2  and  C_3
REMARK    3  A    between atoms: C_8  and  C_9
REMARK    4  A    between atoms: N_11  and  C_12
REMARK    5  A    between atoms: C_12  and  C_13
REMARK    6  A    between atoms: C_16  and  C_17
REMARK    7  A    between atoms: C_17  and  N_18
REMARK    8  A    between atoms: C_19  and  C_21
REMARK                            x       y       z     vdW  Elec       q    Type
REMARK                         _______ _______ _______ _____ _____    ______ ____
ROOT
ATOM      1  C   UNL     1      48.121   7.727  13.403  0.00  0.00    +0.000 A 
ATOM      2  C   UNL     1      48.185   6.498  14.074  0.00  0.00    +0.000 A 
ATOM      3  C   UNL     1      48.518   6.443  15.432  0.00  0.00    +0.000 A 
ATOM      4  C   UNL     1      48.771   7.617  16.153  0.00  0.00    +0.000 A 
ATOM      5  C   UNL     1      48.684   8.847  15.486  0.00  0.00    +0.000 A 
ATOM      6  C   UNL     1      48.350   8.902  14.130  0.00  0.00    +0.000 A 
ENDROOT
BRANCH   1   7
ATOM      7  C   UNL     1      47.787   7.788  11.935  0.00  0.00    +0.000 C 
BRANCH   7  10
ATOM      8  C   UNL     1      45.808   6.495  11.223  0.00  0.00    +0.000 C 
ATOM      9  O   UNL     1      45.051   7.451  11.382  0.00  0.00    +0.000 OA
ATOM     10  N   UNL     1      47.152   6.572  11.492  0.00  0.00    +0.000 N 
ATOM     11  H   UNL     1      47.738   5.755  11.340  0.00  0.00    +0.000 HD
BRANCH   8  17
ATOM     12  C   UNL     1      44.627   4.235  11.472  0.00  0.00    +0.000 A 
ATOM     13  N   UNL     1      44.185   3.050  10.977  0.00  0.00    +0.000 NA
ATOM     14  C   UNL     1      44.390   2.810   9.665  0.00  0.00    +0.000 A 
ATOM     15  C   UNL     1      45.006   3.704   8.812  0.00  0.00    +0.000 A 
ATOM     16  C   UNL     1      45.451   4.916   9.338  0.00  0.00    +0.000 A 
ATOM     17  C   UNL     1      45.274   5.202  10.700  0.00  0.00    +0.000 A 
BRANCH  12  19
ATOM     18  C   UNL     1      43.067   4.828  13.127  0.00  0.00    +0.000 C 
ATOM     19  O   UNL     1      44.414   4.485  12.814  0.00  0.00    +0.000 OA
ENDBRANCH  12  19
ENDBRANCH   8  17
ENDBRANCH   7  10
ENDBRANCH   1   7
BRANCH   4  20
ATOM     20  C   UNL     1      49.200   7.567  17.598  0.00  0.00    +0.000 C 
BRANCH  20  21
ATOM     21  N   UNL     1      50.238   6.584  17.785  0.00  0.00    +0.000 N 
ATOM     22  C   UNL     1      50.180   5.654  18.791  0.00  0.00    +0.000 C 
ATOM     23  O   UNL     1      49.226   5.584  19.561  0.00  0.00    +0.000 OA
ATOM     24  H   UNL     1      51.126   6.770  17.331  0.00  0.00    +0.000 HD
BRANCH  22  25
ATOM     25  C   UNL     1      51.292   4.696  18.852  0.00  0.00    +0.000 A 
ATOM     26  C   UNL     1      52.438   5.014  19.570  0.00  0.00    +0.000 A 
ATOM     27  S   UNL     1      53.595   3.761  19.603  0.00  0.00    +0.000 S 
ATOM     28  C   UNL     1      52.631   2.770  18.612  0.00  0.00    +0.000 A 
ATOM     29  N   UNL     1      53.055   1.533  18.234  0.00  0.00    +0.000 NA
ATOM     30  C   UNL     1      52.239   0.905  17.454  0.00  0.00    +0.000 A 
ATOM     31  N   UNL     1      51.037   1.400  17.020  0.00  0.00    +0.000 N 
ATOM     32  C   UNL     1      50.558   2.633  17.394  0.00  0.00    +0.000 A 
ATOM     33  O   UNL     1      49.463   3.032  17.014  0.00  0.00    +0.000 OA
ATOM     34  C   UNL     1      51.440   3.383  18.269  0.00  0.00    +0.000 A 
ATOM     35  H   UNL     1      50.443   0.858  16.411  0.00  0.00    +0.000 HD
ENDBRANCH  22  25
ENDBRANCH  20  21
ENDBRANCH   4  20
TORSDOF 7
ENDMDL
MODEL 6
REMARK VINA RESULT:    -6.737      5.033      6.600
REMARK INTER + INTRA:         -10.720
REMARK INTER:                  -9.376
REMARK INTRA:                  -1.344
REMARK UNBOUND:                -1.227
REMARK  Name = 
REMARK  8 active torsions:
REMARK  status: ('A' for Active; 'I' for Inactive)
REMARK    1  A    between atoms: C_1  and  O_2
REMARK    2  A    between atoms: O_2  and  C_3
REMARK    3  A    between atoms: C_8  and  C_9
REMARK    4  A    between atoms: N_11  and  C_12
REMARK    5  A    between atoms: C_12  and  C_13
REMARK    6  A    between atoms: C_16  and  C_17
REMARK    7  A    between atoms: C_17  and  N_18
REMARK    8  A    between atoms: C_19  and  C_21
REMARK                            x       y       z     vdW  Elec       q    Type
REMARK                         _______ _______ _______ _____ _____    ______ ____
ROOT
ATOM      1  C   UNL     1      50.714   8.753  11.312  0.00  0.00    +0.000 A 
ATOM      2  C   UNL     1      49.919   9.885  11.536  0.00  0.00    +0.000 A 
ATOM      3  C   UNL     1      48.556   9.755  11.823  0.00  0.00    +0.000 A 
ATOM      4  C   UNL     1      47.963   8.488  11.913  0.00  0.00    +0.000 A 
ATOM      5  C   UNL     1      48.765   7.356  11.712  0.00  0.00    +0.000 A 
ATOM      6  C   UNL     1      50.127   7.486  11.427  0.00  0.00    +0.000 A 
ENDROOT
BRANCH   1   7
ATOM      7  C   UNL     1      52.178   8.891  10.980  0.00  0.00    +0.000 C 
BRANCH   7  10
ATOM      8  C   UNL     1      53.520   7.266   9.696  0.00  0.00    +0.000 C 
ATOM      9  O   UNL     1      54.241   7.009  10.659  0.00  0.00    +0.000 OA
ATOM     10  N   UNL     1      52.507   8.189   9.765  0.00  0.00    +0.000 N 
ATOM     11  H   UNL     1      51.935   8.363   8.942  0.00  0.00    +0.000 HD
BRANCH   8  17
ATOM     12  C   UNL     1      53.679   7.144   7.142  0.00  0.00    +0.000 A 
ATOM     13  N   UNL     1      53.828   6.457   5.979  0.00  0.00    +0.000 NA
ATOM     14  C   UNL     1      54.029   5.126   6.065  0.00  0.00    +0.000 A 
ATOM     15  C   UNL     1      54.104   4.441   7.262  0.00  0.00    +0.000 A 
ATOM     16  C   UNL     1      53.950   5.162   8.445  0.00  0.00    +0.000 A 
ATOM     17  C   UNL     1      53.722   6.546   8.403  0.00  0.00    +0.000 A 
BRANCH  12  19
ATOM     18  C   UNL     1      52.574   8.889   6.022  0.00  0.00    +0.000 C 
ATOM     19  O   UNL     1      53.477   8.508   7.056  0.00  0.00    +0.000 OA
ENDBRANCH  12  19
ENDBRANCH   8  17
ENDBRANCH   7  10
ENDBRANCH   1   7
BRANCH   4  20
ATOM     20  C   UNL     1      46.482   8.336  12.150  0.00  0.00    +0.000 C 
BRANCH  20  21
ATOM     21  N   UNL     1      46.070   6.973  11.924  0.00  0.00    +0.000 N 
ATOM     22  C   UNL     1      44.786   6.657  11.562  0.00  0.00    +0.000 C 
ATOM     23  O   UNL     1      43.930   7.516  11.373  0.00  0.00    +0.000 OA
ATOM     24  H   UNL     1      46.672   6.249  12.301  0.00  0.00    +0.000 HD
BRANCH  22  25
ATOM     25  C   UNL     1      44.508   5.231  11.340  0.00  0.00    +0.000 A 
ATOM     26  C   UNL     1      43.786   4.514  12.285  0.00  0.00    +0.000 A 
ATOM     27  S   UNL     1      43.487   2.896  11.834  0.00  0.00    +0.000 S 
ATOM     28  C   UNL     1      44.360   3.079  10.387  0.00  0.00    +0.000 A 
ATOM     29  N   UNL     1      44.510   2.039   9.522  0.00  0.00    +0.000 NA
ATOM     30  C   UNL     1      45.224   2.310   8.480  0.00  0.00    +0.000 A 
ATOM     31  N   UNL     1      45.800   3.527   8.223  0.00  0.00    +0.000 N 
ATOM     32  C   UNL     1      45.656   4.612   9.055  0.00  0.00    +0.000 A 
ATOM     33  O   UNL     1      46.157   5.696   8.779  0.00  0.00    +0.000 OA
ATOM     34  C   UNL     1      44.864   4.359  10.244  0.00  0.00    +0.000 A 
ATOM     35  H   UNL     1      46.347   3.675   7.389  0.00  0.00    +0.000 HD
ENDBRANCH  22  25
ENDBRANCH  20  21
ENDBRANCH   4  20
TORSDOF 7
ENDMDL
MODEL 7
REMARK VINA RESULT:    -6.650      4.995      8.890
REMARK INTER + INTRA:         -10.597
REMARK INTER:                  -9.333
REMARK INTRA:                  -1.264
REMARK UNBOUND:                -1.227
REMARK  Name = 
REMARK  8 active torsions:
REMARK  status: ('A' for Active; 'I' for Inactive)
REMARK    1  A    between atoms: C_1  and  O_2
REMARK    2  A    between atoms: O_2  and  C_3
REMARK    3  A    between atoms: C_8  and  C_9
REMARK    4  A    between atoms: N_11  and  C_12
REMARK    5  A    between atoms: C_12  and  C_13
REMARK    6  A    between atoms: C_16  and  C_17
REMARK    7  A    between atoms: C_17  and  N_18
REMARK    8  A    between atoms: C_19  and  C_21
REMARK                            x       y       z     vdW  Elec       q    Type
REMARK                         _______ _______ _______ _____ _____    ______ ____
ROOT
ATOM      1  C   UNL     1      45.052   4.354  11.493  0.00  0.00    +0.000 A 
ATOM      2  C   UNL     1      44.556   5.509  10.874  0.00  0.00    +0.000 A 
ATOM      3  C   UNL     1      44.840   6.777  11.395  0.00  0.00    +0.000 A 
ATOM      4  C   UNL     1      45.643   6.916  12.535  0.00  0.00    +0.000 A 
ATOM      5  C   UNL     1      46.157   5.760  13.140  0.00  0.00    +0.000 A 
ATOM      6  C   UNL     1      45.875   4.495  12.617  0.00  0.00    +0.000 A 
ENDROOT
BRANCH   1   7
ATOM      7  C   UNL     1      44.728   2.987  10.947  0.00  0.00    +0.000 C 
BRANCH   7  10
ATOM      8  C   UNL     1      45.222   3.043   8.530  0.00  0.00    +0.000 C 
ATOM      9  O   UNL     1      44.178   3.637   8.268  0.00  0.00    +0.000 OA
ATOM     10  N   UNL     1      45.553   2.670   9.809  0.00  0.00    +0.000 N 
ATOM     11  H   UNL     1      46.431   2.184   9.975  0.00  0.00    +0.000 HD
BRANCH   8  17
ATOM     12  C   UNL     1      46.859   1.507   7.295  0.00  0.00    +0.000 A 
ATOM     13  N   UNL     1      47.764   1.258   6.313  0.00  0.00    +0.000 NA
ATOM     14  C   UNL     1      48.017   2.250   5.435  0.00  0.00    +0.000 A 
ATOM     15  C   UNL     1      47.399   3.485   5.478  0.00  0.00    +0.000 A 
ATOM     16  C   UNL     1      46.473   3.722   6.492  0.00  0.00    +0.000 A 
ATOM     17  C   UNL     1      46.189   2.724   7.438  0.00  0.00    +0.000 A 
BRANCH  12  19
ATOM     18  C   UNL     1      46.477  -0.793   7.585  0.00  0.00    +0.000 C 
ATOM     19  O   UNL     1      46.595   0.490   8.192  0.00  0.00    +0.000 OA
ENDBRANCH  12  19
ENDBRANCH   8  17
ENDBRANCH   7  10
ENDBRANCH   1   7
BRANCH   4  20
ATOM     20  C   UNL     1      45.897   8.270  13.148  0.00  0.00    +0.000 C 
BRANCH  20  21
ATOM     21  N   UNL     1      47.249   8.699  12.887  0.00  0.00    +0.000 N 
ATOM     22  C   UNL     1      48.102   9.055  13.900  0.00  0.00    +0.000 C 
ATOM     23  O   UNL     1      47.776   8.993  15.081  0.00  0.00    +0.000 OA
ATOM     24  H   UNL     1      47.458   8.987  11.937  0.00  0.00    +0.000 HD
BRANCH  22  25
ATOM     25  C   UNL     1      49.458   9.450  13.495  0.00  0.00    +0.000 A 
ATOM     26  C   UNL     1      50.040  10.586  14.044  0.00  0.00    +0.000 A 
ATOM     27  S   UNL     1      51.642  10.854  13.525  0.00  0.00    +0.000 S 
ATOM     28  C   UNL     1      51.598   9.494  12.504  0.00  0.00    +0.000 A 
ATOM     29  N   UNL     1      52.671   9.158  11.738  0.00  0.00    +0.000 NA
ATOM     30  C   UNL     1      52.487   8.124  10.986  0.00  0.00    +0.000 A 
ATOM     31  N   UNL     1      51.328   7.395  10.932  0.00  0.00    +0.000 N 
ATOM     32  C   UNL     1      50.227   7.683  11.704  0.00  0.00    +0.000 A 
ATOM     33  O   UNL     1      49.217   6.990  11.656  0.00  0.00    +0.000 OA
ATOM     34  C   UNL     1      50.381   8.840  12.566  0.00  0.00    +0.000 A 
ATOM     35  H   UNL     1      51.247   6.594  10.323  0.00  0.00    +0.000 HD
ENDBRANCH  22  25
ENDBRANCH  20  21
ENDBRANCH   4  20
TORSDOF 7
ENDMDL
MODEL 8
REMARK VINA RESULT:    -6.521      4.735      6.153
REMARK INTER + INTRA:         -10.416
REMARK INTER:                  -9.146
REMARK INTRA:                  -1.269
REMARK UNBOUND:                -1.227
REMARK  Name = 
REMARK  8 active torsions:
REMARK  status: ('A' for Active; 'I' for Inactive)
REMARK    1  A    between atoms: C_1  and  O_2
REMARK    2  A    between atoms: O_2  and  C_3
REMARK    3  A    between atoms: C_8  and  C_9
REMARK    4  A    between atoms: N_11  and  C_12
REMARK    5  A    between atoms: C_12  and  C_13
REMARK    6  A    between atoms: C_16  and  C_17
REMARK    7  A    between atoms: C_17  and  N_18
REMARK    8  A    between atoms: C_19  and  C_21
REMARK                            x       y       z     vdW  Elec       q    Type
REMARK                         _______ _______ _______ _____ _____    ______ ____
ROOT
ATOM      1  C   UNL     1      50.403   8.657  11.975  0.00  0.00    +0.000 A 
ATOM      2  C   UNL     1      49.677   9.689  12.585  0.00  0.00    +0.000 A 
ATOM      3  C   UNL     1      48.335   9.505  12.940  0.00  0.00    +0.000 A 
ATOM      4  C   UNL     1      47.699   8.278  12.712  0.00  0.00    +0.000 A 
ATOM      5  C   UNL     1      48.433   7.239  12.123  0.00  0.00    +0.000 A 
ATOM      6  C   UNL     1      49.773   7.422  11.771  0.00  0.00    +0.000 A 
ENDROOT
BRANCH   1   7
ATOM      7  C   UNL     1      51.840   8.859  11.571  0.00  0.00    +0.000 C 
BRANCH   7  10
ATOM      8  C   UNL     1      53.027   8.308   9.478  0.00  0.00    +0.000 C 
ATOM      9  O   UNL     1      53.436   9.459   9.335  0.00  0.00    +0.000 OA
ATOM     10  N   UNL     1      52.225   7.940  10.530  0.00  0.00    +0.000 N 
ATOM     11  H   UNL     1      51.917   6.974  10.607  0.00  0.00    +0.000 HD
BRANCH   8  17
ATOM     12  C   UNL     1      53.706   5.925   8.827  0.00  0.00    +0.000 A 
ATOM     13  N   UNL     1      54.100   4.994   7.919  0.00  0.00    +0.000 NA
ATOM     14  C   UNL     1      54.216   5.389   6.634  0.00  0.00    +0.000 A 
ATOM     15  C   UNL     1      53.944   6.673   6.202  0.00  0.00    +0.000 A 
ATOM     16  C   UNL     1      53.540   7.614   7.148  0.00  0.00    +0.000 A 
ATOM     17  C   UNL     1      53.421   7.252   8.498  0.00  0.00    +0.000 A 
BRANCH  12  19
ATOM     18  C   UNL     1      54.793   5.021  10.704  0.00  0.00    +0.000 C 
ATOM     19  O   UNL     1      53.583   5.521  10.142  0.00  0.00    +0.000 OA
ENDBRANCH  12  19
ENDBRANCH   8  17
ENDBRANCH   7  10
ENDBRANCH   1   7
BRANCH   4  20
ATOM     20  C   UNL     1      46.235   8.090  13.023  0.00  0.00    +0.000 C 
BRANCH  20  21
ATOM     21  N   UNL     1      45.806   6.763  12.658  0.00  0.00    +0.000 N 
ATOM     22  C   UNL     1      44.774   6.553  11.780  0.00  0.00    +0.000 C 
ATOM     23  O   UNL     1      44.185   7.480  11.230  0.00  0.00    +0.000 OA
ATOM     24  H   UNL     1      46.102   6.007  13.266  0.00  0.00    +0.000 HD
BRANCH  22  25
ATOM     25  C   UNL     1      44.455   5.151  11.477  0.00  0.00    +0.000 A 
ATOM     26  C   UNL     1      43.713   4.401  12.380  0.00  0.00    +0.000 A 
ATOM     27  S   UNL     1      43.368   2.821  11.838  0.00  0.00    +0.000 S 
ATOM     28  C   UNL     1      44.246   3.063  10.402  0.00  0.00    +0.000 A 
ATOM     29  N   UNL     1      44.367   2.070   9.478  0.00  0.00    +0.000 NA
ATOM     30  C   UNL     1      45.088   2.380   8.453  0.00  0.00    +0.000 A 
ATOM     31  N   UNL     1      45.698   3.593   8.265  0.00  0.00    +0.000 N 
ATOM     32  C   UNL     1      45.585   4.632   9.159  0.00  0.00    +0.000 A 
ATOM     33  O   UNL     1      46.117   5.716   8.945  0.00  0.00    +0.000 OA
ATOM     34  C   UNL     1      44.786   4.334  10.332  0.00  0.00    +0.000 A 
ATOM     35  H   UNL     1      46.249   3.774   7.440  0.00  0.00    +0.000 HD
ENDBRANCH  22  25
ENDBRANCH  20  21
ENDBRANCH   4  20
TORSDOF 7
ENDMDL
MODEL 9
REMARK VINA RESULT:    -6.350      3.471      6.135
REMARK INTER + INTRA:         -10.175
REMARK INTER:                  -8.986
REMARK INTRA:                  -1.189
REMARK UNBOUND:                -1.227
REMARK  Name = 
REMARK  8 active torsions:
REMARK  status: ('A' for Active; 'I' for Inactive)
REMARK    1  A    between atoms: C_1  and  O_2
REMARK    2  A    between atoms: O_2  and  C_3
REMARK    3  A    between atoms: C_8  and  C_9
REMARK    4  A    between atoms: N_11  and  C_12
REMARK    5  A    between atoms: C_12  and  C_13
REMARK    6  A    between atoms: C_16  and  C_17
REMARK    7  A    between atoms: C_17  and  N_18
REMARK    8  A    between atoms: C_19  and  C_21
REMARK                            x       y       z     vdW  Elec       q    Type
REMARK                         _______ _______ _______ _____ _____    ______ ____
ROOT
ATOM      1  C   UNL     1      51.475   2.597  17.739  0.00  0.00    +0.000 A 
ATOM      2  C   UNL     1      50.621   1.753  17.016  0.00  0.00    +0.000 A 
ATOM      3  C   UNL     1      49.299   2.131  16.753  0.00  0.00    +0.000 A 
ATOM      4  C   UNL     1      48.811   3.370  17.189  0.00  0.00    +0.000 A 
ATOM      5  C   UNL     1      49.673   4.223  17.892  0.00  0.00    +0.000 A 
ATOM      6  C   UNL     1      50.994   3.846  18.153  0.00  0.00    +0.000 A 
ENDROOT
BRANCH   1   7
ATOM      7  C   UNL     1      52.892   2.183  18.044  0.00  0.00    +0.000 C 
BRANCH   7  10
ATOM      8  C   UNL     1      54.107   0.114  18.623  0.00  0.00    +0.000 C 
ATOM      9  O   UNL     1      55.055   0.733  19.102  0.00  0.00    +0.000 OA
ATOM     10  N   UNL     1      53.024   0.748  18.066  0.00  0.00    +0.000 N 
ATOM     11  H   UNL     1      52.262   0.192  17.686  0.00  0.00    +0.000 HD
BRANCH   8  17
ATOM     12  C   UNL     1      54.886  -2.198  17.841  0.00  0.00    +0.000 A 
ATOM     13  N   UNL     1      54.832  -3.555  17.864  0.00  0.00    +0.000 NA
ATOM     14  C   UNL     1      53.967  -4.127  18.726  0.00  0.00    +0.000 A 
ATOM     15  C   UNL     1      53.156  -3.410  19.584  0.00  0.00    +0.000 A 
ATOM     16  C   UNL     1      53.227  -2.019  19.547  0.00  0.00    +0.000 A 
ATOM     17  C   UNL     1      54.101  -1.379  18.654  0.00  0.00    +0.000 A 
BRANCH  12  19
ATOM     18  C   UNL     1      55.457  -1.833  15.590  0.00  0.00    +0.000 C 
ATOM     19  O   UNL     1      55.775  -1.610  16.961  0.00  0.00    +0.000 OA
ENDBRANCH  12  19
ENDBRANCH   8  17
ENDBRANCH   7  10
ENDBRANCH   1   7
BRANCH   4  20
ATOM     20  C   UNL     1      47.369   3.758  16.976  0.00  0.00    +0.000 C 
BRANCH  20  21
ATOM     21  N   UNL     1      47.258   4.731  15.918  0.00  0.00    +0.000 N 
ATOM     22  C   UNL     1      47.172   4.361  14.601  0.00  0.00    +0.000 C 
ATOM     23  O   UNL     1      47.146   3.184  14.254  0.00  0.00    +0.000 OA
ATOM     24  H   UNL     1      47.517   5.685  16.150  0.00  0.00    +0.000 HD
BRANCH  22  25
ATOM     25  C   UNL     1      47.039   5.454  13.628  0.00  0.00    +0.000 A 
ATOM     26  C   UNL     1      46.017   5.421  12.687  0.00  0.00    +0.000 A 
ATOM     27  S   UNL     1      45.961   6.803  11.688  0.00  0.00    +0.000 S 
ATOM     28  C   UNL     1      47.334   7.469  12.439  0.00  0.00    +0.000 A 
ATOM     29  N   UNL     1      47.841   8.666  12.036  0.00  0.00    +0.000 NA
ATOM     30  C   UNL     1      48.904   9.036  12.669  0.00  0.00    +0.000 A 
ATOM     31  N   UNL     1      49.506   8.318  13.670  0.00  0.00    +0.000 N 
ATOM     32  C   UNL     1      49.017   7.116  14.125  0.00  0.00    +0.000 A 
ATOM     33  O   UNL     1      49.560   6.516  15.045  0.00  0.00    +0.000 OA
ATOM     34  C   UNL     1      47.823   6.654  13.443  0.00  0.00    +0.000 A 
ATOM     35  H   UNL     1      50.336   8.662  14.127  0.00  0.00    +0.000 HD
ENDBRANCH  22  25
ENDBRANCH  20  21
ENDBRANCH   4  20
TORSDOF 7
ENDMDL
