MODEL 1
REMARK VINA RESULT:    -8.140      0.000      0.000
REMARK INTER + INTRA:         -12.525
REMARK INTER:                 -11.471
REMARK INTRA:                  -1.054
REMARK UNBOUND:                -1.054
REMARK  Name = 
REMARK  7 active torsions:
REMARK  status: ('A' for Active; 'I' for Inactive)
REMARK    1  A    between atoms: C_2  and  C_19
REMARK    2  A    between atoms: N_3  and  C_4
REMARK    3  A    between atoms: C_4  and  C_5
REMARK    4  A    between atoms: C_8  and  C_9
REMARK    5  A    between atoms: C_9  and  N_10
REMARK    6  A    between atoms: N_10  and  C_11
REMARK    7  A    between atoms: C_11  and  C_12
REMARK                            x       y       z     vdW  Elec       q    Type
REMARK                         _______ _______ _______ _____ _____    ______ ____
ROOT
ATOM      1  C   UNL     1      46.618   7.827  13.163  0.00  0.00    +0.000 C 
ENDROOT
BRANCH   1   2
ATOM      2  C   UNL     1      45.966   6.723  12.367  0.00  0.00    +0.000 A 
ATOM      3  C   UNL     1      46.297   6.540  11.030  0.00  0.00    +0.000 A 
ATOM      4  C   UNL     1      45.678   5.521  10.315  0.00  0.00    +0.000 A 
ATOM      5  C   UNL     1      44.736   4.703  10.944  0.00  0.00    +0.000 A 
ATOM      6  C   UNL     1      44.450   4.974  12.277  0.00  0.00    +0.000 A 
ATOM      7  N   UNL     1      45.034   5.959  13.000  0.00  0.00    +0.000 NA
BRANCH   5   8
ATOM      8  C   UNL     1      44.065   3.575  10.209  0.00  0.00    +0.000 C 
BRANCH   8   9
ATOM      9  N   UNL     1      44.977   2.438  10.088  0.00  0.00    +0.000 NA
ATOM     10  H   UNL     1      44.789   1.796  10.859  0.00  0.00    +0.000 HD
BRANCH   9  11
ATOM     11  C   UNL     1      44.772   1.720   8.833  0.00  0.00    +0.000 C 
BRANCH  11  12
ATOM     12  C   UNL     1      46.023   1.767   8.039  0.00  0.00    +0.000 A 
ATOM     13  C   UNL     1      46.893   0.789   7.609  0.00  0.00    +0.000 A 
ATOM     14  N   UNL     1      47.931   1.335   6.897  0.00  0.00    +0.000 NA
ATOM     15  C   UNL     1      47.701   2.627   6.882  0.00  0.00    +0.000 A 
ATOM     16  N   UNL     1      46.552   2.936   7.546  0.00  0.00    +0.000 N 
ATOM     17  H   UNL     1      46.161   3.857   7.697  0.00  0.00    +0.000 HD
ENDBRANCH  11  12
ENDBRANCH   9  11
ENDBRANCH   8   9
ENDBRANCH   5   8
ENDBRANCH   1   2
BRANCH   1  20
ATOM     18  O   UNL     1      49.167   6.626  13.403  0.00  0.00    +0.000 OA
ATOM     19  C   UNL     1      48.459   6.733  14.401  0.00  0.00    +0.000 C 
ATOM     20  N   UNL     1      47.231   7.332  14.371  0.00  0.00    +0.000 N 
ATOM     21  H   UNL     1      46.668   7.393  15.210  0.00  0.00    +0.000 HD
BRANCH  19  22
ATOM     22  C   UNL     1      48.905   6.267  15.717  0.00  0.00    +0.000 A 
ATOM     23  C   UNL     1      49.928   6.924  16.385  0.00  0.00    +0.000 A 
ATOM     24  S   UNL     1      50.271   6.261  17.921  0.00  0.00    +0.000 S 
ATOM     25  C   UNL     1      49.092   5.049  17.724  0.00  0.00    +0.000 A 
ATOM     26  N   UNL     1      48.866   4.123  18.696  0.00  0.00    +0.000 NA
ATOM     27  C   UNL     1      47.964   3.249  18.400  0.00  0.00    +0.000 A 
ATOM     28  N   UNL     1      47.271   3.209  17.219  0.00  0.00    +0.000 N 
ATOM     29  C   UNL     1      47.450   4.131  16.216  0.00  0.00    +0.000 A 
ATOM     30  O   UNL     1      46.783   4.084  15.188  0.00  0.00    +0.000 OA
ATOM     31  C   UNL     1      48.448   5.146  16.504  0.00  0.00    +0.000 A 
ATOM     32  H   UNL     1      46.572   2.502  17.049  0.00  0.00    +0.000 HD
ENDBRANCH  19  22
ENDBRANCH   1  20
TORSDOF 7
ENDMDL
MODEL 2
REMARK VINA RESULT:    -7.388      2.067      3.592
REMARK INTER + INTRA:         -11.465
REMARK INTER:                 -10.436
REMARK INTRA:                  -1.029
REMARK UNBOUND:                -1.054
REMARK  Name = 
REMARK  7 active torsions:
REMARK  status: ('A' for Active; 'I' for Inactive)
REMARK    1  A    between atoms: C_2  and  C_19
REMARK    2  A    between atoms: N_3  and  C_4
REMARK    3  A    between atoms: C_4  and  C_5
REMARK    4  A    between atoms: C_8  and  C_9
REMARK    5  A    between atoms: C_9  and  N_10
REMARK    6  A    between atoms: N_10  and  C_11
REMARK    7  A    between atoms: C_11  and  C_12
REMARK                            x       y       z     vdW  Elec       q    Type
REMARK                         _______ _______ _______ _____ _____    ______ ____
ROOT
ATOM      1  C   UNL     1      46.806   4.377  14.681  0.00  0.00    +0.000 C 
ENDROOT
BRANCH   1   2
ATOM      2  C   UNL     1      46.048   4.425  13.377  0.00  0.00    +0.000 A 
ATOM      3  C   UNL     1      45.848   5.639  12.732  0.00  0.00    +0.000 A 
ATOM      4  C   UNL     1      45.140   5.659  11.535  0.00  0.00    +0.000 A 
ATOM      5  C   UNL     1      44.640   4.468  11.002  0.00  0.00    +0.000 A 
ATOM      6  C   UNL     1      44.869   3.304  11.727  0.00  0.00    +0.000 A 
ATOM      7  N   UNL     1      45.553   3.252  12.895  0.00  0.00    +0.000 NA
BRANCH   5   8
ATOM      8  C   UNL     1      43.893   4.448   9.697  0.00  0.00    +0.000 C 
BRANCH   8   9
ATOM      9  N   UNL     1      44.459   3.436   8.806  0.00  0.00    +0.000 NA
ATOM     10  H   UNL     1      43.752   3.196   8.109  0.00  0.00    +0.000 HD
BRANCH   9  11
ATOM     11  C   UNL     1      45.638   3.939   8.107  0.00  0.00    +0.000 C 
BRANCH  11  12
ATOM     12  C   UNL     1      46.448   2.791   7.637  0.00  0.00    +0.000 A 
ATOM     13  C   UNL     1      47.502   2.689   6.755  0.00  0.00    +0.000 A 
ATOM     14  N   UNL     1      47.922   1.389   6.640  0.00  0.00    +0.000 NA
ATOM     15  C   UNL     1      47.144   0.699   7.442  0.00  0.00    +0.000 A 
ATOM     16  N   UNL     1      46.248   1.504   8.079  0.00  0.00    +0.000 N 
ATOM     17  H   UNL     1      45.528   1.222   8.732  0.00  0.00    +0.000 HD
ENDBRANCH  11  12
ENDBRANCH   9  11
ENDBRANCH   8   9
ENDBRANCH   5   8
ENDBRANCH   1   2
BRANCH   1  20
ATOM     18  O   UNL     1      48.951   4.758  16.485  0.00  0.00    +0.000 OA
ATOM     19  C   UNL     1      48.517   5.721  15.857  0.00  0.00    +0.000 C 
ATOM     20  N   UNL     1      47.508   5.609  14.943  0.00  0.00    +0.000 N 
ATOM     21  H   UNL     1      47.166   6.426  14.451  0.00  0.00    +0.000 HD
BRANCH  19  22
ATOM     22  C   UNL     1      49.092   7.061  16.006  0.00  0.00    +0.000 A 
ATOM     23  C   UNL     1      49.122   7.678  17.249  0.00  0.00    +0.000 A 
ATOM     24  S   UNL     1      49.869   9.213  17.226  0.00  0.00    +0.000 S 
ATOM     25  C   UNL     1      50.139   9.120  15.548  0.00  0.00    +0.000 A 
ATOM     26  N   UNL     1      50.755  10.132  14.878  0.00  0.00    +0.000 NA
ATOM     27  C   UNL     1      50.868   9.939  13.607  0.00  0.00    +0.000 A 
ATOM     28  N   UNL     1      50.416   8.830  12.941  0.00  0.00    +0.000 N 
ATOM     29  C   UNL     1      49.804   7.775  13.576  0.00  0.00    +0.000 A 
ATOM     30  O   UNL     1      49.447   6.783  12.950  0.00  0.00    +0.000 OA
ATOM     31  C   UNL     1      49.663   7.937  15.011  0.00  0.00    +0.000 A 
ATOM     32  H   UNL     1      50.539   8.734  11.945  0.00  0.00    +0.000 HD
ENDBRANCH  19  22
ENDBRANCH   1  20
TORSDOF 7
ENDMDL
MODEL 3
REMARK VINA RESULT:    -7.323      2.171      3.384
REMARK INTER + INTRA:         -11.374
REMARK INTER:                 -10.419
REMARK INTRA:                  -0.955
REMARK UNBOUND:                -1.054
REMARK  Name = 
REMARK  7 active torsions:
REMARK  status: ('A' for Active; 'I' for Inactive)
REMARK    1  A    between atoms: C_2  and  C_19
REMARK    2  A    between atoms: N_3  and  C_4
REMARK    3  A    between atoms: C_4  and  C_5
REMARK    4  A    between atoms: C_8  and  C_9
REMARK    5  A    between atoms: C_9  and  N_10
REMARK    6  A    between atoms: N_10  and  C_11
REMARK    7  A    between atoms: C_11  and  C_12
REMARK                            x       y       z     vdW  Elec       q    Type
REMARK                         _______ _______ _______ _____ _____    ______ ____
ROOT
ATOM      1  C   UNL     1      47.198   3.979  15.032  0.00  0.00    +0.000 C 
ENDROOT
BRANCH   1   2
ATOM      2  C   UNL     1      46.533   4.305  13.717  0.00  0.00    +0.000 A 
ATOM      3  C   UNL     1      46.588   5.597  13.210  0.00  0.00    +0.000 A 
ATOM      4  C   UNL     1      45.961   5.876  12.001  0.00  0.00    +0.000 A 
ATOM      5  C   UNL     1      45.287   4.861  11.317  0.00  0.00    +0.000 A 
ATOM      6  C   UNL     1      45.264   3.604  11.910  0.00  0.00    +0.000 A 
ATOM      7  N   UNL     1      45.863   3.302  13.086  0.00  0.00    +0.000 NA
BRANCH   5   8
ATOM      8  C   UNL     1      44.620   5.119   9.994  0.00  0.00    +0.000 C 
BRANCH   8   9
ATOM      9  N   UNL     1      45.520   4.764   8.897  0.00  0.00    +0.000 NA
ATOM     10  H   UNL     1      46.435   4.545   9.294  0.00  0.00    +0.000 HD
BRANCH   9  11
ATOM     11  C   UNL     1      45.042   3.591   8.172  0.00  0.00    +0.000 C 
BRANCH  11  12
ATOM     12  C   UNL     1      46.206   2.842   7.643  0.00  0.00    +0.000 A 
ATOM     13  C   UNL     1      46.596   1.524   7.749  0.00  0.00    +0.000 A 
ATOM     14  N   UNL     1      47.773   1.305   7.080  0.00  0.00    +0.000 NA
ATOM     15  C   UNL     1      48.102   2.467   6.565  0.00  0.00    +0.000 A 
ATOM     16  N   UNL     1      47.179   3.423   6.864  0.00  0.00    +0.000 N 
ATOM     17  H   UNL     1      47.204   4.401   6.606  0.00  0.00    +0.000 HD
ENDBRANCH  11  12
ENDBRANCH   9  11
ENDBRANCH   8   9
ENDBRANCH   5   8
ENDBRANCH   1   2
BRANCH   1  20
ATOM     18  O   UNL     1      49.393   4.454  16.751  0.00  0.00    +0.000 OA
ATOM     19  C   UNL     1      48.510   5.302  16.658  0.00  0.00    +0.000 C 
ATOM     20  N   UNL     1      47.437   5.160  15.823  0.00  0.00    +0.000 N 
ATOM     21  H   UNL     1      46.721   5.875  15.780  0.00  0.00    +0.000 HD
BRANCH  19  22
ATOM     22  C   UNL     1      48.570   6.563  17.403  0.00  0.00    +0.000 A 
ATOM     23  C   UNL     1      48.418   6.572  18.783  0.00  0.00    +0.000 A 
ATOM     24  S   UNL     1      48.565   8.127  19.471  0.00  0.00    +0.000 S 
ATOM     25  C   UNL     1      48.794   8.844  17.945  0.00  0.00    +0.000 A 
ATOM     26  N   UNL     1      48.983  10.186  17.820  0.00  0.00    +0.000 NA
ATOM     27  C   UNL     1      49.116  10.595  16.603  0.00  0.00    +0.000 A 
ATOM     28  N   UNL     1      49.069   9.787  15.497  0.00  0.00    +0.000 N 
ATOM     29  C   UNL     1      48.898   8.425  15.573  0.00  0.00    +0.000 A 
ATOM     30  O   UNL     1      48.900   7.732  14.562  0.00  0.00    +0.000 OA
ATOM     31  C   UNL     1      48.755   7.912  16.924  0.00  0.00    +0.000 A 
ATOM     32  H   UNL     1      49.185  10.167  14.570  0.00  0.00    +0.000 HD
ENDBRANCH  19  22
ENDBRANCH   1  20
TORSDOF 7
ENDMDL
MODEL 4
REMARK VINA RESULT:    -7.099      3.216      7.611
REMARK INTER + INTRA:         -11.058
REMARK INTER:                 -10.046
REMARK INTRA:                  -1.012
REMARK UNBOUND:                -1.054
REMARK  Name = 
REMARK  7 active torsions:
REMARK  status: ('A' for Active; 'I' for Inactive)
REMARK    1  A    between atoms: C_2  and  C_19
REMARK    2  A    between atoms: N_3  and  C_4
REMARK    3  A    between atoms: C_4  and  C_5
REMARK    4  A    between atoms: C_8  and  C_9
REMARK    5  A    between atoms: C_9  and  N_10
REMARK    6  A    between atoms: N_10  and  C_11
REMARK    7  A    between atoms: C_11  and  C_12
REMARK                            x       y       z     vdW  Elec       q    Type
REMARK                         _______ _______ _______ _____ _____    ______ ____
ROOT
ATOM      1  C   UNL     1      48.391   7.637  12.427  0.00  0.00    +0.000 C 
ENDROOT
BRANCH   1   2
ATOM      2  C   UNL     1      48.679   7.265  13.861  0.00  0.00    +0.000 A 
ATOM      3  C   UNL     1      49.583   8.013  14.606  0.00  0.00    +0.000 A 
ATOM      4  C   UNL     1      49.839   7.648  15.923  0.00  0.00    +0.000 A 
ATOM      5  C   UNL     1      49.190   6.541  16.476  0.00  0.00    +0.000 A 
ATOM      6  C   UNL     1      48.319   5.839  15.651  0.00  0.00    +0.000 A 
ATOM      7  N   UNL     1      48.051   6.168  14.365  0.00  0.00    +0.000 NA
BRANCH   5   8
ATOM      8  C   UNL     1      49.421   6.132  17.904  0.00  0.00    +0.000 C 
BRANCH   8   9
ATOM      9  N   UNL     1      48.274   5.377  18.407  0.00  0.00    +0.000 NA
ATOM     10  H   UNL     1      47.681   5.133  17.611  0.00  0.00    +0.000 HD
BRANCH   9  11
ATOM     11  C   UNL     1      48.693   4.141  19.062  0.00  0.00    +0.000 C 
BRANCH  11  12
ATOM     12  C   UNL     1      49.221   3.207  18.039  0.00  0.00    +0.000 A 
ATOM     13  C   UNL     1      48.648   2.600  16.944  0.00  0.00    +0.000 A 
ATOM     14  N   UNL     1      49.554   1.801  16.295  0.00  0.00    +0.000 NA
ATOM     15  C   UNL     1      50.671   1.918  16.975  0.00  0.00    +0.000 A 
ATOM     16  N   UNL     1      50.525   2.769  18.030  0.00  0.00    +0.000 N 
ATOM     17  H   UNL     1      51.223   3.016  18.718  0.00  0.00    +0.000 HD
ENDBRANCH  11  12
ENDBRANCH   9  11
ENDBRANCH   8   9
ENDBRANCH   5   8
ENDBRANCH   1   2
BRANCH   1  20
ATOM     18  O   UNL     1      45.685   7.869  11.638  0.00  0.00    +0.000 OA
ATOM     19  C   UNL     1      46.278   6.813  11.439  0.00  0.00    +0.000 C 
ATOM     20  N   UNL     1      47.594   6.636  11.761  0.00  0.00    +0.000 N 
ATOM     21  H   UNL     1      48.050   5.747  11.593  0.00  0.00    +0.000 HD
BRANCH  19  22
ATOM     22  C   UNL     1      45.626   5.672  10.789  0.00  0.00    +0.000 A 
ATOM     23  C   UNL     1      45.725   5.494   9.416  0.00  0.00    +0.000 A 
ATOM     24  S   UNL     1      44.939   4.086   8.856  0.00  0.00    +0.000 S 
ATOM     25  C   UNL     1      44.405   3.692  10.424  0.00  0.00    +0.000 A 
ATOM     26  N   UNL     1      43.660   2.576  10.653  0.00  0.00    +0.000 NA
ATOM     27  C   UNL     1      43.302   2.417  11.883  0.00  0.00    +0.000 A 
ATOM     28  N   UNL     1      43.615   3.274  12.905  0.00  0.00    +0.000 N 
ATOM     29  C   UNL     1      44.378   4.403  12.727  0.00  0.00    +0.000 A 
ATOM     30  O   UNL     1      44.668   5.125  13.675  0.00  0.00    +0.000 OA
ATOM     31  C   UNL     1      44.817   4.622  11.361  0.00  0.00    +0.000 A 
ATOM     32  H   UNL     1      43.309   3.092  13.849  0.00  0.00    +0.000 HD
ENDBRANCH  19  22
ENDBRANCH   1  20
TORSDOF 7
ENDMDL
MODEL 5
REMARK VINA RESULT:    -6.927      2.724      3.547
REMARK INTER + INTRA:         -10.816
REMARK INTER:                 -10.099
REMARK INTRA:                  -0.718
REMARK UNBOUND:                -1.054
REMARK  Name = 
REMARK  7 active torsions:
REMARK  status: ('A' for Active; 'I' for Inactive)
REMARK    1  A    between atoms: C_2  and  C_19
REMARK    2  A    between atoms: N_3  and  C_4
REMARK    3  A    between atoms: C_4  and  C_5
REMARK    4  A    between atoms: C_8  and  C_9
REMARK    5  A    between atoms: C_9  and  N_10
REMARK    6  A    between atoms: N_10  and  C_11
REMARK    7  A    between atoms: C_11  and  C_12
REMARK                            x       y       z     vdW  Elec       q    Type
REMARK                         _______ _______ _______ _____ _____    ______ ____
ROOT
ATOM      1  C   UNL     1      48.914   6.784  15.721  0.00  0.00    +0.000 C 
ENDROOT
BRANCH   1   2
ATOM      2  C   UNL     1      48.015   5.972  14.821  0.00  0.00    +0.000 A 
ATOM      3  C   UNL     1      47.568   6.505  13.619  0.00  0.00    +0.000 A 
ATOM      4  C   UNL     1      46.734   5.740  12.810  0.00  0.00    +0.000 A 
ATOM      5  C   UNL     1      46.358   4.457  13.215  0.00  0.00    +0.000 A 
ATOM      6  C   UNL     1      46.834   4.014  14.443  0.00  0.00    +0.000 A 
ATOM      7  N   UNL     1      47.646   4.735  15.254  0.00  0.00    +0.000 NA
BRANCH   5   8
ATOM      8  C   UNL     1      45.479   3.592  12.354  0.00  0.00    +0.000 C 
BRANCH   8   9
ATOM      9  N   UNL     1      44.549   4.420  11.587  0.00  0.00    +0.000 NA
ATOM     10  H   UNL     1      45.092   5.115  11.073  0.00  0.00    +0.000 HD
BRANCH   9  11
ATOM     11  C   UNL     1      43.795   3.624  10.624  0.00  0.00    +0.000 C 
BRANCH  11  12
ATOM     12  C   UNL     1      44.704   3.192   9.536  0.00  0.00    +0.000 A 
ATOM     13  C   UNL     1      45.339   3.876   8.523  0.00  0.00    +0.000 A 
ATOM     14  N   UNL     1      46.084   3.024   7.748  0.00  0.00    +0.000 NA
ATOM     15  C   UNL     1      45.917   1.835   8.278  0.00  0.00    +0.000 A 
ATOM     16  N   UNL     1      45.103   1.887   9.370  0.00  0.00    +0.000 N 
ATOM     17  H   UNL     1      44.801   1.112   9.945  0.00  0.00    +0.000 HD
ENDBRANCH  11  12
ENDBRANCH   9  11
ENDBRANCH   8   9
ENDBRANCH   5   8
ENDBRANCH   1   2
BRANCH   1  20
ATOM     18  O   UNL     1      48.946   5.601  18.290  0.00  0.00    +0.000 OA
ATOM     19  C   UNL     1      49.924   5.472  17.558  0.00  0.00    +0.000 C 
ATOM     20  N   UNL     1      49.970   5.985  16.293  0.00  0.00    +0.000 N 
ATOM     21  H   UNL     1      50.797   5.871  15.721  0.00  0.00    +0.000 HD
BRANCH  19  22
ATOM     22  C   UNL     1      51.104   4.709  17.976  0.00  0.00    +0.000 A 
ATOM     23  C   UNL     1      52.159   5.342  18.619  0.00  0.00    +0.000 A 
ATOM     24  S   UNL     1      53.417   4.278  19.065  0.00  0.00    +0.000 S 
ATOM     25  C   UNL     1      52.613   2.946  18.376  0.00  0.00    +0.000 A 
ATOM     26  N   UNL     1      53.158   1.699  18.412  0.00  0.00    +0.000 NA
ATOM     27  C   UNL     1      52.452   0.790  17.828  0.00  0.00    +0.000 A 
ATOM     28  N   UNL     1      51.253   1.014  17.203  0.00  0.00    +0.000 N 
ATOM     29  C   UNL     1      50.653   2.250  17.156  0.00  0.00    +0.000 A 
ATOM     30  O   UNL     1      49.561   2.401  16.620  0.00  0.00    +0.000 OA
ATOM     31  C   UNL     1      51.403   3.307  17.810  0.00  0.00    +0.000 A 
ATOM     32  H   UNL     1      50.744   0.259  16.768  0.00  0.00    +0.000 HD
ENDBRANCH  19  22
ENDBRANCH   1  20
TORSDOF 7
ENDMDL
MODEL 6
REMARK VINA RESULT:    -6.925      2.403      3.049
REMARK INTER + INTRA:         -10.812
REMARK INTER:                 -10.105
REMARK INTRA:                  -0.707
REMARK UNBOUND:                -1.054
REMARK  Name = 
REMARK  7 active torsions:
REMARK  status: ('A' for Active; 'I' for Inactive)
REMARK    1  A    between atoms: C_2  and  C_19
REMARK    2  A    between atoms: N_3  and  C_4
REMARK    3  A    between atoms: C_4  and  C_5
REMARK    4  A    between atoms: C_8  and  C_9
REMARK    5  A    between atoms: C_9  and  N_10
REMARK    6  A    between atoms: N_10  and  C_11
REMARK    7  A    between atoms: C_11  and  C_12
REMARK                            x       y       z     vdW  Elec       q    Type
REMARK                         _______ _______ _______ _____ _____    ______ ____
ROOT
ATOM      1  C   UNL     1      46.817   4.357  14.777  0.00  0.00    +0.000 C 
ENDROOT
BRANCH   1   2
ATOM      2  C   UNL     1      46.094   4.463  13.457  0.00  0.00    +0.000 A 
ATOM      3  C   UNL     1      46.440   5.458  12.551  0.00  0.00    +0.000 A 
ATOM      4  C   UNL     1      45.754   5.541  11.344  0.00  0.00    +0.000 A 
ATOM      5  C   UNL     1      44.733   4.630  11.061  0.00  0.00    +0.000 A 
ATOM      6  C   UNL     1      44.440   3.682  12.034  0.00  0.00    +0.000 A 
ATOM      7  N   UNL     1      45.088   3.577  13.219  0.00  0.00    +0.000 NA
BRANCH   5   8
ATOM      8  C   UNL     1      43.988   4.672   9.755  0.00  0.00    +0.000 C 
BRANCH   8   9
ATOM      9  N   UNL     1      44.850   4.210   8.666  0.00  0.00    +0.000 NA
ATOM     10  H   UNL     1      45.787   4.585   8.822  0.00  0.00    +0.000 HD
BRANCH   9  11
ATOM     11  C   UNL     1      44.938   2.753   8.636  0.00  0.00    +0.000 C 
BRANCH  11  12
ATOM     12  C   UNL     1      46.159   2.358   7.895  0.00  0.00    +0.000 A 
ATOM     13  C   UNL     1      46.755   1.138   7.659  0.00  0.00    +0.000 A 
ATOM     14  N   UNL     1      47.896   1.285   6.912  0.00  0.00    +0.000 NA
ATOM     15  C   UNL     1      47.999   2.575   6.685  0.00  0.00    +0.000 A 
ATOM     16  N   UNL     1      46.965   3.263   7.246  0.00  0.00    +0.000 N 
ATOM     17  H   UNL     1      46.819   4.264   7.235  0.00  0.00    +0.000 HD
ENDBRANCH  11  12
ENDBRANCH   9  11
ENDBRANCH   8   9
ENDBRANCH   5   8
ENDBRANCH   1   2
BRANCH   1  20
ATOM     18  O   UNL     1      49.030   4.713  16.503  0.00  0.00    +0.000 OA
ATOM     19  C   UNL     1      48.473   5.700  16.030  0.00  0.00    +0.000 C 
ATOM     20  N   UNL     1      47.421   5.609  15.163  0.00  0.00    +0.000 N 
ATOM     21  H   UNL     1      46.977   6.444  14.802  0.00  0.00    +0.000 HD
BRANCH  19  22
ATOM     22  C   UNL     1      48.933   7.061  16.326  0.00  0.00    +0.000 A 
ATOM     23  C   UNL     1      49.754   7.734  15.433  0.00  0.00    +0.000 A 
ATOM     24  S   UNL     1      50.144   9.319  15.933  0.00  0.00    +0.000 S 
ATOM     25  C   UNL     1      49.263   9.142  17.378  0.00  0.00    +0.000 A 
ATOM     26  N   UNL     1      49.185  10.155  18.284  0.00  0.00    +0.000 NA
ATOM     27  C   UNL     1      48.508   9.871  19.345  0.00  0.00    +0.000 A 
ATOM     28  N   UNL     1      47.906   8.664  19.589  0.00  0.00    +0.000 N 
ATOM     29  C   UNL     1      47.941   7.618  18.699  0.00  0.00    +0.000 A 
ATOM     30  O   UNL     1      47.358   6.566  18.938  0.00  0.00    +0.000 OA
ATOM     31  C   UNL     1      48.682   7.890  17.481  0.00  0.00    +0.000 A 
ATOM     32  H   UNL     1      47.384   8.505  20.438  0.00  0.00    +0.000 HD
ENDBRANCH  19  22
ENDBRANCH   1  20
TORSDOF 7
ENDMDL
MODEL 7
REMARK VINA RESULT:    -6.840      2.730      8.122
REMARK INTER + INTRA:         -10.693
REMARK INTER:                  -9.532
REMARK INTRA:                  -1.161
REMARK UNBOUND:                -1.054
REMARK  Name = 
REMARK  7 active torsions:
REMARK  status: ('A' for Active; 'I' for Inactive)
REMARK    1  A    between atoms: C_2  and  C_19
REMARK    2  A    between atoms: N_3  and  C_4
REMARK    3  A    between atoms: C_4  and  C_5
REMARK    4  A    between atoms: C_8  and  C_9
REMARK    5  A    between atoms: C_9  and  N_10
REMARK    6  A    between atoms: N_10  and  C_11
REMARK    7  A    between atoms: C_11  and  C_12
REMARK                            x       y       z     vdW  Elec       q    Type
REMARK                         _______ _______ _______ _____ _____    ______ ____
ROOT
ATOM      1  C   UNL     1      47.607   7.757  12.114  0.00  0.00    +0.000 C 
ENDROOT
BRANCH   1   2
ATOM      2  C   UNL     1      48.144   7.799  13.524  0.00  0.00    +0.000 A 
ATOM      3  C   UNL     1      47.775   8.831  14.379  0.00  0.00    +0.000 A 
ATOM      4  C   UNL     1      48.288   8.853  15.671  0.00  0.00    +0.000 A 
ATOM      5  C   UNL     1      49.164   7.848  16.089  0.00  0.00    +0.000 A 
ATOM      6  C   UNL     1      49.496   6.869  15.160  0.00  0.00    +0.000 A 
ATOM      7  N   UNL     1      49.014   6.820  13.895  0.00  0.00    +0.000 NA
BRANCH   5   8
ATOM      8  C   UNL     1      49.718   7.825  17.487  0.00  0.00    +0.000 C 
BRANCH   8   9
ATOM      9  N   UNL     1      50.180   6.480  17.827  0.00  0.00    +0.000 NA
ATOM     10  H   UNL     1      51.110   6.558  18.239  0.00  0.00    +0.000 HD
BRANCH   9  11
ATOM     11  C   UNL     1      49.298   5.843  18.800  0.00  0.00    +0.000 C 
BRANCH  11  12
ATOM     12  C   UNL     1      48.484   4.812  18.114  0.00  0.00    +0.000 A 
ATOM     13  C   UNL     1      47.136   4.712  17.845  0.00  0.00    +0.000 A 
ATOM     14  N   UNL     1      46.853   3.547  17.179  0.00  0.00    +0.000 NA
ATOM     15  C   UNL     1      48.008   2.941  17.032  0.00  0.00    +0.000 A 
ATOM     16  N   UNL     1      49.026   3.673  17.567  0.00  0.00    +0.000 N 
ATOM     17  H   UNL     1      50.005   3.423  17.604  0.00  0.00    +0.000 HD
ENDBRANCH  11  12
ENDBRANCH   9  11
ENDBRANCH   8   9
ENDBRANCH   5   8
ENDBRANCH   1   2
BRANCH   1  20
ATOM     18  O   UNL     1      44.809   7.557  11.749  0.00  0.00    +0.000 OA
ATOM     19  C   UNL     1      45.492   6.536  11.727  0.00  0.00    +0.000 C 
ATOM     20  N   UNL     1      46.851   6.555  11.861  0.00  0.00    +0.000 N 
ATOM     21  H   UNL     1      47.382   5.693  11.850  0.00  0.00    +0.000 HD
BRANCH  19  22
ATOM     22  C   UNL     1      44.896   5.215  11.501  0.00  0.00    +0.000 A 
ATOM     23  C   UNL     1      44.170   4.591  12.505  0.00  0.00    +0.000 A 
ATOM     24  S   UNL     1      43.520   3.084  12.036  0.00  0.00    +0.000 S 
ATOM     25  C   UNL     1      44.222   3.198  10.490  0.00  0.00    +0.000 A 
ATOM     26  N   UNL     1      44.052   2.213   9.566  0.00  0.00    +0.000 NA
ATOM     27  C   UNL     1      44.663   2.419   8.447  0.00  0.00    +0.000 A 
ATOM     28  N   UNL     1      45.436   3.516   8.170  0.00  0.00    +0.000 N 
ATOM     29  C   UNL     1      45.623   4.544   9.063  0.00  0.00    +0.000 A 
ATOM     30  O   UNL     1      46.291   5.527   8.762  0.00  0.00    +0.000 OA
ATOM     31  C   UNL     1      44.946   4.367  10.334  0.00  0.00    +0.000 A 
ATOM     32  H   UNL     1      45.885   3.623   7.272  0.00  0.00    +0.000 HD
ENDBRANCH  19  22
ENDBRANCH   1  20
TORSDOF 7
ENDMDL
MODEL 8
REMARK VINA RESULT:    -6.787      4.228      8.973
REMARK INTER + INTRA:         -10.618
REMARK INTER:                  -9.902
REMARK INTRA:                  -0.716
REMARK UNBOUND:                -1.054
REMARK  Name = 
REMARK  7 active torsions:
REMARK  status: ('A' for Active; 'I' for Inactive)
REMARK    1  A    between atoms: C_2  and  C_19
REMARK    2  A    between atoms: N_3  and  C_4
REMARK    3  A    between atoms: C_4  and  C_5
REMARK    4  A    between atoms: C_8  and  C_9
REMARK    5  A    between atoms: C_9  and  N_10
REMARK    6  A    between atoms: N_10  and  C_11
REMARK    7  A    between atoms: C_11  and  C_12
REMARK                            x       y       z     vdW  Elec       q    Type
REMARK                         _______ _______ _______ _____ _____    ______ ____
ROOT
ATOM      1  C   UNL     1      47.109   3.416  16.953  0.00  0.00    +0.000 C 
ENDROOT
BRANCH   1   2
ATOM      2  C   UNL     1      48.594   3.359  17.218  0.00  0.00    +0.000 A 
ATOM      3  C   UNL     1      49.301   2.189  16.970  0.00  0.00    +0.000 A 
ATOM      4  C   UNL     1      50.667   2.157  17.230  0.00  0.00    +0.000 A 
ATOM      5  C   UNL     1      51.305   3.293  17.735  0.00  0.00    +0.000 A 
ATOM      6  C   UNL     1      50.515   4.411  17.973  0.00  0.00    +0.000 A 
ATOM      7  N   UNL     1      49.183   4.473  17.733  0.00  0.00    +0.000 NA
BRANCH   5   8
ATOM      8  C   UNL     1      52.785   3.304  18.002  0.00  0.00    +0.000 C 
BRANCH   8   9
ATOM      9  N   UNL     1      53.151   2.184  18.868  0.00  0.00    +0.000 NA
ATOM     10  H   UNL     1      52.537   1.398  18.648  0.00  0.00    +0.000 HD
BRANCH   9  11
ATOM     11  C   UNL     1      54.531   1.765  18.645  0.00  0.00    +0.000 C 
BRANCH  11  12
ATOM     12  C   UNL     1      54.562   0.298  18.432  0.00  0.00    +0.000 A 
ATOM     13  C   UNL     1      54.923  -0.483  17.356  0.00  0.00    +0.000 A 
ATOM     14  N   UNL     1      54.773  -1.815  17.644  0.00  0.00    +0.000 NA
ATOM     15  C   UNL     1      54.331  -1.857  18.880  0.00  0.00    +0.000 A 
ATOM     16  N   UNL     1      54.203  -0.606  19.404  0.00  0.00    +0.000 N 
ATOM     17  H   UNL     1      53.866  -0.360  20.326  0.00  0.00    +0.000 HD
ENDBRANCH  11  12
ENDBRANCH   9  11
ENDBRANCH   8   9
ENDBRANCH   5   8
ENDBRANCH   1   2
BRANCH   1  20
ATOM     18  O   UNL     1      47.265   3.032  14.155  0.00  0.00    +0.000 OA
ATOM     19  C   UNL     1      46.913   4.125  14.591  0.00  0.00    +0.000 C 
ATOM     20  N   UNL     1      46.781   4.377  15.928  0.00  0.00    +0.000 N 
ATOM     21  H   UNL     1      46.500   5.293  16.254  0.00  0.00    +0.000 HD
BRANCH  19  22
ATOM     22  C   UNL     1      46.557   5.233  13.700  0.00  0.00    +0.000 A 
ATOM     23  C   UNL     1      47.455   6.266  13.471  0.00  0.00    +0.000 A 
ATOM     24  S   UNL     1      46.876   7.436  12.370  0.00  0.00    +0.000 S 
ATOM     25  C   UNL     1      45.392   6.621  12.197  0.00  0.00    +0.000 A 
ATOM     26  N   UNL     1      44.417   7.102  11.377  0.00  0.00    +0.000 NA
ATOM     27  C   UNL     1      43.335   6.398  11.365  0.00  0.00    +0.000 A 
ATOM     28  N   UNL     1      43.134   5.261  12.102  0.00  0.00    +0.000 N 
ATOM     29  C   UNL     1      44.093   4.727  12.929  0.00  0.00    +0.000 A 
ATOM     30  O   UNL     1      43.888   3.685  13.543  0.00  0.00    +0.000 OA
ATOM     31  C   UNL     1      45.336   5.476  12.970  0.00  0.00    +0.000 A 
ATOM     32  H   UNL     1      42.266   4.750  12.044  0.00  0.00    +0.000 HD
ENDBRANCH  19  22
ENDBRANCH   1  20
TORSDOF 7
ENDMDL
MODEL 9
REMARK VINA RESULT:    -6.684      3.849      8.884
REMARK INTER + INTRA:         -10.474
REMARK INTER:                  -9.544
REMARK INTRA:                  -0.930
REMARK UNBOUND:                -1.054
REMARK  Name = 
REMARK  7 active torsions:
REMARK  status: ('A' for Active; 'I' for Inactive)
REMARK    1  A    between atoms: C_2  and  C_19
REMARK    2  A    between atoms: N_3  and  C_4
REMARK    3  A    between atoms: C_4  and  C_5
REMARK    4  A    between atoms: C_8  and  C_9
REMARK    5  A    between atoms: C_9  and  N_10
REMARK    6  A    between atoms: N_10  and  C_11
REMARK    7  A    between atoms: C_11  and  C_12
REMARK                            x       y       z     vdW  Elec       q    Type
REMARK                         _______ _______ _______ _____ _____    ______ ____
ROOT
ATOM      1  C   UNL     1      47.326   3.502  16.632  0.00  0.00    +0.000 C 
ENDROOT
BRANCH   1   2
ATOM      2  C   UNL     1      48.488   4.096  17.389  0.00  0.00    +0.000 A 
ATOM      3  C   UNL     1      48.460   4.150  18.777  0.00  0.00    +0.000 A 
ATOM      4  C   UNL     1      49.540   4.709  19.453  0.00  0.00    +0.000 A 
ATOM      5  C   UNL     1      50.629   5.207  18.733  0.00  0.00    +0.000 A 
ATOM      6  C   UNL     1      50.561   5.131  17.347  0.00  0.00    +0.000 A 
ATOM      7  N   UNL     1      49.524   4.595  16.660  0.00  0.00    +0.000 NA
BRANCH   5   8
ATOM      8  C   UNL     1      51.825   5.794  19.431  0.00  0.00    +0.000 C 
BRANCH   8   9
ATOM      9  N   UNL     1      53.041   5.089  19.029  0.00  0.00    +0.000 NA
ATOM     10  H   UNL     1      53.826   5.737  19.111  0.00  0.00    +0.000 HD
BRANCH   9  11
ATOM     11  C   UNL     1      53.303   3.941  19.893  0.00  0.00    +0.000 C 
BRANCH  11  12
ATOM     12  C   UNL     1      53.412   2.722  19.056  0.00  0.00    +0.000 A 
ATOM     13  C   UNL     1      54.481   1.935  18.687  0.00  0.00    +0.000 A 
ATOM     14  N   UNL     1      54.074   0.900  17.884  0.00  0.00    +0.000 NA
ATOM     15  C   UNL     1      52.774   1.043  17.764  0.00  0.00    +0.000 A 
ATOM     16  N   UNL     1      52.325   2.120  18.468  0.00  0.00    +0.000 N 
ATOM     17  H   UNL     1      51.374   2.459  18.527  0.00  0.00    +0.000 HD
ENDBRANCH  11  12
ENDBRANCH   9  11
ENDBRANCH   8   9
ENDBRANCH   5   8
ENDBRANCH   1   2
BRANCH   1  20
ATOM     18  O   UNL     1      47.192   3.159  13.828  0.00  0.00    +0.000 OA
ATOM     19  C   UNL     1      46.778   4.203  14.324  0.00  0.00    +0.000 C 
ATOM     20  N   UNL     1      46.777   4.428  15.672  0.00  0.00    +0.000 N 
ATOM     21  H   UNL     1      46.439   5.306  16.047  0.00  0.00    +0.000 HD
BRANCH  19  22
ATOM     22  C   UNL     1      46.201   5.273  13.503  0.00  0.00    +0.000 A 
ATOM     23  C   UNL     1      46.903   6.451  13.291  0.00  0.00    +0.000 A 
ATOM     24  S   UNL     1      46.087   7.552  12.273  0.00  0.00    +0.000 S 
ATOM     25  C   UNL     1      44.752   6.507  12.117  0.00  0.00    +0.000 A 
ATOM     26  N   UNL     1      43.674   6.852  11.362  0.00  0.00    +0.000 NA
ATOM     27  C   UNL     1      42.725   5.977  11.356  0.00  0.00    +0.000 A 
ATOM     28  N   UNL     1      42.751   4.792  12.043  0.00  0.00    +0.000 N 
ATOM     29  C   UNL     1      43.823   4.392  12.804  0.00  0.00    +0.000 A 
ATOM     30  O   UNL     1      43.822   3.306  13.373  0.00  0.00    +0.000 OA
ATOM     31  C   UNL     1      44.924   5.337  12.834  0.00  0.00    +0.000 A 
ATOM     32  H   UNL     1      41.978   4.145  11.994  0.00  0.00    +0.000 HD
ENDBRANCH  19  22
ENDBRANCH   1  20
TORSDOF 7
ENDMDL
