MODEL 1
REMARK VINA RESULT:    -8.962      0.000      0.000
REMARK INTER + INTRA:         -11.954
REMARK INTER:                 -11.057
REMARK INTRA:                  -0.897
REMARK UNBOUND:                -0.897
REMARK  Name = 
REMARK  4 active torsions:
REMARK  status: ('A' for Active; 'I' for Inactive)
REMARK    1  A    between atoms: C_2  and  C_4
REMARK    2  A    between atoms: N_8  and  C_9
REMARK    3  A    between atoms: C_9  and  C_10
REMARK    4  A    between atoms: C_15  and  N_16
REMARK                            x       y       z     vdW  Elec       q    Type
REMARK                         _______ _______ _______ _____ _____    ______ ____
ROOT
ATOM      1  C   UNL     1      43.494   4.855  11.056  0.00  0.00    +0.000 C 
ENDROOT
BRANCH   1   6
ATOM      2  C   UNL     1      46.342   2.233   7.673  0.00  0.00    +0.000 A 
ATOM      3  C   UNL     1      45.643   1.758   8.776  0.00  0.00    +0.000 A 
ATOM      4  C   UNL     1      44.802   2.626   9.476  0.00  0.00    +0.000 A 
ATOM      5  C   UNL     1      44.685   3.952   9.072  0.00  0.00    +0.000 A 
ATOM      6  N   UNL     1      43.825   4.856   9.649  0.00  0.00    +0.000 N 
ATOM      7  N   UNL     1      45.370   4.425   8.012  0.00  0.00    +0.000 NA
ATOM      8  C   UNL     1      46.187   3.569   7.343  0.00  0.00    +0.000 A 
ATOM      9  H   UNL     1      43.966   5.770   9.228  0.00  0.00    +0.000 HD
BRANCH   2  11
ATOM     10  N   UNL     1      48.309   1.994   6.267  0.00  0.00    +0.000 N 
ATOM     11  C   UNL     1      47.232   1.387   6.852  0.00  0.00    +0.000 C 
ATOM     12  O   UNL     1      47.037   0.184   6.725  0.00  0.00    +0.000 OA
ATOM     13  H   UNL     1      48.966   1.383   5.799  0.00  0.00    +0.000 HD
ATOM     14  H   UNL     1      48.645   2.902   6.557  0.00  0.00    +0.000 HD
ENDBRANCH   2  11
ENDBRANCH   1   6
BRANCH   1  15
ATOM     15  C   UNL     1      44.633   5.188  11.994  0.00  0.00    +0.000 A 
ATOM     16  C   UNL     1      45.100   4.344  13.005  0.00  0.00    +0.000 A 
ATOM     17  C   UNL     1      46.188   4.732  13.780  0.00  0.00    +0.000 A 
ATOM     18  F   UNL     1      46.646   3.905  14.729  0.00  0.00    +0.000 F 
ATOM     19  C   UNL     1      46.834   5.946  13.565  0.00  0.00    +0.000 A 
ATOM     20  C   UNL     1      46.413   6.812  12.551  0.00  0.00    +0.000 A 
ATOM     21  C   UNL     1      45.300   6.417  11.792  0.00  0.00    +0.000 A 
BRANCH  20  22
ATOM     22  N   UNL     1      47.146   7.969  12.281  0.00  0.00    +0.000 N 
ATOM     23  C   UNL     1      46.597   9.261  12.705  0.00  0.00    +0.000 C 
ATOM     24  C   UNL     1      47.199  10.358  11.833  0.00  0.00    +0.000 C 
ATOM     25  C   UNL     1      48.724  10.338  11.897  0.00  0.00    +0.000 C 
ATOM     26  C   UNL     1      49.276   8.948  11.581  0.00  0.00    +0.000 C 
ATOM     27  C   UNL     1      48.605   7.857  12.422  0.00  0.00    +0.000 C 
ENDBRANCH  20  22
ENDBRANCH   1  15
TORSDOF 4
ENDMDL
MODEL 2
REMARK VINA RESULT:    -8.161      2.380      3.915
REMARK INTER + INTRA:         -10.967
REMARK INTER:                 -10.165
REMARK INTRA:                  -0.802
REMARK UNBOUND:                -0.897
REMARK  Name = 
REMARK  4 active torsions:
REMARK  status: ('A' for Active; 'I' for Inactive)
REMARK    1  A    between atoms: C_2  and  C_4
REMARK    2  A    between atoms: N_8  and  C_9
REMARK    3  A    between atoms: C_9  and  C_10
REMARK    4  A    between atoms: C_15  and  N_16
REMARK                            x       y       z     vdW  Elec       q    Type
REMARK                         _______ _______ _______ _____ _____    ______ ____
ROOT
ATOM      1  C   UNL     1      44.501   4.991  11.602  0.00  0.00    +0.000 C 
ENDROOT
BRANCH   1   6
ATOM      2  C   UNL     1      46.464   2.555   7.521  0.00  0.00    +0.000 A 
ATOM      3  C   UNL     1      46.025   2.021   8.727  0.00  0.00    +0.000 A 
ATOM      4  C   UNL     1      45.380   2.851   9.646  0.00  0.00    +0.000 A 
ATOM      5  C   UNL     1      45.197   4.198   9.352  0.00  0.00    +0.000 A 
ATOM      6  N   UNL     1      44.505   5.071  10.158  0.00  0.00    +0.000 N 
ATOM      7  N   UNL     1      45.632   4.728   8.192  0.00  0.00    +0.000 NA
ATOM      8  C   UNL     1      46.261   3.909   7.309  0.00  0.00    +0.000 A 
ATOM      9  H   UNL     1      44.563   6.007   9.767  0.00  0.00    +0.000 HD
BRANCH   2  11
ATOM     10  N   UNL     1      47.866   2.431   5.540  0.00  0.00    +0.000 N 
ATOM     11  C   UNL     1      47.130   1.754   6.475  0.00  0.00    +0.000 C 
ATOM     12  O   UNL     1      47.059   0.531   6.459  0.00  0.00    +0.000 OA
ATOM     13  H   UNL     1      48.401   1.863   4.897  0.00  0.00    +0.000 HD
ATOM     14  H   UNL     1      48.161   3.389   5.671  0.00  0.00    +0.000 HD
ENDBRANCH   2  11
ENDBRANCH   1   6
BRANCH   1  15
ATOM     15  C   UNL     1      45.758   5.482  12.285  0.00  0.00    +0.000 A 
ATOM     16  C   UNL     1      46.581   6.499  11.795  0.00  0.00    +0.000 A 
ATOM     17  C   UNL     1      47.690   6.904  12.531  0.00  0.00    +0.000 A 
ATOM     18  F   UNL     1      48.458   7.899  12.067  0.00  0.00    +0.000 F 
ATOM     19  C   UNL     1      47.996   6.323  13.759  0.00  0.00    +0.000 A 
ATOM     20  C   UNL     1      47.188   5.317  14.297  0.00  0.00    +0.000 A 
ATOM     21  C   UNL     1      46.086   4.903  13.531  0.00  0.00    +0.000 A 
BRANCH  20  22
ATOM     22  N   UNL     1      47.450   4.831  15.579  0.00  0.00    +0.000 N 
ATOM     23  C   UNL     1      47.529   3.380  15.775  0.00  0.00    +0.000 C 
ATOM     24  C   UNL     1      47.224   3.066  17.236  0.00  0.00    +0.000 C 
ATOM     25  C   UNL     1      48.168   3.820  18.170  0.00  0.00    +0.000 C 
ATOM     26  C   UNL     1      48.174   5.318  17.864  0.00  0.00    +0.000 C 
ATOM     27  C   UNL     1      48.414   5.602  16.377  0.00  0.00    +0.000 C 
ENDBRANCH  20  22
ENDBRANCH   1  15
TORSDOF 4
ENDMDL
MODEL 3
REMARK VINA RESULT:    -7.880      2.438      3.364
REMARK INTER + INTRA:         -10.620
REMARK INTER:                  -9.982
REMARK INTRA:                  -0.638
REMARK UNBOUND:                -0.897
REMARK  Name = 
REMARK  4 active torsions:
REMARK  status: ('A' for Active; 'I' for Inactive)
REMARK    1  A    between atoms: C_2  and  C_4
REMARK    2  A    between atoms: N_8  and  C_9
REMARK    3  A    between atoms: C_9  and  C_10
REMARK    4  A    between atoms: C_15  and  N_16
REMARK                            x       y       z     vdW  Elec       q    Type
REMARK                         _______ _______ _______ _____ _____    ______ ____
ROOT
ATOM      1  C   UNL     1      43.580   3.591  11.103  0.00  0.00    +0.000 C 
ENDROOT
BRANCH   1   6
ATOM      2  C   UNL     1      46.707   2.526   7.163  0.00  0.00    +0.000 A 
ATOM      3  C   UNL     1      46.426   3.757   7.744  0.00  0.00    +0.000 A 
ATOM      4  C   UNL     1      45.661   3.802   8.912  0.00  0.00    +0.000 A 
ATOM      5  C   UNL     1      45.182   2.621   9.470  0.00  0.00    +0.000 A 
ATOM      6  N   UNL     1      44.490   2.560  10.657  0.00  0.00    +0.000 N 
ATOM      7  N   UNL     1      45.437   1.424   8.906  0.00  0.00    +0.000 NA
ATOM      8  C   UNL     1      46.180   1.397   7.768  0.00  0.00    +0.000 A 
ATOM      9  H   UNL     1      44.190   1.604  10.822  0.00  0.00    +0.000 HD
BRANCH   2  11
ATOM     10  N   UNL     1      47.359   3.300   4.954  0.00  0.00    +0.000 N 
ATOM     11  C   UNL     1      47.530   2.373   5.947  0.00  0.00    +0.000 C 
ATOM     12  O   UNL     1      48.357   1.476   5.838  0.00  0.00    +0.000 OA
ATOM     13  H   UNL     1      48.004   3.245   4.177  0.00  0.00    +0.000 HD
ATOM     14  H   UNL     1      46.895   4.184   5.111  0.00  0.00    +0.000 HD
ENDBRANCH   2  11
ENDBRANCH   1   6
BRANCH   1  15
ATOM     15  C   UNL     1      44.231   4.863  11.601  0.00  0.00    +0.000 A 
ATOM     16  C   UNL     1      43.862   6.150  11.202  0.00  0.00    +0.000 A 
ATOM     17  C   UNL     1      44.499   7.254  11.761  0.00  0.00    +0.000 A 
ATOM     18  F   UNL     1      44.120   8.486  11.394  0.00  0.00    +0.000 F 
ATOM     19  C   UNL     1      45.496   7.106  12.721  0.00  0.00    +0.000 A 
ATOM     20  C   UNL     1      45.882   5.837  13.165  0.00  0.00    +0.000 A 
ATOM     21  C   UNL     1      45.246   4.732  12.575  0.00  0.00    +0.000 A 
BRANCH  20  22
ATOM     22  N   UNL     1      46.801   5.719  14.208  0.00  0.00    +0.000 N 
ATOM     23  C   UNL     1      47.000   4.401  14.819  0.00  0.00    +0.000 C 
ATOM     24  C   UNL     1      47.534   4.594  16.236  0.00  0.00    +0.000 C 
ATOM     25  C   UNL     1      48.817   5.421  16.232  0.00  0.00    +0.000 C 
ATOM     26  C   UNL     1      48.629   6.736  15.475  0.00  0.00    +0.000 C 
ATOM     27  C   UNL     1      48.027   6.519  14.083  0.00  0.00    +0.000 C 
ENDBRANCH  20  22
ENDBRANCH   1  15
TORSDOF 4
ENDMDL
MODEL 4
REMARK VINA RESULT:    -7.573      2.220      3.088
REMARK INTER + INTRA:         -10.241
REMARK INTER:                  -9.570
REMARK INTRA:                  -0.671
REMARK UNBOUND:                -0.897
REMARK  Name = 
REMARK  4 active torsions:
REMARK  status: ('A' for Active; 'I' for Inactive)
REMARK    1  A    between atoms: C_2  and  C_4
REMARK    2  A    between atoms: N_8  and  C_9
REMARK    3  A    between atoms: C_9  and  C_10
REMARK    4  A    between atoms: C_15  and  N_16
REMARK                            x       y       z     vdW  Elec       q    Type
REMARK                         _______ _______ _______ _____ _____    ______ ____
ROOT
ATOM      1  C   UNL     1      44.367   5.658  11.007  0.00  0.00    +0.000 C 
ENDROOT
BRANCH   1   6
ATOM      2  C   UNL     1      46.414   2.085   7.927  0.00  0.00    +0.000 A 
ATOM      3  C   UNL     1      45.610   1.912   9.047  0.00  0.00    +0.000 A 
ATOM      4  C   UNL     1      45.031   3.031   9.651  0.00  0.00    +0.000 A 
ATOM      5  C   UNL     1      45.277   4.300   9.136  0.00  0.00    +0.000 A 
ATOM      6  N   UNL     1      44.691   5.448   9.613  0.00  0.00    +0.000 N 
ATOM      7  N   UNL     1      46.067   4.479   8.059  0.00  0.00    +0.000 NA
ATOM      8  C   UNL     1      46.626   3.381   7.484  0.00  0.00    +0.000 A 
ATOM      9  H   UNL     1      45.074   6.251   9.122  0.00  0.00    +0.000 HD
BRANCH   2  11
ATOM     10  N   UNL     1      46.713  -0.303   7.596  0.00  0.00    +0.000 N 
ATOM     11  C   UNL     1      47.046   0.964   7.203  0.00  0.00    +0.000 C 
ATOM     12  O   UNL     1      47.811   1.155   6.265  0.00  0.00    +0.000 OA
ATOM     13  H   UNL     1      47.069  -1.057   7.023  0.00  0.00    +0.000 HD
ATOM     14  H   UNL     1      45.905  -0.499   8.171  0.00  0.00    +0.000 HD
ENDBRANCH   2  11
ENDBRANCH   1   6
BRANCH   1  15
ATOM     15  C   UNL     1      45.048   6.838  11.664  0.00  0.00    +0.000 A 
ATOM     16  C   UNL     1      44.620   8.163  11.553  0.00  0.00    +0.000 A 
ATOM     17  C   UNL     1      45.297   9.166  12.240  0.00  0.00    +0.000 A 
ATOM     18  F   UNL     1      44.863  10.430  12.150  0.00  0.00    +0.000 F 
ATOM     19  C   UNL     1      46.393   8.878  13.048  0.00  0.00    +0.000 A 
ATOM     20  C   UNL     1      46.842   7.563  13.205  0.00  0.00    +0.000 A 
ATOM     21  C   UNL     1      46.163   6.565  12.487  0.00  0.00    +0.000 A 
BRANCH  20  22
ATOM     22  N   UNL     1      47.869   7.286  14.108  0.00  0.00    +0.000 N 
ATOM     23  C   UNL     1      47.923   5.954  14.720  0.00  0.00    +0.000 C 
ATOM     24  C   UNL     1      48.684   6.052  16.039  0.00  0.00    +0.000 C 
ATOM     25  C   UNL     1      50.077   6.640  15.829  0.00  0.00    +0.000 C 
ATOM     26  C   UNL     1      50.012   7.966  15.071  0.00  0.00    +0.000 C 
ATOM     27  C   UNL     1      49.185   7.857  13.786  0.00  0.00    +0.000 C 
ENDBRANCH  20  22
ENDBRANCH   1  15
TORSDOF 4
ENDMDL
MODEL 5
REMARK VINA RESULT:    -7.520      4.585      7.882
REMARK INTER + INTRA:         -10.176
REMARK INTER:                  -9.631
REMARK INTRA:                  -0.545
REMARK UNBOUND:                -0.897
REMARK  Name = 
REMARK  4 active torsions:
REMARK  status: ('A' for Active; 'I' for Inactive)
REMARK    1  A    between atoms: C_2  and  C_4
REMARK    2  A    between atoms: N_8  and  C_9
REMARK    3  A    between atoms: C_9  and  C_10
REMARK    4  A    between atoms: C_15  and  N_16
REMARK                            x       y       z     vdW  Elec       q    Type
REMARK                         _______ _______ _______ _____ _____    ______ ____
ROOT
ATOM      1  C   UNL     1      46.098   5.396  13.984  0.00  0.00    +0.000 C 
ENDROOT
BRANCH   1   6
ATOM      2  C   UNL     1      49.635   3.883  17.395  0.00  0.00    +0.000 A 
ATOM      3  C   UNL     1      49.239   5.173  17.066  0.00  0.00    +0.000 A 
ATOM      4  C   UNL     1      48.144   5.355  16.218  0.00  0.00    +0.000 A 
ATOM      5  C   UNL     1      47.475   4.249  15.705  0.00  0.00    +0.000 A 
ATOM      6  N   UNL     1      46.342   4.330  14.929  0.00  0.00    +0.000 N 
ATOM      7  N   UNL     1      47.860   2.994  16.007  0.00  0.00    +0.000 NA
ATOM      8  C   UNL     1      48.930   2.832  16.831  0.00  0.00    +0.000 A 
ATOM      9  H   UNL     1      46.078   3.398  14.623  0.00  0.00    +0.000 HD
BRANCH   2  11
ATOM     10  N   UNL     1      51.411   2.397  18.132  0.00  0.00    +0.000 N 
ATOM     11  C   UNL     1      50.760   3.588  18.305  0.00  0.00    +0.000 C 
ATOM     12  O   UNL     1      51.122   4.388  19.160  0.00  0.00    +0.000 OA
ATOM     13  H   UNL     1      52.244   2.258  18.689  0.00  0.00    +0.000 HD
ATOM     14  H   UNL     1      51.318   1.845  17.290  0.00  0.00    +0.000 HD
ENDBRANCH   2  11
ENDBRANCH   1   6
BRANCH   1  15
ATOM     15  C   UNL     1      45.126   5.070  12.871  0.00  0.00    +0.000 A 
ATOM     16  C   UNL     1      43.780   5.442  12.861  0.00  0.00    +0.000 A 
ATOM     17  C   UNL     1      42.987   5.130  11.761  0.00  0.00    +0.000 A 
ATOM     18  F   UNL     1      41.703   5.514  11.748  0.00  0.00    +0.000 F 
ATOM     19  C   UNL     1      43.508   4.459  10.659  0.00  0.00    +0.000 A 
ATOM     20  C   UNL     1      44.856   4.086  10.618  0.00  0.00    +0.000 A 
ATOM     21  C   UNL     1      45.638   4.388  11.744  0.00  0.00    +0.000 A 
BRANCH  20  22
ATOM     22  N   UNL     1      45.381   3.518   9.456  0.00  0.00    +0.000 N 
ATOM     23  C   UNL     1      44.986   2.150   9.107  0.00  0.00    +0.000 C 
ATOM     24  C   UNL     1      46.067   1.541   8.218  0.00  0.00    +0.000 C 
ATOM     25  C   UNL     1      46.308   2.399   6.978  0.00  0.00    +0.000 C 
ATOM     26  C   UNL     1      46.588   3.854   7.356  0.00  0.00    +0.000 C 
ATOM     27  C   UNL     1      45.525   4.419   8.304  0.00  0.00    +0.000 C 
ENDBRANCH  20  22
ENDBRANCH   1  15
TORSDOF 4
ENDMDL
MODEL 6
REMARK VINA RESULT:    -7.199      3.284      7.278
REMARK INTER + INTRA:          -9.780
REMARK INTER:                  -9.237
REMARK INTRA:                  -0.543
REMARK UNBOUND:                -0.897
REMARK  Name = 
REMARK  4 active torsions:
REMARK  status: ('A' for Active; 'I' for Inactive)
REMARK    1  A    between atoms: C_2  and  C_4
REMARK    2  A    between atoms: N_8  and  C_9
REMARK    3  A    between atoms: C_9  and  C_10
REMARK    4  A    between atoms: C_15  and  N_16
REMARK                            x       y       z     vdW  Elec       q    Type
REMARK                         _______ _______ _______ _____ _____    ______ ____
ROOT
ATOM      1  C   UNL     1      44.875   6.594  11.404  0.00  0.00    +0.000 C 
ENDROOT
BRANCH   1   6
ATOM      2  C   UNL     1      48.125   5.847  15.318  0.00  0.00    +0.000 A 
ATOM      3  C   UNL     1      47.191   4.969  14.782  0.00  0.00    +0.000 A 
ATOM      4  C   UNL     1      46.514   5.323  13.613  0.00  0.00    +0.000 A 
ATOM      5  C   UNL     1      46.772   6.549  13.009  0.00  0.00    +0.000 A 
ATOM      6  N   UNL     1      46.214   6.949  11.817  0.00  0.00    +0.000 N 
ATOM      7  N   UNL     1      47.666   7.413  13.529  0.00  0.00    +0.000 NA
ATOM      8  C   UNL     1      48.314   7.056  14.669  0.00  0.00    +0.000 A 
ATOM      9  H   UNL     1      46.502   7.902  11.615  0.00  0.00    +0.000 HD
BRANCH   2  11
ATOM     10  N   UNL     1      48.215   5.305  17.685  0.00  0.00    +0.000 N 
ATOM     11  C   UNL     1      48.911   5.551  16.532  0.00  0.00    +0.000 C 
ATOM     12  O   UNL     1      50.135   5.493  16.508  0.00  0.00    +0.000 OA
ATOM     13  H   UNL     1      48.762   4.999  18.479  0.00  0.00    +0.000 HD
ATOM     14  H   UNL     1      47.229   5.085  17.687  0.00  0.00    +0.000 HD
ENDBRANCH   2  11
ENDBRANCH   1   6
BRANCH   1  15
ATOM     15  C   UNL     1      44.672   5.142  11.031  0.00  0.00    +0.000 A 
ATOM     16  C   UNL     1      43.748   4.289  11.639  0.00  0.00    +0.000 A 
ATOM     17  C   UNL     1      43.612   2.982  11.183  0.00  0.00    +0.000 A 
ATOM     18  F   UNL     1      42.703   2.179  11.754  0.00  0.00    +0.000 F 
ATOM     19  C   UNL     1      44.374   2.501  10.122  0.00  0.00    +0.000 A 
ATOM     20  C   UNL     1      45.296   3.327   9.471  0.00  0.00    +0.000 A 
ATOM     21  C   UNL     1      45.438   4.637   9.957  0.00  0.00    +0.000 A 
BRANCH  20  22
ATOM     22  N   UNL     1      45.965   2.858   8.339  0.00  0.00    +0.000 N 
ATOM     23  C   UNL     1      46.142   1.411   8.180  0.00  0.00    +0.000 C 
ATOM     24  C   UNL     1      47.345   1.163   7.273  0.00  0.00    +0.000 C 
ATOM     25  C   UNL     1      47.176   1.869   5.930  0.00  0.00    +0.000 C 
ATOM     26  C   UNL     1      46.859   3.352   6.117  0.00  0.00    +0.000 C 
ATOM     27  C   UNL     1      45.693   3.576   7.085  0.00  0.00    +0.000 C 
ENDBRANCH  20  22
ENDBRANCH   1  15
TORSDOF 4
ENDMDL
MODEL 7
REMARK VINA RESULT:    -7.115      3.043      6.921
REMARK INTER + INTRA:          -9.677
REMARK INTER:                  -8.861
REMARK INTRA:                  -0.816
REMARK UNBOUND:                -0.897
REMARK  Name = 
REMARK  4 active torsions:
REMARK  status: ('A' for Active; 'I' for Inactive)
REMARK    1  A    between atoms: C_2  and  C_4
REMARK    2  A    between atoms: N_8  and  C_9
REMARK    3  A    between atoms: C_9  and  C_10
REMARK    4  A    between atoms: C_15  and  N_16
REMARK                            x       y       z     vdW  Elec       q    Type
REMARK                         _______ _______ _______ _____ _____    ______ ____
ROOT
ATOM      1  C   UNL     1      46.057   4.778  14.096  0.00  0.00    +0.000 C 
ENDROOT
BRANCH   1   6
ATOM      2  C   UNL     1      48.241   8.941  12.015  0.00  0.00    +0.000 A 
ATOM      3  C   UNL     1      47.083   8.855  12.778  0.00  0.00    +0.000 A 
ATOM      4  C   UNL     1      46.751   7.638  13.378  0.00  0.00    +0.000 A 
ATOM      5  C   UNL     1      47.571   6.529  13.194  0.00  0.00    +0.000 A 
ATOM      6  N   UNL     1      47.368   5.315  13.807  0.00  0.00    +0.000 N 
ATOM      7  N   UNL     1      48.688   6.600  12.444  0.00  0.00    +0.000 NA
ATOM      8  C   UNL     1      48.997   7.790  11.863  0.00  0.00    +0.000 A 
ATOM      9  H   UNL     1      48.056   4.649  13.468  0.00  0.00    +0.000 HD
BRANCH   2  11
ATOM     10  N   UNL     1      50.040  10.364  11.212  0.00  0.00    +0.000 N 
ATOM     11  C   UNL     1      48.692  10.188  11.365  0.00  0.00    +0.000 C 
ATOM     12  O   UNL     1      47.894  11.020  10.948  0.00  0.00    +0.000 OA
ATOM     13  H   UNL     1      50.327  11.169  10.671  0.00  0.00    +0.000 HD
ATOM     14  H   UNL     1      50.700   9.603  11.298  0.00  0.00    +0.000 HD
ENDBRANCH   2  11
ENDBRANCH   1   6
BRANCH   1  15
ATOM     15  C   UNL     1      45.131   4.646  12.907  0.00  0.00    +0.000 A 
ATOM     16  C   UNL     1      43.830   5.151  12.857  0.00  0.00    +0.000 A 
ATOM     17  C   UNL     1      43.081   5.014  11.692  0.00  0.00    +0.000 A 
ATOM     18  F   UNL     1      41.844   5.526  11.644  0.00  0.00    +0.000 F 
ATOM     19  C   UNL     1      43.604   4.389  10.564  0.00  0.00    +0.000 A 
ATOM     20  C   UNL     1      44.910   3.887  10.563  0.00  0.00    +0.000 A 
ATOM     21  C   UNL     1      45.645   4.013  11.753  0.00  0.00    +0.000 A 
BRANCH  20  22
ATOM     22  N   UNL     1      45.450   3.368   9.386  0.00  0.00    +0.000 N 
ATOM     23  C   UNL     1      45.119   1.990   9.012  0.00  0.00    +0.000 C 
ATOM     24  C   UNL     1      46.218   1.452   8.101  0.00  0.00    +0.000 C 
ATOM     25  C   UNL     1      46.406   2.346   6.877  0.00  0.00    +0.000 C 
ATOM     26  C   UNL     1      46.618   3.805   7.282  0.00  0.00    +0.000 C 
ATOM     27  C   UNL     1      45.539   4.298   8.251  0.00  0.00    +0.000 C 
ENDBRANCH  20  22
ENDBRANCH   1  15
TORSDOF 4
ENDMDL
MODEL 8
REMARK VINA RESULT:    -6.849      3.162      7.274
REMARK INTER + INTRA:          -9.348
REMARK INTER:                  -8.603
REMARK INTRA:                  -0.744
REMARK UNBOUND:                -0.897
REMARK  Name = 
REMARK  4 active torsions:
REMARK  status: ('A' for Active; 'I' for Inactive)
REMARK    1  A    between atoms: C_2  and  C_4
REMARK    2  A    between atoms: N_8  and  C_9
REMARK    3  A    between atoms: C_9  and  C_10
REMARK    4  A    between atoms: C_15  and  N_16
REMARK                            x       y       z     vdW  Elec       q    Type
REMARK                         _______ _______ _______ _____ _____    ______ ____
ROOT
ATOM      1  C   UNL     1      45.210   6.948  11.186  0.00  0.00    +0.000 C 
ENDROOT
BRANCH   1   6
ATOM      2  C   UNL     1      49.806   7.871  13.299  0.00  0.00    +0.000 A 
ATOM      3  C   UNL     1      49.337   8.233  12.042  0.00  0.00    +0.000 A 
ATOM      4  C   UNL     1      47.994   8.015  11.727  0.00  0.00    +0.000 A 
ATOM      5  C   UNL     1      47.150   7.428  12.663  0.00  0.00    +0.000 A 
ATOM      6  N   UNL     1      45.800   7.246  12.472  0.00  0.00    +0.000 N 
ATOM      7  N   UNL     1      47.599   7.060  13.880  0.00  0.00    +0.000 NA
ATOM      8  C   UNL     1      48.909   7.276  14.171  0.00  0.00    +0.000 A 
ATOM      9  H   UNL     1      45.413   6.742  13.265  0.00  0.00    +0.000 HD
BRANCH   2  11
ATOM     10  N   UNL     1      52.159   8.154  12.763  0.00  0.00    +0.000 N 
ATOM     11  C   UNL     1      51.200   8.088  13.736  0.00  0.00    +0.000 C 
ATOM     12  O   UNL     1      51.486   8.236  14.918  0.00  0.00    +0.000 OA
ATOM     13  H   UNL     1      53.089   8.409  13.069  0.00  0.00    +0.000 HD
ATOM     14  H   UNL     1      51.935   8.300  11.788  0.00  0.00    +0.000 HD
ENDBRANCH   2  11
ENDBRANCH   1   6
BRANCH   1  15
ATOM     15  C   UNL     1      44.915   5.486  10.929  0.00  0.00    +0.000 A 
ATOM     16  C   UNL     1      43.970   4.733  11.630  0.00  0.00    +0.000 A 
ATOM     17  C   UNL     1      43.746   3.407  11.277  0.00  0.00    +0.000 A 
ATOM     18  F   UNL     1      42.819   2.700  11.937  0.00  0.00    +0.000 F 
ATOM     19  C   UNL     1      44.439   2.809  10.228  0.00  0.00    +0.000 A 
ATOM     20  C   UNL     1      45.378   3.532   9.486  0.00  0.00    +0.000 A 
ATOM     21  C   UNL     1      45.610   4.863   9.869  0.00  0.00    +0.000 A 
BRANCH  20  22
ATOM     22  N   UNL     1      45.975   2.946   8.368  0.00  0.00    +0.000 N 
ATOM     23  C   UNL     1      45.940   1.486   8.240  0.00  0.00    +0.000 C 
ATOM     24  C   UNL     1      47.096   1.044   7.348  0.00  0.00    +0.000 C 
ATOM     25  C   UNL     1      47.038   1.738   5.989  0.00  0.00    +0.000 C 
ATOM     26  C   UNL     1      46.941   3.256   6.143  0.00  0.00    +0.000 C 
ATOM     27  C   UNL     1      45.816   3.668   7.098  0.00  0.00    +0.000 C 
ENDBRANCH  20  22
ENDBRANCH   1  15
TORSDOF 4
ENDMDL
MODEL 9
REMARK VINA RESULT:    -6.569      5.277      8.084
REMARK INTER + INTRA:          -9.002
REMARK INTER:                  -8.259
REMARK INTRA:                  -0.743
REMARK UNBOUND:                -0.897
REMARK  Name = 
REMARK  4 active torsions:
REMARK  status: ('A' for Active; 'I' for Inactive)
REMARK    1  A    between atoms: C_2  and  C_4
REMARK    2  A    between atoms: N_8  and  C_9
REMARK    3  A    between atoms: C_9  and  C_10
REMARK    4  A    between atoms: C_15  and  N_16
REMARK                            x       y       z     vdW  Elec       q    Type
REMARK                         _______ _______ _______ _____ _____    ______ ____
ROOT
ATOM      1  C   UNL     1      48.672   6.680  15.898  0.00  0.00    +0.000 C 
ENDROOT
BRANCH   1   6
ATOM      2  C   UNL     1      51.330   2.608  17.567  0.00  0.00    +0.000 A 
ATOM      3  C   UNL     1      51.675   3.953  17.617  0.00  0.00    +0.000 A 
ATOM      4  C   UNL     1      50.732   4.913  17.245  0.00  0.00    +0.000 A 
ATOM      5  C   UNL     1      49.470   4.514  16.817  0.00  0.00    +0.000 A 
ATOM      6  N   UNL     1      48.454   5.387  16.506  0.00  0.00    +0.000 N 
ATOM      7  N   UNL     1      49.131   3.211  16.751  0.00  0.00    +0.000 NA
ATOM      8  C   UNL     1      50.061   2.288  17.113  0.00  0.00    +0.000 A 
ATOM      9  H   UNL     1      47.656   4.863  16.159  0.00  0.00    +0.000 HD
BRANCH   2  11
ATOM     10  N   UNL     1      51.724   0.259  18.049  0.00  0.00    +0.000 N 
ATOM     11  C   UNL     1      52.247   1.521  17.967  0.00  0.00    +0.000 C 
ATOM     12  O   UNL     1      53.434   1.730  18.185  0.00  0.00    +0.000 OA
ATOM     13  H   UNL     1      52.386  -0.488  18.219  0.00  0.00    +0.000 HD
ATOM     14  H   UNL     1      50.839   0.009  17.630  0.00  0.00    +0.000 HD
ENDBRANCH   2  11
ENDBRANCH   1   6
BRANCH   1  15
ATOM     15  C   UNL     1      48.333   6.774  14.426  0.00  0.00    +0.000 A 
ATOM     16  C   UNL     1      49.102   7.452  13.478  0.00  0.00    +0.000 A 
ATOM     17  C   UNL     1      48.721   7.433  12.140  0.00  0.00    +0.000 A 
ATOM     18  F   UNL     1      49.479   8.063  11.233  0.00  0.00    +0.000 F 
ATOM     19  C   UNL     1      47.588   6.742  11.719  0.00  0.00    +0.000 A 
ATOM     20  C   UNL     1      46.801   6.032  12.632  0.00  0.00    +0.000 A 
ATOM     21  C   UNL     1      47.186   6.079  13.981  0.00  0.00    +0.000 A 
BRANCH  20  22
ATOM     22  N   UNL     1      45.738   5.255  12.170  0.00  0.00    +0.000 N 
ATOM     23  C   UNL     1      44.625   4.977  13.084  0.00  0.00    +0.000 C 
ATOM     24  C   UNL     1      43.926   3.699  12.630  0.00  0.00    +0.000 C 
ATOM     25  C   UNL     1      43.460   3.811  11.180  0.00  0.00    +0.000 C 
ATOM     26  C   UNL     1      44.605   4.232  10.259  0.00  0.00    +0.000 C 
ATOM     27  C   UNL     1      45.333   5.477  10.775  0.00  0.00    +0.000 C 
ENDBRANCH  20  22
ENDBRANCH   1  15
TORSDOF 4
ENDMDL
