MODEL 1
REMARK VINA RESULT:    -9.047      0.000      0.000
REMARK INTER + INTRA:         -13.603
REMARK INTER:                 -12.749
REMARK INTRA:                  -0.854
REMARK UNBOUND:                -0.854
REMARK  Name = 
REMARK  7 active torsions:
REMARK  status: ('A' for Active; 'I' for Inactive)
REMARK    1  A    between atoms: C_2  and  C_4
REMARK    2  A    between atoms: C_7  and  N_8
REMARK    3  A    between atoms: N_8  and  C_9
REMARK    4  A    between atoms: C_9  and  C_10
REMARK    5  A    between atoms: C_10  and  C_13
REMARK    6  A    between atoms: C_17  and  N_18
REMARK    7  A    between atoms: N_18  and  C_19
REMARK                            x       y       z     vdW  Elec       q    Type
REMARK                         _______ _______ _______ _____ _____    ______ ____
ROOT
ATOM      1  C   UNL     1      43.486   5.630  12.215  0.00  0.00    +0.000 C 
ATOM      2  F   UNL     1      43.133   6.809  11.620  0.00  0.00    +0.000 F 
ATOM      3  F   UNL     1      42.609   5.482  13.257  0.00  0.00    +0.000 F 
ENDROOT
BRANCH   1   4
ATOM      4  C   UNL     1      44.928   5.654  12.687  0.00  0.00    +0.000 A 
ATOM      5  C   UNL     1      45.834   6.590  12.171  0.00  0.00    +0.000 A 
ATOM      6  C   UNL     1      47.159   6.600  12.605  0.00  0.00    +0.000 A 
ATOM      7  C   UNL     1      47.598   5.666  13.549  0.00  0.00    +0.000 A 
ATOM      8  C   UNL     1      46.716   4.722  14.077  0.00  0.00    +0.000 A 
ATOM      9  C   UNL     1      45.382   4.731  13.645  0.00  0.00    +0.000 A 
BRANCH   8  10
ATOM     10  N   UNL     1      47.091   3.774  15.052  0.00  0.00    +0.000 N 
ATOM     11  H   UNL     1      46.303   3.151  15.236  0.00  0.00    +0.000 HD
BRANCH  10  12
ATOM     12  C   UNL     1      47.871   4.037  16.235  0.00  0.00    +0.000 C 
ATOM     13  C   UNL     1      48.213   2.744  17.007  0.00  0.00    +0.000 C 
ATOM     14  N   UNL     1      47.765   3.377  18.260  0.00  0.00    +0.000 NA
ATOM     15  C   UNL     1      47.081   4.437  17.494  0.00  0.00    +0.000 C 
ATOM     16  H   UNL     1      48.535   3.719  18.836  0.00  0.00    +0.000 HD
ENDBRANCH  10  12
ENDBRANCH   8  10
ENDBRANCH   1   4
BRANCH   1  17
ATOM     17  C   UNL     1      43.242   4.467  11.217  0.00  0.00    +0.000 C 
BRANCH  17  18
ATOM     18  N   UNL     1      43.705   4.779   9.850  0.00  0.00    +0.000 N 
ATOM     19  H   UNL     1      43.014   5.259   9.275  0.00  0.00    +0.000 HD
BRANCH  18  23
ATOM     20  C   UNL     1      46.383   2.261   7.783  0.00  0.00    +0.000 A 
ATOM     21  C   UNL     1      45.467   1.705   8.677  0.00  0.00    +0.000 A 
ATOM     22  C   UNL     1      44.561   2.527   9.357  0.00  0.00    +0.000 A 
ATOM     23  C   UNL     1      44.527   3.910   9.142  0.00  0.00    +0.000 A 
ATOM     24  C   UNL     1      45.475   4.455   8.264  0.00  0.00    +0.000 A 
ATOM     25  C   UNL     1      46.400   3.643   7.592  0.00  0.00    +0.000 A 
BRANCH  20  27
ATOM     26  N   UNL     1      48.468   2.071   6.539  0.00  0.00    +0.000 N 
ATOM     27  C   UNL     1      47.376   1.427   7.060  0.00  0.00    +0.000 C 
ATOM     28  O   UNL     1      47.258   0.216   6.964  0.00  0.00    +0.000 OA
ATOM     29  H   UNL     1      49.190   1.477   6.146  0.00  0.00    +0.000 HD
ATOM     30  H   UNL     1      48.729   3.006   6.820  0.00  0.00    +0.000 HD
ENDBRANCH  20  27
ENDBRANCH  18  23
ENDBRANCH  17  18
ENDBRANCH   1  17
TORSDOF 7
ENDMDL
MODEL 2
REMARK VINA RESULT:    -8.523      2.788      4.462
REMARK INTER + INTRA:         -12.865
REMARK INTER:                 -12.104
REMARK INTRA:                  -0.761
REMARK UNBOUND:                -0.854
REMARK  Name = 
REMARK  7 active torsions:
REMARK  status: ('A' for Active; 'I' for Inactive)
REMARK    1  A    between atoms: C_2  and  C_4
REMARK    2  A    between atoms: C_7  and  N_8
REMARK    3  A    between atoms: N_8  and  C_9
REMARK    4  A    between atoms: C_9  and  C_10
REMARK    5  A    between atoms: C_10  and  C_13
REMARK    6  A    between atoms: C_17  and  N_18
REMARK    7  A    between atoms: N_18  and  C_19
REMARK                            x       y       z     vdW  Elec       q    Type
REMARK                         _______ _______ _______ _____ _____    ______ ____
ROOT
ATOM      1  C   UNL     1      43.958   4.105  12.572  0.00  0.00    +0.000 C 
ATOM      2  F   UNL     1      43.131   4.074  13.661  0.00  0.00    +0.000 F 
ATOM      3  F   UNL     1      44.584   2.887  12.568  0.00  0.00    +0.000 F 
ENDROOT
BRANCH   1   4
ATOM      4  C   UNL     1      44.948   5.252  12.658  0.00  0.00    +0.000 A 
ATOM      5  C   UNL     1      46.314   5.005  12.845  0.00  0.00    +0.000 A 
ATOM      6  C   UNL     1      47.215   6.066  12.929  0.00  0.00    +0.000 A 
ATOM      7  C   UNL     1      46.761   7.385  12.842  0.00  0.00    +0.000 A 
ATOM      8  C   UNL     1      45.404   7.658  12.658  0.00  0.00    +0.000 A 
ATOM      9  C   UNL     1      44.509   6.583  12.559  0.00  0.00    +0.000 A 
BRANCH   8  10
ATOM     10  N   UNL     1      44.889   8.965  12.534  0.00  0.00    +0.000 N 
ATOM     11  H   UNL     1      44.118   9.087  13.194  0.00  0.00    +0.000 HD
BRANCH  10  12
ATOM     12  C   UNL     1      44.674   9.680  11.301  0.00  0.00    +0.000 C 
ATOM     13  C   UNL     1      44.609  11.207  11.517  0.00  0.00    +0.000 C 
ATOM     14  N   UNL     1      43.377  11.265  10.711  0.00  0.00    +0.000 NA
ATOM     15  C   UNL     1      43.214   9.804  10.835  0.00  0.00    +0.000 C 
ATOM     16  H   UNL     1      43.536  11.581   9.754  0.00  0.00    +0.000 HD
ENDBRANCH  10  12
ENDBRANCH   8  10
ENDBRANCH   1   4
BRANCH   1  17
ATOM     17  C   UNL     1      43.095   4.204  11.286  0.00  0.00    +0.000 C 
BRANCH  17  18
ATOM     18  N   UNL     1      43.837   4.765  10.140  0.00  0.00    +0.000 N 
ATOM     19  H   UNL     1      43.342   5.508   9.646  0.00  0.00    +0.000 HD
BRANCH  18  23
ATOM     20  C   UNL     1      46.419   2.455   7.737  0.00  0.00    +0.000 A 
ATOM     21  C   UNL     1      45.540   1.816   8.613  0.00  0.00    +0.000 A 
ATOM     22  C   UNL     1      44.666   2.571   9.405  0.00  0.00    +0.000 A 
ATOM     23  C   UNL     1      44.626   3.968   9.320  0.00  0.00    +0.000 A 
ATOM     24  C   UNL     1      45.537   4.593   8.456  0.00  0.00    +0.000 A 
ATOM     25  C   UNL     1      46.431   3.849   7.674  0.00  0.00    +0.000 A 
BRANCH  20  27
ATOM     26  N   UNL     1      48.472   2.374   6.429  0.00  0.00    +0.000 N 
ATOM     27  C   UNL     1      47.379   1.693   6.898  0.00  0.00    +0.000 C 
ATOM     28  O   UNL     1      47.234   0.504   6.665  0.00  0.00    +0.000 OA
ATOM     29  H   UNL     1      49.173   1.818   5.953  0.00  0.00    +0.000 HD
ATOM     30  H   UNL     1      48.758   3.265   6.811  0.00  0.00    +0.000 HD
ENDBRANCH  20  27
ENDBRANCH  18  23
ENDBRANCH  17  18
ENDBRANCH   1  17
TORSDOF 7
ENDMDL
MODEL 3
REMARK VINA RESULT:    -8.011      2.662      3.305
REMARK INTER + INTRA:         -12.143
REMARK INTER:                 -11.126
REMARK INTRA:                  -1.016
REMARK UNBOUND:                -0.854
REMARK  Name = 
REMARK  7 active torsions:
REMARK  status: ('A' for Active; 'I' for Inactive)
REMARK    1  A    between atoms: C_2  and  C_4
REMARK    2  A    between atoms: C_7  and  N_8
REMARK    3  A    between atoms: N_8  and  C_9
REMARK    4  A    between atoms: C_9  and  C_10
REMARK    5  A    between atoms: C_10  and  C_13
REMARK    6  A    between atoms: C_17  and  N_18
REMARK    7  A    between atoms: N_18  and  C_19
REMARK                            x       y       z     vdW  Elec       q    Type
REMARK                         _______ _______ _______ _____ _____    ______ ____
ROOT
ATOM      1  C   UNL     1      43.926   4.437  12.492  0.00  0.00    +0.000 C 
ATOM      2  F   UNL     1      43.089   4.313  13.566  0.00  0.00    +0.000 F 
ATOM      3  F   UNL     1      44.986   3.614  12.771  0.00  0.00    +0.000 F 
ENDROOT
BRANCH   1   4
ATOM      4  C   UNL     1      44.364   5.876  12.291  0.00  0.00    +0.000 A 
ATOM      5  C   UNL     1      43.784   6.667  11.290  0.00  0.00    +0.000 A 
ATOM      6  C   UNL     1      44.198   7.986  11.109  0.00  0.00    +0.000 A 
ATOM      7  C   UNL     1      45.204   8.526  11.915  0.00  0.00    +0.000 A 
ATOM      8  C   UNL     1      45.799   7.759  12.917  0.00  0.00    +0.000 A 
ATOM      9  C   UNL     1      45.365   6.439  13.101  0.00  0.00    +0.000 A 
BRANCH   8  10
ATOM     10  N   UNL     1      46.798   8.256  13.781  0.00  0.00    +0.000 N 
ATOM     11  H   UNL     1      46.502   9.162  14.151  0.00  0.00    +0.000 HD
BRANCH  10  12
ATOM     12  C   UNL     1      48.221   8.190  13.561  0.00  0.00    +0.000 C 
ATOM     13  C   UNL     1      48.570   7.603  12.176  0.00  0.00    +0.000 C 
ATOM     14  N   UNL     1      49.539   6.692  12.810  0.00  0.00    +0.000 NA
ATOM     15  C   UNL     1      48.939   6.955  14.133  0.00  0.00    +0.000 C 
ATOM     16  H   UNL     1      50.505   7.010  12.728  0.00  0.00    +0.000 HD
ENDBRANCH  10  12
ENDBRANCH   8  10
ENDBRANCH   1   4
BRANCH   1  17
ATOM     17  C   UNL     1      43.213   3.887  11.229  0.00  0.00    +0.000 C 
BRANCH  17  18
ATOM     18  N   UNL     1      43.876   2.691  10.671  0.00  0.00    +0.000 N 
ATOM     19  H   UNL     1      44.124   1.989  11.366  0.00  0.00    +0.000 HD
BRANCH  18  23
ATOM     20  C   UNL     1      46.456   2.817   7.337  0.00  0.00    +0.000 A 
ATOM     21  C   UNL     1      45.922   4.006   7.840  0.00  0.00    +0.000 A 
ATOM     22  C   UNL     1      45.077   3.980   8.956  0.00  0.00    +0.000 A 
ATOM     23  C   UNL     1      44.771   2.781   9.612  0.00  0.00    +0.000 A 
ATOM     24  C   UNL     1      45.292   1.595   9.075  0.00  0.00    +0.000 A 
ATOM     25  C   UNL     1      46.123   1.606   7.946  0.00  0.00    +0.000 A 
BRANCH  20  27
ATOM     26  N   UNL     1      48.656   2.491   6.346  0.00  0.00    +0.000 N 
ATOM     27  C   UNL     1      47.335   2.799   6.142  0.00  0.00    +0.000 C 
ATOM     28  O   UNL     1      46.906   3.006   5.019  0.00  0.00    +0.000 OA
ATOM     29  H   UNL     1      49.219   2.374   5.511  0.00  0.00    +0.000 HD
ATOM     30  H   UNL     1      48.985   2.064   7.200  0.00  0.00    +0.000 HD
ENDBRANCH  20  27
ENDBRANCH  18  23
ENDBRANCH  17  18
ENDBRANCH   1  17
TORSDOF 7
ENDMDL
MODEL 4
REMARK VINA RESULT:    -7.822      2.278      3.719
REMARK INTER + INTRA:         -11.876
REMARK INTER:                 -10.994
REMARK INTRA:                  -0.883
REMARK UNBOUND:                -0.854
REMARK  Name = 
REMARK  7 active torsions:
REMARK  status: ('A' for Active; 'I' for Inactive)
REMARK    1  A    between atoms: C_2  and  C_4
REMARK    2  A    between atoms: C_7  and  N_8
REMARK    3  A    between atoms: N_8  and  C_9
REMARK    4  A    between atoms: C_9  and  C_10
REMARK    5  A    between atoms: C_10  and  C_13
REMARK    6  A    between atoms: C_17  and  N_18
REMARK    7  A    between atoms: N_18  and  C_19
REMARK                            x       y       z     vdW  Elec       q    Type
REMARK                         _______ _______ _______ _____ _____    ______ ____
ROOT
ATOM      1  C   UNL     1      43.569   5.148  12.301  0.00  0.00    +0.000 C 
ATOM      2  F   UNL     1      43.082   6.100  11.448  0.00  0.00    +0.000 F 
ATOM      3  F   UNL     1      42.674   5.109  13.337  0.00  0.00    +0.000 F 
ENDROOT
BRANCH   1   4
ATOM      4  C   UNL     1      44.970   5.488  12.773  0.00  0.00    +0.000 A 
ATOM      5  C   UNL     1      45.780   4.513  13.370  0.00  0.00    +0.000 A 
ATOM      6  C   UNL     1      47.064   4.837  13.808  0.00  0.00    +0.000 A 
ATOM      7  C   UNL     1      47.547   6.141  13.669  0.00  0.00    +0.000 A 
ATOM      8  C   UNL     1      46.759   7.132  13.081  0.00  0.00    +0.000 A 
ATOM      9  C   UNL     1      45.476   6.791  12.630  0.00  0.00    +0.000 A 
BRANCH   8  10
ATOM     10  N   UNL     1      47.201   8.457  12.886  0.00  0.00    +0.000 N 
ATOM     11  H   UNL     1      46.641   8.894  12.150  0.00  0.00    +0.000 HD
BRANCH  10  12
ATOM     12  C   UNL     1      48.572   8.902  12.870  0.00  0.00    +0.000 C 
ATOM     13  C   UNL     1      48.698  10.391  12.481  0.00  0.00    +0.000 C 
ATOM     14  N   UNL     1      49.747  10.044  11.506  0.00  0.00    +0.000 NA
ATOM     15  C   UNL     1      49.361   8.621  11.580  0.00  0.00    +0.000 C 
ATOM     16  H   UNL     1      50.690  10.231  11.846  0.00  0.00    +0.000 HD
ENDBRANCH  10  12
ENDBRANCH   8  10
ENDBRANCH   1   4
BRANCH   1  17
ATOM     17  C   UNL     1      43.536   3.769  11.589  0.00  0.00    +0.000 C 
BRANCH  17  18
ATOM     18  N   UNL     1      43.476   3.884  10.118  0.00  0.00    +0.000 N 
ATOM     19  H   UNL     1      42.565   3.661   9.720  0.00  0.00    +0.000 HD
BRANCH  18  23
ATOM     20  C   UNL     1      46.594   2.645   7.565  0.00  0.00    +0.000 A 
ATOM     21  C   UNL     1      46.259   3.998   7.634  0.00  0.00    +0.000 A 
ATOM     22  C   UNL     1      45.236   4.425   8.490  0.00  0.00    +0.000 A 
ATOM     23  C   UNL     1      44.550   3.525   9.313  0.00  0.00    +0.000 A 
ATOM     24  C   UNL     1      44.880   2.166   9.208  0.00  0.00    +0.000 A 
ATOM     25  C   UNL     1      45.888   1.724   8.340  0.00  0.00    +0.000 A 
BRANCH  20  27
ATOM     26  N   UNL     1      47.986   2.947   5.589  0.00  0.00    +0.000 N 
ATOM     27  C   UNL     1      47.655   2.148   6.653  0.00  0.00    +0.000 C 
ATOM     28  O   UNL     1      48.242   1.097   6.853  0.00  0.00    +0.000 OA
ATOM     29  H   UNL     1      48.784   2.650   5.040  0.00  0.00    +0.000 HD
ATOM     30  H   UNL     1      47.717   3.920   5.541  0.00  0.00    +0.000 HD
ENDBRANCH  20  27
ENDBRANCH  18  23
ENDBRANCH  17  18
ENDBRANCH   1  17
TORSDOF 7
ENDMDL
MODEL 5
REMARK VINA RESULT:    -7.114      2.513      7.668
REMARK INTER + INTRA:         -10.879
REMARK INTER:                 -10.020
REMARK INTRA:                  -0.859
REMARK UNBOUND:                -0.854
REMARK  Name = 
REMARK  7 active torsions:
REMARK  status: ('A' for Active; 'I' for Inactive)
REMARK    1  A    between atoms: C_2  and  C_4
REMARK    2  A    between atoms: C_7  and  N_8
REMARK    3  A    between atoms: N_8  and  C_9
REMARK    4  A    between atoms: C_9  and  C_10
REMARK    5  A    between atoms: C_10  and  C_13
REMARK    6  A    between atoms: C_17  and  N_18
REMARK    7  A    between atoms: N_18  and  C_19
REMARK                            x       y       z     vdW  Elec       q    Type
REMARK                         _______ _______ _______ _____ _____    ______ ____
ROOT
ATOM      1  C   UNL     1      45.205   6.235  11.561  0.00  0.00    +0.000 C 
ATOM      2  F   UNL     1      44.391   6.191  12.658  0.00  0.00    +0.000 F 
ATOM      3  F   UNL     1      44.851   7.382  10.901  0.00  0.00    +0.000 F 
ENDROOT
BRANCH   1   4
ATOM      4  C   UNL     1      45.033   5.004  10.690  0.00  0.00    +0.000 A 
ATOM      5  C   UNL     1      44.217   3.943  11.105  0.00  0.00    +0.000 A 
ATOM      6  C   UNL     1      44.070   2.813  10.302  0.00  0.00    +0.000 A 
ATOM      7  C   UNL     1      44.748   2.723   9.082  0.00  0.00    +0.000 A 
ATOM      8  C   UNL     1      45.568   3.765   8.647  0.00  0.00    +0.000 A 
ATOM      9  C   UNL     1      45.696   4.903   9.456  0.00  0.00    +0.000 A 
BRANCH   8  10
ATOM     10  N   UNL     1      46.253   3.746   7.414  0.00  0.00    +0.000 N 
ATOM     11  H   UNL     1      45.919   4.517   6.832  0.00  0.00    +0.000 HD
BRANCH  10  12
ATOM     12  C   UNL     1      46.578   2.574   6.641  0.00  0.00    +0.000 C 
ATOM     13  C   UNL     1      47.992   2.040   6.956  0.00  0.00    +0.000 C 
ATOM     14  N   UNL     1      48.282   1.964   5.514  0.00  0.00    +0.000 NA
ATOM     15  C   UNL     1      47.119   2.825   5.223  0.00  0.00    +0.000 C 
ATOM     16  H   UNL     1      48.197   1.020   5.135  0.00  0.00    +0.000 HD
ENDBRANCH  10  12
ENDBRANCH   8  10
ENDBRANCH   1   4
BRANCH   1  17
ATOM     17  C   UNL     1      46.677   6.388  12.029  0.00  0.00    +0.000 C 
BRANCH  17  18
ATOM     18  N   UNL     1      46.789   6.754  13.456  0.00  0.00    +0.000 N 
ATOM     19  H   UNL     1      47.089   7.715  13.618  0.00  0.00    +0.000 HD
BRANCH  18  23
ATOM     20  C   UNL     1      48.259   3.881  16.170  0.00  0.00    +0.000 A 
ATOM     21  C   UNL     1      48.648   5.215  16.303  0.00  0.00    +0.000 A 
ATOM     22  C   UNL     1      48.155   6.182  15.418  0.00  0.00    +0.000 A 
ATOM     23  C   UNL     1      47.245   5.850  14.407  0.00  0.00    +0.000 A 
ATOM     24  C   UNL     1      46.889   4.500  14.270  0.00  0.00    +0.000 A 
ATOM     25  C   UNL     1      47.392   3.520  15.137  0.00  0.00    +0.000 A 
BRANCH  20  27
ATOM     26  N   UNL     1      48.637   3.028  18.419  0.00  0.00    +0.000 N 
ATOM     27  C   UNL     1      48.778   2.822  17.071  0.00  0.00    +0.000 C 
ATOM     28  O   UNL     1      49.271   1.791  16.643  0.00  0.00    +0.000 OA
ATOM     29  H   UNL     1      48.893   2.251  19.017  0.00  0.00    +0.000 HD
ATOM     30  H   UNL     1      48.011   3.725  18.796  0.00  0.00    +0.000 HD
ENDBRANCH  20  27
ENDBRANCH  18  23
ENDBRANCH  17  18
ENDBRANCH   1  17
TORSDOF 7
ENDMDL
MODEL 6
REMARK VINA RESULT:    -6.817      3.650      7.376
REMARK INTER + INTRA:         -10.460
REMARK INTER:                  -9.742
REMARK INTRA:                  -0.718
REMARK UNBOUND:                -0.854
REMARK  Name = 
REMARK  7 active torsions:
REMARK  status: ('A' for Active; 'I' for Inactive)
REMARK    1  A    between atoms: C_2  and  C_4
REMARK    2  A    between atoms: C_7  and  N_8
REMARK    3  A    between atoms: N_8  and  C_9
REMARK    4  A    between atoms: C_9  and  C_10
REMARK    5  A    between atoms: C_10  and  C_13
REMARK    6  A    between atoms: C_17  and  N_18
REMARK    7  A    between atoms: N_18  and  C_19
REMARK                            x       y       z     vdW  Elec       q    Type
REMARK                         _______ _______ _______ _____ _____    ______ ____
ROOT
ATOM      1  C   UNL     1      43.941   5.795  11.378  0.00  0.00    +0.000 C 
ATOM      2  F   UNL     1      43.871   5.557  12.723  0.00  0.00    +0.000 F 
ATOM      3  F   UNL     1      42.712   6.297  11.042  0.00  0.00    +0.000 F 
ENDROOT
BRANCH   1   4
ATOM      4  C   UNL     1      44.269   4.532  10.605  0.00  0.00    +0.000 A 
ATOM      5  C   UNL     1      43.785   3.287  11.030  0.00  0.00    +0.000 A 
ATOM      6  C   UNL     1      44.098   2.131  10.317  0.00  0.00    +0.000 A 
ATOM      7  C   UNL     1      44.908   2.201   9.180  0.00  0.00    +0.000 A 
ATOM      8  C   UNL     1      45.404   3.428   8.737  0.00  0.00    +0.000 A 
ATOM      9  C   UNL     1      45.071   4.587   9.453  0.00  0.00    +0.000 A 
BRANCH   8  10
ATOM     10  N   UNL     1      46.202   3.568   7.582  0.00  0.00    +0.000 N 
ATOM     11  H   UNL     1      45.957   4.440   7.107  0.00  0.00    +0.000 HD
BRANCH  10  12
ATOM     12  C   UNL     1      46.549   2.518   6.657  0.00  0.00    +0.000 C 
ATOM     13  C   UNL     1      47.906   1.866   6.997  0.00  0.00    +0.000 C 
ATOM     14  N   UNL     1      48.322   2.004   5.591  0.00  0.00    +0.000 NA
ATOM     15  C   UNL     1      47.226   2.963   5.349  0.00  0.00    +0.000 C 
ATOM     16  H   UNL     1      48.235   1.139   5.057  0.00  0.00    +0.000 HD
ENDBRANCH  10  12
ENDBRANCH   8  10
ENDBRANCH   1   4
BRANCH   1  17
ATOM     17  C   UNL     1      44.997   6.902  11.116  0.00  0.00    +0.000 C 
BRANCH  17  18
ATOM     18  N   UNL     1      45.667   7.359  12.350  0.00  0.00    +0.000 N 
ATOM     19  H   UNL     1      45.077   7.920  12.963  0.00  0.00    +0.000 HD
BRANCH  18  23
ATOM     20  C   UNL     1      49.771   8.321  12.214  0.00  0.00    +0.000 A 
ATOM     21  C   UNL     1      48.822   9.320  11.987  0.00  0.00    +0.000 A 
ATOM     22  C   UNL     1      47.456   9.017  12.045  0.00  0.00    +0.000 A 
ATOM     23  C   UNL     1      47.006   7.729  12.359  0.00  0.00    +0.000 A 
ATOM     24  C   UNL     1      47.973   6.732  12.554  0.00  0.00    +0.000 A 
ATOM     25  C   UNL     1      49.344   7.019  12.478  0.00  0.00    +0.000 A 
BRANCH  20  27
ATOM     26  N   UNL     1      52.009   8.089  13.144  0.00  0.00    +0.000 N 
ATOM     27  C   UNL     1      51.228   8.594  12.137  0.00  0.00    +0.000 C 
ATOM     28  O   UNL     1      51.724   9.203  11.204  0.00  0.00    +0.000 OA
ATOM     29  H   UNL     1      53.011   8.188  13.022  0.00  0.00    +0.000 HD
ATOM     30  H   UNL     1      51.680   7.373  13.775  0.00  0.00    +0.000 HD
ENDBRANCH  20  27
ENDBRANCH  18  23
ENDBRANCH  17  18
ENDBRANCH   1  17
TORSDOF 7
ENDMDL
MODEL 7
REMARK VINA RESULT:    -6.791      2.618      3.483
REMARK INTER + INTRA:         -10.423
REMARK INTER:                  -9.764
REMARK INTRA:                  -0.659
REMARK UNBOUND:                -0.854
REMARK  Name = 
REMARK  7 active torsions:
REMARK  status: ('A' for Active; 'I' for Inactive)
REMARK    1  A    between atoms: C_2  and  C_4
REMARK    2  A    between atoms: C_7  and  N_8
REMARK    3  A    between atoms: N_8  and  C_9
REMARK    4  A    between atoms: C_9  and  C_10
REMARK    5  A    between atoms: C_10  and  C_13
REMARK    6  A    between atoms: C_17  and  N_18
REMARK    7  A    between atoms: N_18  and  C_19
REMARK                            x       y       z     vdW  Elec       q    Type
REMARK                         _______ _______ _______ _____ _____    ______ ____
ROOT
ATOM      1  C   UNL     1      45.840   5.585  12.468  0.00  0.00    +0.000 C 
ATOM      2  F   UNL     1      46.570   5.996  11.388  0.00  0.00    +0.000 F 
ATOM      3  F   UNL     1      44.864   6.535  12.620  0.00  0.00    +0.000 F 
ENDROOT
BRANCH   1   4
ATOM      4  C   UNL     1      46.705   5.457  13.708  0.00  0.00    +0.000 A 
ATOM      5  C   UNL     1      46.511   4.403  14.611  0.00  0.00    +0.000 A 
ATOM      6  C   UNL     1      47.307   4.298  15.751  0.00  0.00    +0.000 A 
ATOM      7  C   UNL     1      48.294   5.253  16.011  0.00  0.00    +0.000 A 
ATOM      8  C   UNL     1      48.506   6.314  15.130  0.00  0.00    +0.000 A 
ATOM      9  C   UNL     1      47.711   6.400  13.978  0.00  0.00    +0.000 A 
BRANCH   8  10
ATOM     10  N   UNL     1      49.505   7.291  15.322  0.00  0.00    +0.000 N 
ATOM     11  H   UNL     1      49.652   7.429  16.324  0.00  0.00    +0.000 HD
BRANCH  10  12
ATOM     12  C   UNL     1      49.654   8.512  14.571  0.00  0.00    +0.000 C 
ATOM     13  C   UNL     1      50.877   8.472  13.629  0.00  0.00    +0.000 C 
ATOM     14  N   UNL     1      51.302   9.791  14.128  0.00  0.00    +0.000 NA
ATOM     15  C   UNL     1      50.391   9.660  15.283  0.00  0.00    +0.000 C 
ATOM     16  H   UNL     1      51.060  10.557  13.500  0.00  0.00    +0.000 HD
ENDBRANCH  10  12
ENDBRANCH   8  10
ENDBRANCH   1   4
BRANCH   1  17
ATOM     17  C   UNL     1      45.147   4.239  12.127  0.00  0.00    +0.000 C 
BRANCH  17  18
ATOM     18  N   UNL     1      44.477   4.256  10.811  0.00  0.00    +0.000 N 
ATOM     19  H   UNL     1      43.468   4.117  10.855  0.00  0.00    +0.000 HD
BRANCH  18  23
ATOM     20  C   UNL     1      46.489   2.729   7.434  0.00  0.00    +0.000 A 
ATOM     21  C   UNL     1      45.920   1.846   8.354  0.00  0.00    +0.000 A 
ATOM     22  C   UNL     1      45.235   2.340   9.471  0.00  0.00    +0.000 A 
ATOM     23  C   UNL     1      45.076   3.715   9.680  0.00  0.00    +0.000 A 
ATOM     24  C   UNL     1      45.680   4.586   8.762  0.00  0.00    +0.000 A 
ATOM     25  C   UNL     1      46.385   4.103   7.651  0.00  0.00    +0.000 A 
BRANCH  20  27
ATOM     26  N   UNL     1      47.168   3.006   5.112  0.00  0.00    +0.000 N 
ATOM     27  C   UNL     1      47.243   2.246   6.251  0.00  0.00    +0.000 C 
ATOM     28  O   UNL     1      47.937   1.243   6.290  0.00  0.00    +0.000 OA
ATOM     29  H   UNL     1      47.773   2.726   4.349  0.00  0.00    +0.000 HD
ATOM     30  H   UNL     1      46.829   3.958   5.120  0.00  0.00    +0.000 HD
ENDBRANCH  20  27
ENDBRANCH  18  23
ENDBRANCH  17  18
ENDBRANCH   1  17
TORSDOF 7
ENDMDL
MODEL 8
REMARK VINA RESULT:    -6.476      3.368      7.954
REMARK INTER + INTRA:          -9.980
REMARK INTER:                  -9.482
REMARK INTRA:                  -0.497
REMARK UNBOUND:                -0.854
REMARK  Name = 
REMARK  7 active torsions:
REMARK  status: ('A' for Active; 'I' for Inactive)
REMARK    1  A    between atoms: C_2  and  C_4
REMARK    2  A    between atoms: C_7  and  N_8
REMARK    3  A    between atoms: N_8  and  C_9
REMARK    4  A    between atoms: C_9  and  C_10
REMARK    5  A    between atoms: C_10  and  C_13
REMARK    6  A    between atoms: C_17  and  N_18
REMARK    7  A    between atoms: N_18  and  C_19
REMARK                            x       y       z     vdW  Elec       q    Type
REMARK                         _______ _______ _______ _____ _____    ______ ____
ROOT
ATOM      1  C   UNL     1      46.164   6.867  12.222  0.00  0.00    +0.000 C 
ATOM      2  F   UNL     1      45.543   8.075  12.059  0.00  0.00    +0.000 F 
ATOM      3  F   UNL     1      47.096   6.811  11.219  0.00  0.00    +0.000 F 
ENDROOT
BRANCH   1   4
ATOM      4  C   UNL     1      45.177   5.718  12.144  0.00  0.00    +0.000 A 
ATOM      5  C   UNL     1      44.013   5.721  12.923  0.00  0.00    +0.000 A 
ATOM      6  C   UNL     1      43.115   4.657  12.850  0.00  0.00    +0.000 A 
ATOM      7  C   UNL     1      43.376   3.571  12.009  0.00  0.00    +0.000 A 
ATOM      8  C   UNL     1      44.530   3.543  11.224  0.00  0.00    +0.000 A 
ATOM      9  C   UNL     1      45.418   4.625  11.293  0.00  0.00    +0.000 A 
BRANCH   8  10
ATOM     10  N   UNL     1      44.834   2.491  10.335  0.00  0.00    +0.000 N 
ATOM     11  H   UNL     1      45.704   2.042  10.630  0.00  0.00    +0.000 HD
BRANCH  10  12
ATOM     12  C   UNL     1      44.691   2.522   8.901  0.00  0.00    +0.000 C 
ATOM     13  C   UNL     1      46.049   2.396   8.176  0.00  0.00    +0.000 C 
ATOM     14  N   UNL     1      45.701   3.551   7.330  0.00  0.00    +0.000 NA
ATOM     15  C   UNL     1      44.613   3.917   8.257  0.00  0.00    +0.000 C 
ATOM     16  H   UNL     1      45.375   3.286   6.400  0.00  0.00    +0.000 HD
ENDBRANCH  10  12
ENDBRANCH   8  10
ENDBRANCH   1   4
BRANCH   1  17
ATOM     17  C   UNL     1      46.920   6.866  13.577  0.00  0.00    +0.000 C 
BRANCH  17  18
ATOM     18  N   UNL     1      47.510   5.553  13.904  0.00  0.00    +0.000 N 
ATOM     19  H   UNL     1      47.123   4.777  13.368  0.00  0.00    +0.000 HD
BRANCH  18  23
ATOM     20  C   UNL     1      48.521   4.741  17.917  0.00  0.00    +0.000 A 
ATOM     21  C   UNL     1      47.752   3.820  17.201  0.00  0.00    +0.000 A 
ATOM     22  C   UNL     1      47.423   4.070  15.863  0.00  0.00    +0.000 A 
ATOM     23  C   UNL     1      47.874   5.219  15.202  0.00  0.00    +0.000 A 
ATOM     24  C   UNL     1      48.619   6.146  15.946  0.00  0.00    +0.000 A 
ATOM     25  C   UNL     1      48.938   5.917  17.292  0.00  0.00    +0.000 A 
BRANCH  20  27
ATOM     26  N   UNL     1      48.297   3.449  19.969  0.00  0.00    +0.000 N 
ATOM     27  C   UNL     1      48.870   4.526  19.343  0.00  0.00    +0.000 C 
ATOM     28  O   UNL     1      49.663   5.243  19.931  0.00  0.00    +0.000 OA
ATOM     29  H   UNL     1      48.628   3.250  20.906  0.00  0.00    +0.000 HD
ATOM     30  H   UNL     1      47.857   2.698  19.456  0.00  0.00    +0.000 HD
ENDBRANCH  20  27
ENDBRANCH  18  23
ENDBRANCH  17  18
ENDBRANCH   1  17
TORSDOF 7
ENDMDL
MODEL 9
REMARK VINA RESULT:    -6.414      3.264      4.892
REMARK INTER + INTRA:          -9.893
REMARK INTER:                  -8.870
REMARK INTRA:                  -1.023
REMARK UNBOUND:                -0.854
REMARK  Name = 
REMARK  7 active torsions:
REMARK  status: ('A' for Active; 'I' for Inactive)
REMARK    1  A    between atoms: C_2  and  C_4
REMARK    2  A    between atoms: C_7  and  N_8
REMARK    3  A    between atoms: N_8  and  C_9
REMARK    4  A    between atoms: C_9  and  C_10
REMARK    5  A    between atoms: C_10  and  C_13
REMARK    6  A    between atoms: C_17  and  N_18
REMARK    7  A    between atoms: N_18  and  C_19
REMARK                            x       y       z     vdW  Elec       q    Type
REMARK                         _______ _______ _______ _____ _____    ______ ____
ROOT
ATOM      1  C   UNL     1      48.910   7.788  13.470  0.00  0.00    +0.000 C 
ATOM      2  F   UNL     1      49.178   6.589  12.871  0.00  0.00    +0.000 F 
ATOM      3  F   UNL     1      49.866   8.645  12.991  0.00  0.00    +0.000 F 
ENDROOT
BRANCH   1   4
ATOM      4  C   UNL     1      48.954   7.677  14.982  0.00  0.00    +0.000 A 
ATOM      5  C   UNL     1      48.750   8.805  15.789  0.00  0.00    +0.000 A 
ATOM      6  C   UNL     1      48.799   8.694  17.178  0.00  0.00    +0.000 A 
ATOM      7  C   UNL     1      49.066   7.460  17.777  0.00  0.00    +0.000 A 
ATOM      8  C   UNL     1      49.275   6.322  16.996  0.00  0.00    +0.000 A 
ATOM      9  C   UNL     1      49.208   6.442  15.601  0.00  0.00    +0.000 A 
BRANCH   8  10
ATOM     10  N   UNL     1      49.520   5.044  17.542  0.00  0.00    +0.000 N 
ATOM     11  H   UNL     1      50.205   4.556  16.961  0.00  0.00    +0.000 HD
BRANCH  10  12
ATOM     12  C   UNL     1      48.530   4.152  18.091  0.00  0.00    +0.000 C 
ATOM     13  C   UNL     1      48.119   3.050  17.091  0.00  0.00    +0.000 C 
ATOM     14  N   UNL     1      46.700   3.335  17.364  0.00  0.00    +0.000 NA
ATOM     15  C   UNL     1      47.068   4.618  17.995  0.00  0.00    +0.000 C 
ATOM     16  H   UNL     1      46.271   2.670  18.008  0.00  0.00    +0.000 HD
ENDBRANCH  10  12
ENDBRANCH   8  10
ENDBRANCH   1   4
BRANCH   1  17
ATOM     17  C   UNL     1      47.527   8.298  12.984  0.00  0.00    +0.000 C 
BRANCH  17  18
ATOM     18  N   UNL     1      46.404   7.495  13.509  0.00  0.00    +0.000 N 
ATOM     19  H   UNL     1      46.415   7.374  14.521  0.00  0.00    +0.000 HD
BRANCH  18  23
ATOM     20  C   UNL     1      44.709   4.161  11.562  0.00  0.00    +0.000 A 
ATOM     21  C   UNL     1      44.825   5.372  10.878  0.00  0.00    +0.000 A 
ATOM     22  C   UNL     1      45.400   6.482  11.507  0.00  0.00    +0.000 A 
ATOM     23  C   UNL     1      45.898   6.404  12.813  0.00  0.00    +0.000 A 
ATOM     24  C   UNL     1      45.747   5.189  13.495  0.00  0.00    +0.000 A 
ATOM     25  C   UNL     1      45.154   4.076  12.882  0.00  0.00    +0.000 A 
BRANCH  20  27
ATOM     26  N   UNL     1      44.765   2.373   9.909  0.00  0.00    +0.000 N 
ATOM     27  C   UNL     1      44.083   2.967  10.940  0.00  0.00    +0.000 C 
ATOM     28  O   UNL     1      43.031   2.502  11.346  0.00  0.00    +0.000 OA
ATOM     29  H   UNL     1      44.383   1.499   9.568  0.00  0.00    +0.000 HD
ATOM     30  H   UNL     1      45.740   2.564   9.726  0.00  0.00    +0.000 HD
ENDBRANCH  20  27
ENDBRANCH  18  23
ENDBRANCH  17  18
ENDBRANCH   1  17
TORSDOF 7
ENDMDL
