MODEL 1
REMARK VINA RESULT:    -9.549      0.000      0.000
REMARK INTER + INTRA:         -13.375
REMARK INTER:                 -12.341
REMARK INTRA:                  -1.035
REMARK UNBOUND:                -1.035
REMARK  Name = 
REMARK  5 active torsions:
REMARK  status: ('A' for Active; 'I' for Inactive)
REMARK    1  A    between atoms: C_2  and  C_4
REMARK    2  A    between atoms: N_8  and  C_9
REMARK    3  A    between atoms: C_9  and  C_10
REMARK    4  A    between atoms: C_10  and  C_13
REMARK    5  A    between atoms: C_17  and  C_18
REMARK                            x       y       z     vdW  Elec       q    Type
REMARK                         _______ _______ _______ _____ _____    ______ ____
ROOT
ATOM      1  C   UNL     1      43.371   5.501  12.201  0.00  0.00    +0.000 C 
ATOM      2  F   UNL     1      42.892   6.648  11.630  0.00  0.00    +0.000 F 
ATOM      3  F   UNL     1      42.544   5.248  13.257  0.00  0.00    +0.000 F 
ENDROOT
BRANCH   1   4
ATOM      4  C   UNL     1      44.819   5.642  12.636  0.00  0.00    +0.000 A 
ATOM      5  C   UNL     1      45.479   4.594  13.291  0.00  0.00    +0.000 A 
ATOM      6  C   UNL     1      46.825   4.713  13.625  0.00  0.00    +0.000 A 
ATOM      7  C   UNL     1      47.531   5.867  13.283  0.00  0.00    +0.000 A 
ATOM      8  C   UNL     1      46.911   6.929  12.599  0.00  0.00    +0.000 A 
ATOM      9  C   UNL     1      45.539   6.802  12.313  0.00  0.00    +0.000 A 
BRANCH   8  10
ATOM     10  C   UNL     1      47.677   8.111  12.155  0.00  0.00    +0.000 A 
ATOM     11  C   UNL     1      49.024   8.034  11.776  0.00  0.00    +0.000 A 
ATOM     12  C   UNL     1      49.717   9.178  11.384  0.00  0.00    +0.000 A 
ATOM     13  C   UNL     1      49.041  10.384  11.373  0.00  0.00    +0.000 A 
ATOM     14  N   UNL     1      47.752  10.520  11.738  0.00  0.00    +0.000 NA
ATOM     15  C   UNL     1      47.111   9.390  12.123  0.00  0.00    +0.000 A 
ENDBRANCH   8  10
ENDBRANCH   1   4
BRANCH   1  16
ATOM     16  C   UNL     1      43.244   4.351  11.167  0.00  0.00    +0.000 C 
BRANCH  16  21
ATOM     17  C   UNL     1      46.516   2.523   7.706  0.00  0.00    +0.000 A 
ATOM     18  C   UNL     1      45.673   1.847   8.577  0.00  0.00    +0.000 A 
ATOM     19  C   UNL     1      44.747   2.573   9.326  0.00  0.00    +0.000 A 
ATOM     20  C   UNL     1      44.679   3.957   9.198  0.00  0.00    +0.000 A 
ATOM     21  N   UNL     1      43.712   4.719   9.825  0.00  0.00    +0.000 N 
ATOM     22  N   UNL     1      45.516   4.625   8.380  0.00  0.00    +0.000 NA
ATOM     23  C   UNL     1      46.422   3.905   7.665  0.00  0.00    +0.000 A 
ATOM     24  H   UNL     1      43.906   5.708   9.674  0.00  0.00    +0.000 HD
BRANCH  17  26
ATOM     25  N   UNL     1      48.571   2.564   6.413  0.00  0.00    +0.000 N 
ATOM     26  C   UNL     1      47.501   1.829   6.851  0.00  0.00    +0.000 C 
ATOM     27  O   UNL     1      47.380   0.649   6.566  0.00  0.00    +0.000 OA
ATOM     28  H   UNL     1      49.287   2.057   5.908  0.00  0.00    +0.000 HD
ATOM     29  H   UNL     1      48.835   3.440   6.840  0.00  0.00    +0.000 HD
ENDBRANCH  17  26
ENDBRANCH  16  21
ENDBRANCH   1  16
TORSDOF 5
ENDMDL
MODEL 2
REMARK VINA RESULT:    -9.453      1.938      3.349
REMARK INTER + INTRA:         -13.251
REMARK INTER:                 -12.373
REMARK INTRA:                  -0.878
REMARK UNBOUND:                -1.035
REMARK  Name = 
REMARK  5 active torsions:
REMARK  status: ('A' for Active; 'I' for Inactive)
REMARK    1  A    between atoms: C_2  and  C_4
REMARK    2  A    between atoms: N_8  and  C_9
REMARK    3  A    between atoms: C_9  and  C_10
REMARK    4  A    between atoms: C_10  and  C_13
REMARK    5  A    between atoms: C_17  and  C_18
REMARK                            x       y       z     vdW  Elec       q    Type
REMARK                         _______ _______ _______ _____ _____    ______ ____
ROOT
ATOM      1  C   UNL     1      43.348   5.557  12.125  0.00  0.00    +0.000 C 
ATOM      2  F   UNL     1      42.651   6.591  11.564  0.00  0.00    +0.000 F 
ATOM      3  F   UNL     1      42.697   5.269  13.289  0.00  0.00    +0.000 F 
ENDROOT
BRANCH   1   4
ATOM      4  C   UNL     1      44.805   5.913  12.364  0.00  0.00    +0.000 A 
ATOM      5  C   UNL     1      45.446   6.885  11.584  0.00  0.00    +0.000 A 
ATOM      6  C   UNL     1      46.762   7.246  11.857  0.00  0.00    +0.000 A 
ATOM      7  C   UNL     1      47.441   6.661  12.927  0.00  0.00    +0.000 A 
ATOM      8  C   UNL     1      46.822   5.704  13.751  0.00  0.00    +0.000 A 
ATOM      9  C   UNL     1      45.507   5.323  13.426  0.00  0.00    +0.000 A 
BRANCH   8  10
ATOM     10  C   UNL     1      47.504   5.152  14.938  0.00  0.00    +0.000 A 
ATOM     11  C   UNL     1      47.133   3.931  15.518  0.00  0.00    +0.000 A 
ATOM     12  C   UNL     1      47.790   3.455  16.652  0.00  0.00    +0.000 A 
ATOM     13  C   UNL     1      48.816   4.214  17.183  0.00  0.00    +0.000 A 
ATOM     14  N   UNL     1      49.208   5.398  16.676  0.00  0.00    +0.000 NA
ATOM     15  C   UNL     1      48.542   5.836  15.580  0.00  0.00    +0.000 A 
ENDBRANCH   8  10
ENDBRANCH   1   4
BRANCH   1  16
ATOM     16  C   UNL     1      43.257   4.334  11.173  0.00  0.00    +0.000 C 
BRANCH  16  21
ATOM     17  C   UNL     1      46.470   2.451   7.686  0.00  0.00    +0.000 A 
ATOM     18  C   UNL     1      45.697   1.791   8.633  0.00  0.00    +0.000 A 
ATOM     19  C   UNL     1      44.768   2.518   9.377  0.00  0.00    +0.000 A 
ATOM     20  C   UNL     1      44.628   3.887   9.170  0.00  0.00    +0.000 A 
ATOM     21  N   UNL     1      43.651   4.640   9.792  0.00  0.00    +0.000 N 
ATOM     22  N   UNL     1      45.396   4.541   8.277  0.00  0.00    +0.000 NA
ATOM     23  C   UNL     1      46.306   3.821   7.566  0.00  0.00    +0.000 A 
ATOM     24  H   UNL     1      43.789   5.626   9.574  0.00  0.00    +0.000 HD
BRANCH  17  26
ATOM     25  N   UNL     1      48.580   2.447   6.485  0.00  0.00    +0.000 N 
ATOM     26  C   UNL     1      47.451   1.751   6.832  0.00  0.00    +0.000 C 
ATOM     27  O   UNL     1      47.276   0.600   6.469  0.00  0.00    +0.000 OA
ATOM     28  H   UNL     1      49.288   1.929   5.980  0.00  0.00    +0.000 HD
ATOM     29  H   UNL     1      48.874   3.279   6.977  0.00  0.00    +0.000 HD
ENDBRANCH  17  26
ENDBRANCH  16  21
ENDBRANCH   1  16
TORSDOF 5
ENDMDL
MODEL 3
REMARK VINA RESULT:    -8.677      1.694      2.436
REMARK INTER + INTRA:         -12.248
REMARK INTER:                 -11.409
REMARK INTRA:                  -0.839
REMARK UNBOUND:                -1.035
REMARK  Name = 
REMARK  5 active torsions:
REMARK  status: ('A' for Active; 'I' for Inactive)
REMARK    1  A    between atoms: C_2  and  C_4
REMARK    2  A    between atoms: N_8  and  C_9
REMARK    3  A    between atoms: C_9  and  C_10
REMARK    4  A    between atoms: C_10  and  C_13
REMARK    5  A    between atoms: C_17  and  C_18
REMARK                            x       y       z     vdW  Elec       q    Type
REMARK                         _______ _______ _______ _____ _____    ______ ____
ROOT
ATOM      1  C   UNL     1      42.999   5.449  12.205  0.00  0.00    +0.000 C 
ATOM      2  F   UNL     1      41.786   5.920  11.785  0.00  0.00    +0.000 F 
ATOM      3  F   UNL     1      42.801   5.027  13.488  0.00  0.00    +0.000 F 
ENDROOT
BRANCH   1   4
ATOM      4  C   UNL     1      44.084   6.508  12.116  0.00  0.00    +0.000 A 
ATOM      5  C   UNL     1      43.873   7.698  11.409  0.00  0.00    +0.000 A 
ATOM      6  C   UNL     1      44.853   8.687  11.391  0.00  0.00    +0.000 A 
ATOM      7  C   UNL     1      46.040   8.507  12.102  0.00  0.00    +0.000 A 
ATOM      8  C   UNL     1      46.278   7.338  12.848  0.00  0.00    +0.000 A 
ATOM      9  C   UNL     1      45.291   6.336  12.813  0.00  0.00    +0.000 A 
BRANCH   8  10
ATOM     10  C   UNL     1      47.491   7.184  13.674  0.00  0.00    +0.000 A 
ATOM     11  C   UNL     1      48.545   8.108  13.639  0.00  0.00    +0.000 A 
ATOM     12  C   UNL     1      49.684   7.915  14.420  0.00  0.00    +0.000 A 
ATOM     13  C   UNL     1      49.743   6.796  15.230  0.00  0.00    +0.000 A 
ATOM     14  N   UNL     1      48.768   5.870  15.295  0.00  0.00    +0.000 NA
ATOM     15  C   UNL     1      47.679   6.083  14.517  0.00  0.00    +0.000 A 
ENDBRANCH   8  10
ENDBRANCH   1   4
BRANCH   1  16
ATOM     16  C   UNL     1      43.382   4.232  11.321  0.00  0.00    +0.000 C 
BRANCH  16  21
ATOM     17  C   UNL     1      46.525   2.507   7.691  0.00  0.00    +0.000 A 
ATOM     18  C   UNL     1      45.769   1.805   8.620  0.00  0.00    +0.000 A 
ATOM     19  C   UNL     1      44.856   2.498   9.415  0.00  0.00    +0.000 A 
ATOM     20  C   UNL     1      44.714   3.876   9.274  0.00  0.00    +0.000 A 
ATOM     21  N   UNL     1      43.752   4.601   9.949  0.00  0.00    +0.000 N 
ATOM     22  N   UNL     1      45.467   4.570   8.398  0.00  0.00    +0.000 NA
ATOM     23  C   UNL     1      46.363   3.882   7.638  0.00  0.00    +0.000 A 
ATOM     24  H   UNL     1      43.888   5.595   9.774  0.00  0.00    +0.000 HD
BRANCH  17  26
ATOM     25  N   UNL     1      48.626   2.545   6.474  0.00  0.00    +0.000 N 
ATOM     26  C   UNL     1      47.489   1.847   6.787  0.00  0.00    +0.000 C 
ATOM     27  O   UNL     1      47.293   0.723   6.355  0.00  0.00    +0.000 OA
ATOM     28  H   UNL     1      49.322   2.048   5.932  0.00  0.00    +0.000 HD
ATOM     29  H   UNL     1      48.937   3.340   7.014  0.00  0.00    +0.000 HD
ENDBRANCH  17  26
ENDBRANCH  16  21
ENDBRANCH   1  16
TORSDOF 5
ENDMDL
MODEL 4
REMARK VINA RESULT:    -7.776      4.216      7.732
REMARK INTER + INTRA:         -11.084
REMARK INTER:                 -10.453
REMARK INTRA:                  -0.631
REMARK UNBOUND:                -1.035
REMARK  Name = 
REMARK  5 active torsions:
REMARK  status: ('A' for Active; 'I' for Inactive)
REMARK    1  A    between atoms: C_2  and  C_4
REMARK    2  A    between atoms: N_8  and  C_9
REMARK    3  A    between atoms: C_9  and  C_10
REMARK    4  A    between atoms: C_10  and  C_13
REMARK    5  A    between atoms: C_17  and  C_18
REMARK                            x       y       z     vdW  Elec       q    Type
REMARK                         _______ _______ _______ _____ _____    ______ ____
ROOT
ATOM      1  C   UNL     1      45.385   6.103  11.947  0.00  0.00    +0.000 C 
ATOM      2  F   UNL     1      44.355   6.688  12.629  0.00  0.00    +0.000 F 
ATOM      3  F   UNL     1      45.776   7.024  11.017  0.00  0.00    +0.000 F 
ENDROOT
BRANCH   1   4
ATOM      4  C   UNL     1      44.974   4.789  11.306  0.00  0.00    +0.000 A 
ATOM      5  C   UNL     1      43.860   4.079  11.772  0.00  0.00    +0.000 A 
ATOM      6  C   UNL     1      43.456   2.909  11.133  0.00  0.00    +0.000 A 
ATOM      7  C   UNL     1      44.145   2.455  10.007  0.00  0.00    +0.000 A 
ATOM      8  C   UNL     1      45.249   3.157   9.491  0.00  0.00    +0.000 A 
ATOM      9  C   UNL     1      45.664   4.311  10.182  0.00  0.00    +0.000 A 
BRANCH   8  10
ATOM     10  C   UNL     1      45.920   2.730   8.247  0.00  0.00    +0.000 A 
ATOM     11  C   UNL     1      46.069   3.581   7.143  0.00  0.00    +0.000 A 
ATOM     12  C   UNL     1      46.691   3.132   5.979  0.00  0.00    +0.000 A 
ATOM     13  C   UNL     1      47.160   1.832   5.945  0.00  0.00    +0.000 A 
ATOM     14  N   UNL     1      47.035   0.967   6.969  0.00  0.00    +0.000 NA
ATOM     15  C   UNL     1      46.417   1.433   8.082  0.00  0.00    +0.000 A 
ENDBRANCH   8  10
ENDBRANCH   1   4
BRANCH   1  16
ATOM     16  C   UNL     1      46.551   5.857  12.942  0.00  0.00    +0.000 C 
BRANCH  16  21
ATOM     17  C   UNL     1      48.652   4.271  17.312  0.00  0.00    +0.000 A 
ATOM     18  C   UNL     1      48.703   5.517  16.701  0.00  0.00    +0.000 A 
ATOM     19  C   UNL     1      47.910   5.755  15.579  0.00  0.00    +0.000 A 
ATOM     20  C   UNL     1      47.085   4.750  15.082  0.00  0.00    +0.000 A 
ATOM     21  N   UNL     1      46.195   4.958  14.046  0.00  0.00    +0.000 N 
ATOM     22  N   UNL     1      47.054   3.528  15.648  0.00  0.00    +0.000 NA
ATOM     23  C   UNL     1      47.842   3.306  16.735  0.00  0.00    +0.000 A 
ATOM     24  H   UNL     1      45.766   4.072  13.782  0.00  0.00    +0.000 HD
BRANCH  17  26
ATOM     25  N   UNL     1      48.722   3.621  19.651  0.00  0.00    +0.000 N 
ATOM     26  C   UNL     1      49.432   3.946  18.524  0.00  0.00    +0.000 C 
ATOM     27  O   UNL     1      50.652   3.945  18.518  0.00  0.00    +0.000 OA
ATOM     28  H   UNL     1      49.264   3.309  20.446  0.00  0.00    +0.000 HD
ATOM     29  H   UNL     1      47.749   3.355  19.617  0.00  0.00    +0.000 HD
ENDBRANCH  17  26
ENDBRANCH  16  21
ENDBRANCH   1  16
TORSDOF 5
ENDMDL
MODEL 5
REMARK VINA RESULT:    -7.448      4.265      7.553
REMARK INTER + INTRA:         -10.660
REMARK INTER:                  -9.523
REMARK INTRA:                  -1.137
REMARK UNBOUND:                -1.035
REMARK  Name = 
REMARK  5 active torsions:
REMARK  status: ('A' for Active; 'I' for Inactive)
REMARK    1  A    between atoms: C_2  and  C_4
REMARK    2  A    between atoms: N_8  and  C_9
REMARK    3  A    between atoms: C_9  and  C_10
REMARK    4  A    between atoms: C_10  and  C_13
REMARK    5  A    between atoms: C_17  and  C_18
REMARK                            x       y       z     vdW  Elec       q    Type
REMARK                         _______ _______ _______ _____ _____    ______ ____
ROOT
ATOM      1  C   UNL     1      48.756   8.026  12.225  0.00  0.00    +0.000 C 
ATOM      2  F   UNL     1      49.184   9.051  11.428  0.00  0.00    +0.000 F 
ATOM      3  F   UNL     1      49.549   6.962  11.906  0.00  0.00    +0.000 F 
ENDROOT
BRANCH   1   4
ATOM      4  C   UNL     1      47.283   7.718  12.018  0.00  0.00    +0.000 A 
ATOM      5  C   UNL     1      46.298   8.658  12.346  0.00  0.00    +0.000 A 
ATOM      6  C   UNL     1      44.957   8.386  12.091  0.00  0.00    +0.000 A 
ATOM      7  C   UNL     1      44.591   7.186  11.480  0.00  0.00    +0.000 A 
ATOM      8  C   UNL     1      45.553   6.229  11.109  0.00  0.00    +0.000 A 
ATOM      9  C   UNL     1      46.897   6.509  11.419  0.00  0.00    +0.000 A 
BRANCH   8  10
ATOM     10  C   UNL     1      45.178   5.001  10.381  0.00  0.00    +0.000 A 
ATOM     11  C   UNL     1      45.564   4.768   9.053  0.00  0.00    +0.000 A 
ATOM     12  C   UNL     1      45.171   3.604   8.394  0.00  0.00    +0.000 A 
ATOM     13  C   UNL     1      44.398   2.688   9.083  0.00  0.00    +0.000 A 
ATOM     14  N   UNL     1      43.988   2.864  10.354  0.00  0.00    +0.000 NA
ATOM     15  C   UNL     1      44.380   4.010  10.962  0.00  0.00    +0.000 A 
ENDBRANCH   8  10
ENDBRANCH   1   4
BRANCH   1  16
ATOM     16  C   UNL     1      49.005   8.421  13.706  0.00  0.00    +0.000 C 
BRANCH  16  21
ATOM     17  C   UNL     1      48.105   4.483  16.821  0.00  0.00    +0.000 A 
ATOM     18  C   UNL     1      47.399   4.914  15.705  0.00  0.00    +0.000 A 
ATOM     19  C   UNL     1      47.934   5.931  14.915  0.00  0.00    +0.000 A 
ATOM     20  C   UNL     1      49.159   6.503  15.251  0.00  0.00    +0.000 A 
ATOM     21  N   UNL     1      49.794   7.431  14.449  0.00  0.00    +0.000 N 
ATOM     22  N   UNL     1      49.834   6.113  16.349  0.00  0.00    +0.000 NA
ATOM     23  C   UNL     1      49.294   5.128  17.118  0.00  0.00    +0.000 A 
ATOM     24  H   UNL     1      50.621   7.786  14.927  0.00  0.00    +0.000 HD
BRANCH  17  26
ATOM     25  N   UNL     1      48.404   3.072  18.775  0.00  0.00    +0.000 N 
ATOM     26  C   UNL     1      47.626   3.389  17.691  0.00  0.00    +0.000 C 
ATOM     27  O   UNL     1      46.577   2.808  17.469  0.00  0.00    +0.000 OA
ATOM     28  H   UNL     1      48.022   2.389  19.415  0.00  0.00    +0.000 HD
ATOM     29  H   UNL     1      49.115   3.696  19.129  0.00  0.00    +0.000 HD
ENDBRANCH  17  26
ENDBRANCH  16  21
ENDBRANCH   1  16
TORSDOF 5
ENDMDL
MODEL 6
REMARK VINA RESULT:    -7.160      3.227      7.137
REMARK INTER + INTRA:         -10.287
REMARK INTER:                  -9.571
REMARK INTRA:                  -0.716
REMARK UNBOUND:                -1.035
REMARK  Name = 
REMARK  5 active torsions:
REMARK  status: ('A' for Active; 'I' for Inactive)
REMARK    1  A    between atoms: C_2  and  C_4
REMARK    2  A    between atoms: N_8  and  C_9
REMARK    3  A    between atoms: C_9  and  C_10
REMARK    4  A    between atoms: C_10  and  C_13
REMARK    5  A    between atoms: C_17  and  C_18
REMARK                            x       y       z     vdW  Elec       q    Type
REMARK                         _______ _______ _______ _____ _____    ______ ____
ROOT
ATOM      1  C   UNL     1      44.536   6.132  11.714  0.00  0.00    +0.000 C 
ATOM      2  F   UNL     1      44.229   6.204  13.045  0.00  0.00    +0.000 F 
ATOM      3  F   UNL     1      43.647   6.960  11.092  0.00  0.00    +0.000 F 
ENDROOT
BRANCH   1   4
ATOM      4  C   UNL     1      44.455   4.712  11.185  0.00  0.00    +0.000 A 
ATOM      5  C   UNL     1      43.550   3.791  11.728  0.00  0.00    +0.000 A 
ATOM      6  C   UNL     1      43.441   2.512  11.189  0.00  0.00    +0.000 A 
ATOM      7  C   UNL     1      44.217   2.150  10.086  0.00  0.00    +0.000 A 
ATOM      8  C   UNL     1      45.116   3.056   9.494  0.00  0.00    +0.000 A 
ATOM      9  C   UNL     1      45.239   4.327  10.086  0.00  0.00    +0.000 A 
BRANCH   8  10
ATOM     10  C   UNL     1      45.868   2.707   8.273  0.00  0.00    +0.000 A 
ATOM     11  C   UNL     1      46.064   3.618   7.226  0.00  0.00    +0.000 A 
ATOM     12  C   UNL     1      46.762   3.243   6.079  0.00  0.00    +0.000 A 
ATOM     13  C   UNL     1      47.259   1.954   6.006  0.00  0.00    +0.000 A 
ATOM     14  N   UNL     1      47.092   1.034   6.974  0.00  0.00    +0.000 NA
ATOM     15  C   UNL     1      46.400   1.430   8.071  0.00  0.00    +0.000 A 
ENDBRANCH   8  10
ENDBRANCH   1   4
BRANCH   1  16
ATOM     16  C   UNL     1      45.973   6.684  11.515  0.00  0.00    +0.000 C 
BRANCH  16  21
ATOM     17  C   UNL     1      50.587   8.175  13.103  0.00  0.00    +0.000 A 
ATOM     18  C   UNL     1      49.981   8.327  11.863  0.00  0.00    +0.000 A 
ATOM     19  C   UNL     1      48.640   7.973  11.715  0.00  0.00    +0.000 A 
ATOM     20  C   UNL     1      47.928   7.471  12.801  0.00  0.00    +0.000 A 
ATOM     21  N   UNL     1      46.573   7.209  12.748  0.00  0.00    +0.000 N 
ATOM     22  N   UNL     1      48.517   7.289  13.999  0.00  0.00    +0.000 NA
ATOM     23  C   UNL     1      49.829   7.628  14.125  0.00  0.00    +0.000 A 
ATOM     24  H   UNL     1      46.278   6.761  13.615  0.00  0.00    +0.000 HD
BRANCH  17  26
ATOM     25  N   UNL     1      52.949   7.939  12.594  0.00  0.00    +0.000 N 
ATOM     26  C   UNL     1      51.991   8.558  13.354  0.00  0.00    +0.000 C 
ATOM     27  O   UNL     1      52.285   9.402  14.185  0.00  0.00    +0.000 OA
ATOM     28  H   UNL     1      53.897   8.276  12.707  0.00  0.00    +0.000 HD
ATOM     29  H   UNL     1      52.727   7.452  11.737  0.00  0.00    +0.000 HD
ENDBRANCH  17  26
ENDBRANCH  16  21
ENDBRANCH   1  16
TORSDOF 5
ENDMDL
MODEL 7
REMARK VINA RESULT:    -7.056      6.472      8.196
REMARK INTER + INTRA:         -10.153
REMARK INTER:                  -9.486
REMARK INTRA:                  -0.667
REMARK UNBOUND:                -1.035
REMARK  Name = 
REMARK  5 active torsions:
REMARK  status: ('A' for Active; 'I' for Inactive)
REMARK    1  A    between atoms: C_2  and  C_4
REMARK    2  A    between atoms: N_8  and  C_9
REMARK    3  A    between atoms: C_9  and  C_10
REMARK    4  A    between atoms: C_10  and  C_13
REMARK    5  A    between atoms: C_17  and  C_18
REMARK                            x       y       z     vdW  Elec       q    Type
REMARK                         _______ _______ _______ _____ _____    ______ ____
ROOT
ATOM      1  C   UNL     1      48.202   2.919  16.840  0.00  0.00    +0.000 C 
ATOM      2  F   UNL     1      47.399   2.790  17.939  0.00  0.00    +0.000 F 
ATOM      3  F   UNL     1      48.258   1.675  16.281  0.00  0.00    +0.000 F 
ENDROOT
BRANCH   1   4
ATOM      4  C   UNL     1      49.582   3.442  17.199  0.00  0.00    +0.000 A 
ATOM      5  C   UNL     1      49.805   4.811  17.393  0.00  0.00    +0.000 A 
ATOM      6  C   UNL     1      51.060   5.269  17.785  0.00  0.00    +0.000 A 
ATOM      7  C   UNL     1      52.095   4.360  18.013  0.00  0.00    +0.000 A 
ATOM      8  C   UNL     1      51.902   2.975  17.858  0.00  0.00    +0.000 A 
ATOM      9  C   UNL     1      50.637   2.543  17.417  0.00  0.00    +0.000 A 
BRANCH   8  10
ATOM     10  C   UNL     1      52.966   2.007  18.188  0.00  0.00    +0.000 A 
ATOM     11  C   UNL     1      53.089   0.773  17.534  0.00  0.00    +0.000 A 
ATOM     12  C   UNL     1      54.096  -0.122  17.891  0.00  0.00    +0.000 A 
ATOM     13  C   UNL     1      54.970   0.241  18.898  0.00  0.00    +0.000 A 
ATOM     14  N   UNL     1      54.895   1.406  19.568  0.00  0.00    +0.000 NA
ATOM     15  C   UNL     1      53.898   2.249  19.203  0.00  0.00    +0.000 A 
ENDBRANCH   8  10
ENDBRANCH   1   4
BRANCH   1  16
ATOM     16  C   UNL     1      47.515   3.894  15.846  0.00  0.00    +0.000 C 
BRANCH  16  21
ATOM     17  C   UNL     1      44.551   4.723  11.777  0.00  0.00    +0.000 A 
ATOM     18  C   UNL     1      45.097   5.626  12.679  0.00  0.00    +0.000 A 
ATOM     19  C   UNL     1      46.013   5.170  13.627  0.00  0.00    +0.000 A 
ATOM     20  C   UNL     1      46.366   3.824  13.662  0.00  0.00    +0.000 A 
ATOM     21  N   UNL     1      47.348   3.332  14.499  0.00  0.00    +0.000 N 
ATOM     22  N   UNL     1      45.817   2.934  12.813  0.00  0.00    +0.000 NA
ATOM     23  C   UNL     1      44.915   3.392  11.901  0.00  0.00    +0.000 A 
ATOM     24  H   UNL     1      47.377   2.316  14.432  0.00  0.00    +0.000 HD
BRANCH  17  26
ATOM     25  N   UNL     1      43.815   4.620   9.465  0.00  0.00    +0.000 N 
ATOM     26  C   UNL     1      43.601   5.128  10.720  0.00  0.00    +0.000 C 
ATOM     27  O   UNL     1      42.658   5.863  10.957  0.00  0.00    +0.000 OA
ATOM     28  H   UNL     1      43.107   4.827   8.772  0.00  0.00    +0.000 HD
ATOM     29  H   UNL     1      44.407   3.819   9.301  0.00  0.00    +0.000 HD
ENDBRANCH  17  26
ENDBRANCH  16  21
ENDBRANCH   1  16
TORSDOF 5
ENDMDL
MODEL 8
REMARK VINA RESULT:    -6.848      3.765      5.917
REMARK INTER + INTRA:          -9.884
REMARK INTER:                  -8.713
REMARK INTRA:                  -1.171
REMARK UNBOUND:                -1.035
REMARK  Name = 
REMARK  5 active torsions:
REMARK  status: ('A' for Active; 'I' for Inactive)
REMARK    1  A    between atoms: C_2  and  C_4
REMARK    2  A    between atoms: N_8  and  C_9
REMARK    3  A    between atoms: C_9  and  C_10
REMARK    4  A    between atoms: C_10  and  C_13
REMARK    5  A    between atoms: C_17  and  C_18
REMARK                            x       y       z     vdW  Elec       q    Type
REMARK                         _______ _______ _______ _____ _____    ______ ____
ROOT
ATOM      1  C   UNL     1      48.173   8.445  12.934  0.00  0.00    +0.000 C 
ATOM      2  F   UNL     1      48.369   7.788  11.751  0.00  0.00    +0.000 F 
ATOM      3  F   UNL     1      48.549   9.736  12.700  0.00  0.00    +0.000 F 
ENDROOT
BRANCH   1   4
ATOM      4  C   UNL     1      48.962   7.821  14.071  0.00  0.00    +0.000 A 
ATOM      5  C   UNL     1      50.135   8.420  14.547  0.00  0.00    +0.000 A 
ATOM      6  C   UNL     1      50.813   7.872  15.633  0.00  0.00    +0.000 A 
ATOM      7  C   UNL     1      50.309   6.737  16.270  0.00  0.00    +0.000 A 
ATOM      8  C   UNL     1      49.117   6.124  15.841  0.00  0.00    +0.000 A 
ATOM      9  C   UNL     1      48.477   6.671  14.714  0.00  0.00    +0.000 A 
BRANCH   8  10
ATOM     10  C   UNL     1      48.533   4.980  16.569  0.00  0.00    +0.000 A 
ATOM     11  C   UNL     1      49.209   4.330  17.611  0.00  0.00    +0.000 A 
ATOM     12  C   UNL     1      48.631   3.239  18.259  0.00  0.00    +0.000 A 
ATOM     13  C   UNL     1      47.377   2.822  17.853  0.00  0.00    +0.000 A 
ATOM     14  N   UNL     1      46.687   3.400  16.851  0.00  0.00    +0.000 NA
ATOM     15  C   UNL     1      47.282   4.451  16.236  0.00  0.00    +0.000 A 
ENDBRANCH   8  10
ENDBRANCH   1   4
BRANCH   1  16
ATOM     16  C   UNL     1      46.657   8.408  13.266  0.00  0.00    +0.000 C 
BRANCH  16  21
ATOM     17  C   UNL     1      44.488   4.176  11.419  0.00  0.00    +0.000 A 
ATOM     18  C   UNL     1      44.673   4.579  12.735  0.00  0.00    +0.000 A 
ATOM     19  C   UNL     1      45.155   5.863  12.990  0.00  0.00    +0.000 A 
ATOM     20  C   UNL     1      45.447   6.720  11.932  0.00  0.00    +0.000 A 
ATOM     21  N   UNL     1      45.818   8.038  12.120  0.00  0.00    +0.000 N 
ATOM     22  N   UNL     1      45.301   6.326  10.652  0.00  0.00    +0.000 NA
ATOM     23  C   UNL     1      44.842   5.066  10.419  0.00  0.00    +0.000 A 
ATOM     24  H   UNL     1      46.075   8.450  11.225  0.00  0.00    +0.000 HD
BRANCH  17  26
ATOM     25  N   UNL     1      44.573   2.179  10.040  0.00  0.00    +0.000 N 
ATOM     26  C   UNL     1      43.950   2.847  11.062  0.00  0.00    +0.000 C 
ATOM     27  O   UNL     1      43.009   2.356  11.663  0.00  0.00    +0.000 OA
ATOM     28  H   UNL     1      44.258   1.233   9.867  0.00  0.00    +0.000 HD
ATOM     29  H   UNL     1      45.495   2.430   9.714  0.00  0.00    +0.000 HD
ENDBRANCH  17  26
ENDBRANCH  16  21
ENDBRANCH   1  16
TORSDOF 5
ENDMDL
MODEL 9
REMARK VINA RESULT:    -6.614      5.575      6.966
REMARK INTER + INTRA:          -9.583
REMARK INTER:                  -8.938
REMARK INTRA:                  -0.644
REMARK UNBOUND:                -1.035
REMARK  Name = 
REMARK  5 active torsions:
REMARK  status: ('A' for Active; 'I' for Inactive)
REMARK    1  A    between atoms: C_2  and  C_4
REMARK    2  A    between atoms: N_8  and  C_9
REMARK    3  A    between atoms: C_9  and  C_10
REMARK    4  A    between atoms: C_10  and  C_13
REMARK    5  A    between atoms: C_17  and  C_18
REMARK                            x       y       z     vdW  Elec       q    Type
REMARK                         _______ _______ _______ _____ _____    ______ ____
ROOT
ATOM      1  C   UNL     1      48.153   3.091  16.901  0.00  0.00    +0.000 C 
ATOM      2  F   UNL     1      47.172   2.457  17.613  0.00  0.00    +0.000 F 
ATOM      3  F   UNL     1      48.853   2.096  16.281  0.00  0.00    +0.000 F 
ENDROOT
BRANCH   1   4
ATOM      4  C   UNL     1      49.043   3.942  17.788  0.00  0.00    +0.000 A 
ATOM      5  C   UNL     1      50.396   3.625  17.967  0.00  0.00    +0.000 A 
ATOM      6  C   UNL     1      51.215   4.452  18.732  0.00  0.00    +0.000 A 
ATOM      7  C   UNL     1      50.697   5.617  19.300  0.00  0.00    +0.000 A 
ATOM      8  C   UNL     1      49.351   5.985  19.119  0.00  0.00    +0.000 A 
ATOM      9  C   UNL     1      48.534   5.109  18.380  0.00  0.00    +0.000 A 
BRANCH   8  10
ATOM     10  C   UNL     1      48.824   7.261  19.641  0.00  0.00    +0.000 A 
ATOM     11  C   UNL     1      47.859   7.316  20.657  0.00  0.00    +0.000 A 
ATOM     12  C   UNL     1      47.372   8.541  21.107  0.00  0.00    +0.000 A 
ATOM     13  C   UNL     1      47.867   9.697  20.531  0.00  0.00    +0.000 A 
ATOM     14  N   UNL     1      48.784   9.705  19.546  0.00  0.00    +0.000 NA
ATOM     15  C   UNL     1      49.230   8.496  19.125  0.00  0.00    +0.000 A 
ENDBRANCH   8  10
ENDBRANCH   1   4
BRANCH   1  16
ATOM     16  C   UNL     1      47.476   3.984  15.827  0.00  0.00    +0.000 C 
BRANCH  16  21
ATOM     17  C   UNL     1      44.653   4.648  11.629  0.00  0.00    +0.000 A 
ATOM     18  C   UNL     1      45.273   5.588  12.443  0.00  0.00    +0.000 A 
ATOM     19  C   UNL     1      46.130   5.151  13.453  0.00  0.00    +0.000 A 
ATOM     20  C   UNL     1      46.351   3.789  13.638  0.00  0.00    +0.000 A 
ATOM     21  N   UNL     1      47.271   3.299  14.544  0.00  0.00    +0.000 N 
ATOM     22  N   UNL     1      45.728   2.870  12.876  0.00  0.00    +0.000 NA
ATOM     23  C   UNL     1      44.886   3.310  11.902  0.00  0.00    +0.000 A 
ATOM     24  H   UNL     1      47.202   2.283  14.585  0.00  0.00    +0.000 HD
BRANCH  17  26
ATOM     25  N   UNL     1      44.184   4.724   9.248  0.00  0.00    +0.000 N 
ATOM     26  C   UNL     1      43.759   5.026  10.516  0.00  0.00    +0.000 C 
ATOM     27  O   UNL     1      42.682   5.563  10.714  0.00  0.00    +0.000 OA
ATOM     28  H   UNL     1      43.526   4.900   8.501  0.00  0.00    +0.000 HD
ATOM     29  H   UNL     1      44.922   4.057   9.071  0.00  0.00    +0.000 HD
ENDBRANCH  17  26
ENDBRANCH  16  21
ENDBRANCH   1  16
TORSDOF 5
ENDMDL
