MODEL 1
REMARK VINA RESULT:    -7.767      0.000      0.000
REMARK INTER + INTRA:          -9.937
REMARK INTER:                  -9.584
REMARK INTRA:                  -0.353
REMARK UNBOUND:                -0.353
REMARK  Name = 
REMARK  5 active torsions:
REMARK  status: ('A' for Active; 'I' for Inactive)
REMARK    1  A    between atoms: C_1  and  C_2
REMARK    2  A    between atoms: C_4  and  O_5
REMARK    3  A    between atoms: O_5  and  C_6
REMARK    4  A    between atoms: C_6  and  C_7
REMARK    5  A    between atoms: C_15  and  C_16
REMARK                            x       y       z     vdW  Elec       q    Type
REMARK                         _______ _______ _______ _____ _____    ______ ____
ROOT
ATOM      1  C   UNL     1      46.740   0.181   7.724  0.00  0.00    +0.000 C 
ATOM      2  C   UNL     1      46.169   1.560   7.906  0.00  0.00    +0.000 A 
ATOM      3  C   UNL     1      45.204   1.771   8.904  0.00  0.00    +0.000 A 
ATOM      4  C   UNL     1      44.705   3.049   9.106  0.00  0.00    +0.000 A 
ATOM      5  N   UNL     1      45.074   4.116   8.372  0.00  0.00    +0.000 NA
ATOM      6  C   UNL     1      45.998   3.895   7.406  0.00  0.00    +0.000 A 
ATOM      7  C   UNL     1      46.570   2.658   7.123  0.00  0.00    +0.000 A 
ENDROOT
BRANCH   7   8
ATOM      8  C   UNL     1      47.603   2.553   6.057  0.00  0.00    +0.000 C 
ATOM      9  N   UNL     1      48.913   2.472   6.440  0.00  0.00    +0.000 N 
ATOM     10  O   UNL     1      47.315   2.547   4.866  0.00  0.00    +0.000 OA
ATOM     11  H   UNL     1      49.247   2.674   7.372  0.00  0.00    +0.000 HD
ATOM     12  H   UNL     1      49.596   2.477   5.690  0.00  0.00    +0.000 HD
ENDBRANCH   7   8
BRANCH   4  13
ATOM     13  O   UNL     1      43.760   3.203  10.101  0.00  0.00    +0.000 OA
BRANCH  13  14
ATOM     14  C   UNL     1      43.723   4.544  10.599  0.00  0.00    +0.000 C 
BRANCH  14  15
ATOM     15  C   UNL     1      44.807   4.757  11.623  0.00  0.00    +0.000 A 
ATOM     16  C   UNL     1      45.632   5.886  11.622  0.00  0.00    +0.000 A 
ATOM     17  C   UNL     1      46.657   5.996  12.558  0.00  0.00    +0.000 A 
ATOM     18  C   UNL     1      46.835   4.962  13.462  0.00  0.00    +0.000 A 
ATOM     19  N   UNL     1      46.075   3.848  13.485  0.00  0.00    +0.000 NA
ATOM     20  C   UNL     1      45.086   3.770  12.565  0.00  0.00    +0.000 A 
ENDBRANCH  14  15
ENDBRANCH  13  14
ENDBRANCH   4  13
TORSDOF 4
ENDMDL
MODEL 2
REMARK VINA RESULT:    -7.331      2.403      6.055
REMARK INTER + INTRA:          -9.398
REMARK INTER:                  -8.961
REMARK INTRA:                  -0.436
REMARK UNBOUND:                -0.353
REMARK  Name = 
REMARK  5 active torsions:
REMARK  status: ('A' for Active; 'I' for Inactive)
REMARK    1  A    between atoms: C_1  and  C_2
REMARK    2  A    between atoms: C_4  and  O_5
REMARK    3  A    between atoms: O_5  and  C_6
REMARK    4  A    between atoms: C_6  and  C_7
REMARK    5  A    between atoms: C_15  and  C_16
REMARK                            x       y       z     vdW  Elec       q    Type
REMARK                         _______ _______ _______ _____ _____    ______ ____
ROOT
ATOM      1  C   UNL     1      46.654   4.291  14.602  0.00  0.00    +0.000 C 
ATOM      2  C   UNL     1      46.350   4.816  13.225  0.00  0.00    +0.000 A 
ATOM      3  C   UNL     1      45.482   4.088  12.396  0.00  0.00    +0.000 A 
ATOM      4  C   UNL     1      45.163   4.587  11.143  0.00  0.00    +0.000 A 
ATOM      5  N   UNL     1      45.665   5.736  10.649  0.00  0.00    +0.000 NA
ATOM      6  C   UNL     1      46.509   6.421  11.457  0.00  0.00    +0.000 A 
ATOM      7  C   UNL     1      46.891   6.018  12.734  0.00  0.00    +0.000 A 
ENDROOT
BRANCH   7   8
ATOM      8  C   UNL     1      47.800   6.880  13.536  0.00  0.00    +0.000 C 
ATOM      9  N   UNL     1      47.292   8.039  14.054  0.00  0.00    +0.000 N 
ATOM     10  O   UNL     1      48.974   6.589  13.732  0.00  0.00    +0.000 OA
ATOM     11  H   UNL     1      46.412   8.449  13.775  0.00  0.00    +0.000 HD
ATOM     12  H   UNL     1      47.954   8.640  14.531  0.00  0.00    +0.000 HD
ENDBRANCH   7   8
BRANCH   4  13
ATOM     13  O   UNL     1      44.303   3.834  10.368  0.00  0.00    +0.000 OA
BRANCH  13  14
ATOM     14  C   UNL     1      44.475   4.096   8.972  0.00  0.00    +0.000 C 
BRANCH  14  15
ATOM     15  C   UNL     1      45.473   3.138   8.375  0.00  0.00    +0.000 A 
ATOM     16  C   UNL     1      46.379   3.519   7.379  0.00  0.00    +0.000 A 
ATOM     17  C   UNL     1      47.235   2.572   6.823  0.00  0.00    +0.000 A 
ATOM     18  C   UNL     1      47.150   1.265   7.272  0.00  0.00    +0.000 A 
ATOM     19  N   UNL     1      46.279   0.853   8.215  0.00  0.00    +0.000 NA
ATOM     20  C   UNL     1      45.460   1.794   8.738  0.00  0.00    +0.000 A 
ENDBRANCH  14  15
ENDBRANCH  13  14
ENDBRANCH   4  13
TORSDOF 4
ENDMDL
MODEL 3
REMARK VINA RESULT:    -7.302      2.121      6.187
REMARK INTER + INTRA:          -9.363
REMARK INTER:                  -9.204
REMARK INTRA:                  -0.158
REMARK UNBOUND:                -0.353
REMARK  Name = 
REMARK  5 active torsions:
REMARK  status: ('A' for Active; 'I' for Inactive)
REMARK    1  A    between atoms: C_1  and  C_2
REMARK    2  A    between atoms: C_4  and  O_5
REMARK    3  A    between atoms: O_5  and  C_6
REMARK    4  A    between atoms: C_6  and  C_7
REMARK    5  A    between atoms: C_15  and  C_16
REMARK                            x       y       z     vdW  Elec       q    Type
REMARK                         _______ _______ _______ _____ _____    ______ ____
ROOT
ATOM      1  C   UNL     1      46.588   7.354  12.106  0.00  0.00    +0.000 C 
ATOM      2  C   UNL     1      46.156   5.918  12.230  0.00  0.00    +0.000 A 
ATOM      3  C   UNL     1      45.285   5.384  11.266  0.00  0.00    +0.000 A 
ATOM      4  C   UNL     1      44.917   4.050  11.349  0.00  0.00    +0.000 A 
ATOM      5  N   UNL     1      45.328   3.225  12.331  0.00  0.00    +0.000 NA
ATOM      6  C   UNL     1      46.159   3.757  13.259  0.00  0.00    +0.000 A 
ATOM      7  C   UNL     1      46.599   5.078  13.268  0.00  0.00    +0.000 A 
ENDROOT
BRANCH   7   8
ATOM      8  C   UNL     1      47.541   5.532  14.326  0.00  0.00    +0.000 C 
ATOM      9  N   UNL     1      47.246   5.218  15.624  0.00  0.00    +0.000 N 
ATOM     10  O   UNL     1      48.551   6.177  14.070  0.00  0.00    +0.000 OA
ATOM     11  H   UNL     1      46.348   4.876  15.936  0.00  0.00    +0.000 HD
ATOM     12  H   UNL     1      47.865   5.604  16.327  0.00  0.00    +0.000 HD
ENDBRANCH   7   8
BRANCH   4  13
ATOM     13  O   UNL     1      44.061   3.574  10.376  0.00  0.00    +0.000 OA
BRANCH  13  14
ATOM     14  C   UNL     1      44.414   4.052   9.074  0.00  0.00    +0.000 C 
BRANCH  14  15
ATOM     15  C   UNL     1      45.438   3.147   8.439  0.00  0.00    +0.000 A 
ATOM     16  C   UNL     1      46.334   3.593   7.464  0.00  0.00    +0.000 A 
ATOM     17  C   UNL     1      47.216   2.693   6.869  0.00  0.00    +0.000 A 
ATOM     18  C   UNL     1      47.163   1.366   7.261  0.00  0.00    +0.000 A 
ATOM     19  N   UNL     1      46.301   0.891   8.183  0.00  0.00    +0.000 NA
ATOM     20  C   UNL     1      45.458   1.788   8.744  0.00  0.00    +0.000 A 
ENDBRANCH  14  15
ENDBRANCH  13  14
ENDBRANCH   4  13
TORSDOF 4
ENDMDL
MODEL 4
REMARK VINA RESULT:    -7.284      1.395      1.968
REMARK INTER + INTRA:          -9.341
REMARK INTER:                  -9.449
REMARK INTRA:                   0.108
REMARK UNBOUND:                -0.353
REMARK  Name = 
REMARK  5 active torsions:
REMARK  status: ('A' for Active; 'I' for Inactive)
REMARK    1  A    between atoms: C_1  and  C_2
REMARK    2  A    between atoms: C_4  and  O_5
REMARK    3  A    between atoms: O_5  and  C_6
REMARK    4  A    between atoms: C_6  and  C_7
REMARK    5  A    between atoms: C_15  and  C_16
REMARK                            x       y       z     vdW  Elec       q    Type
REMARK                         _______ _______ _______ _____ _____    ______ ____
ROOT
ATOM      1  C   UNL     1      47.187   3.854   6.729  0.00  0.00    +0.000 C 
ATOM      2  C   UNL     1      46.184   3.333   7.721  0.00  0.00    +0.000 A 
ATOM      3  C   UNL     1      45.294   4.234   8.327  0.00  0.00    +0.000 A 
ATOM      4  C   UNL     1      44.339   3.754   9.210  0.00  0.00    +0.000 A 
ATOM      5  N   UNL     1      44.227   2.456   9.552  0.00  0.00    +0.000 NA
ATOM      6  C   UNL     1      45.100   1.600   8.968  0.00  0.00    +0.000 A 
ATOM      7  C   UNL     1      46.091   1.971   8.063  0.00  0.00    +0.000 A 
ENDROOT
BRANCH   7   8
ATOM      8  C   UNL     1      46.967   0.928   7.464  0.00  0.00    +0.000 C 
ATOM      9  N   UNL     1      46.666  -0.382   7.716  0.00  0.00    +0.000 N 
ATOM     10  O   UNL     1      47.938   1.207   6.771  0.00  0.00    +0.000 OA
ATOM     11  H   UNL     1      46.021  -0.691   8.430  0.00  0.00    +0.000 HD
ATOM     12  H   UNL     1      47.323  -1.066   7.357  0.00  0.00    +0.000 HD
ENDBRANCH   7   8
BRANCH   4  13
ATOM     13  O   UNL     1      43.486   4.681   9.775  0.00  0.00    +0.000 OA
BRANCH  13  14
ATOM     14  C   UNL     1      43.244   4.409  11.159  0.00  0.00    +0.000 C 
BRANCH  14  15
ATOM     15  C   UNL     1      44.447   4.779  11.988  0.00  0.00    +0.000 A 
ATOM     16  C   UNL     1      45.055   6.036  11.911  0.00  0.00    +0.000 A 
ATOM     17  C   UNL     1      46.201   6.297  12.657  0.00  0.00    +0.000 A 
ATOM     18  C   UNL     1      46.715   5.284  13.450  0.00  0.00    +0.000 A 
ATOM     19  N   UNL     1      46.170   4.053  13.537  0.00  0.00    +0.000 NA
ATOM     20  C   UNL     1      45.057   3.829  12.802  0.00  0.00    +0.000 A 
ENDBRANCH  14  15
ENDBRANCH  13  14
ENDBRANCH   4  13
TORSDOF 4
ENDMDL
MODEL 5
REMARK VINA RESULT:    -6.643      2.425      6.105
REMARK INTER + INTRA:          -8.550
REMARK INTER:                  -8.237
REMARK INTRA:                  -0.313
REMARK UNBOUND:                -0.353
REMARK  Name = 
REMARK  5 active torsions:
REMARK  status: ('A' for Active; 'I' for Inactive)
REMARK    1  A    between atoms: C_1  and  C_2
REMARK    2  A    between atoms: C_4  and  O_5
REMARK    3  A    between atoms: O_5  and  C_6
REMARK    4  A    between atoms: C_6  and  C_7
REMARK    5  A    between atoms: C_15  and  C_16
REMARK                            x       y       z     vdW  Elec       q    Type
REMARK                         _______ _______ _______ _____ _____    ______ ____
ROOT
ATOM      1  C   UNL     1      47.208   7.063  11.775  0.00  0.00    +0.000 C 
ATOM      2  C   UNL     1      45.895   6.390  11.487  0.00  0.00    +0.000 A 
ATOM      3  C   UNL     1      45.875   5.004  11.265  0.00  0.00    +0.000 A 
ATOM      4  C   UNL     1      44.663   4.369  11.042  0.00  0.00    +0.000 A 
ATOM      5  N   UNL     1      43.482   5.016  10.996  0.00  0.00    +0.000 NA
ATOM      6  C   UNL     1      43.518   6.354  11.201  0.00  0.00    +0.000 A 
ATOM      7  C   UNL     1      44.676   7.090  11.442  0.00  0.00    +0.000 A 
ENDROOT
BRANCH   7   8
ATOM      8  C   UNL     1      44.577   8.554  11.687  0.00  0.00    +0.000 C 
ATOM      9  N   UNL     1      44.938   9.023  12.920  0.00  0.00    +0.000 N 
ATOM     10  O   UNL     1      44.180   9.335  10.831  0.00  0.00    +0.000 OA
ATOM     11  H   UNL     1      45.078   8.439  13.732  0.00  0.00    +0.000 HD
ATOM     12  H   UNL     1      44.789  10.013  13.080  0.00  0.00    +0.000 HD
ENDBRANCH   7   8
BRANCH   4  13
ATOM     13  O   UNL     1      44.699   3.005  10.833  0.00  0.00    +0.000 OA
BRANCH  13  14
ATOM     14  C   UNL     1      44.232   2.653   9.526  0.00  0.00    +0.000 C 
BRANCH  14  15
ATOM     15  C   UNL     1      45.381   2.593   8.554  0.00  0.00    +0.000 A 
ATOM     16  C   UNL     1      45.755   3.683   7.762  0.00  0.00    +0.000 A 
ATOM     17  C   UNL     1      46.787   3.546   6.837  0.00  0.00    +0.000 A 
ATOM     18  C   UNL     1      47.407   2.313   6.722  0.00  0.00    +0.000 A 
ATOM     19  N   UNL     1      47.064   1.232   7.452  0.00  0.00    +0.000 NA
ATOM     20  C   UNL     1      46.060   1.395   8.344  0.00  0.00    +0.000 A 
ENDBRANCH  14  15
ENDBRANCH  13  14
ENDBRANCH   4  13
TORSDOF 4
ENDMDL
MODEL 6
REMARK VINA RESULT:    -6.239      2.765      6.411
REMARK INTER + INTRA:          -8.051
REMARK INTER:                  -7.482
REMARK INTRA:                  -0.570
REMARK UNBOUND:                -0.353
REMARK  Name = 
REMARK  5 active torsions:
REMARK  status: ('A' for Active; 'I' for Inactive)
REMARK    1  A    between atoms: C_1  and  C_2
REMARK    2  A    between atoms: C_4  and  O_5
REMARK    3  A    between atoms: O_5  and  C_6
REMARK    4  A    between atoms: C_6  and  C_7
REMARK    5  A    between atoms: C_15  and  C_16
REMARK                            x       y       z     vdW  Elec       q    Type
REMARK                         _______ _______ _______ _____ _____    ______ ____
ROOT
ATOM      1  C   UNL     1      45.046   9.162  11.883  0.00  0.00    +0.000 C 
ATOM      2  C   UNL     1      45.415   7.725  12.128  0.00  0.00    +0.000 A 
ATOM      3  C   UNL     1      44.549   6.714  11.682  0.00  0.00    +0.000 A 
ATOM      4  C   UNL     1      44.904   5.386  11.865  0.00  0.00    +0.000 A 
ATOM      5  N   UNL     1      46.036   4.997  12.482  0.00  0.00    +0.000 NA
ATOM      6  C   UNL     1      46.857   5.984  12.917  0.00  0.00    +0.000 A 
ATOM      7  C   UNL     1      46.604   7.346  12.778  0.00  0.00    +0.000 A 
ENDROOT
BRANCH   7   8
ATOM      8  C   UNL     1      47.604   8.332  13.269  0.00  0.00    +0.000 C 
ATOM      9  N   UNL     1      48.597   8.718  12.411  0.00  0.00    +0.000 N 
ATOM     10  O   UNL     1      47.567   8.792  14.404  0.00  0.00    +0.000 OA
ATOM     11  H   UNL     1      48.818   8.244  11.547  0.00  0.00    +0.000 HD
ATOM     12  H   UNL     1      49.305   9.332  12.799  0.00  0.00    +0.000 HD
ENDBRANCH   7   8
BRANCH   4  13
ATOM     13  O   UNL     1      44.019   4.432  11.406  0.00  0.00    +0.000 OA
BRANCH  13  14
ATOM     14  C   UNL     1      43.784   4.553   9.999  0.00  0.00    +0.000 C 
BRANCH  14  15
ATOM     15  C   UNL     1      44.755   3.699   9.226  0.00  0.00    +0.000 A 
ATOM     16  C   UNL     1      45.556   4.210   8.201  0.00  0.00    +0.000 A 
ATOM     17  C   UNL     1      46.389   3.357   7.482  0.00  0.00    +0.000 A 
ATOM     18  C   UNL     1      46.384   2.010   7.802  0.00  0.00    +0.000 A 
ATOM     19  N   UNL     1      45.612   1.473   8.769  0.00  0.00    +0.000 NA
ATOM     20  C   UNL     1      44.814   2.326   9.452  0.00  0.00    +0.000 A 
ENDBRANCH  14  15
ENDBRANCH  13  14
ENDBRANCH   4  13
TORSDOF 4
ENDMDL
MODEL 7
REMARK VINA RESULT:    -6.135      3.707      6.333
REMARK INTER + INTRA:          -7.923
REMARK INTER:                  -7.592
REMARK INTRA:                  -0.331
REMARK UNBOUND:                -0.353
REMARK  Name = 
REMARK  5 active torsions:
REMARK  status: ('A' for Active; 'I' for Inactive)
REMARK    1  A    between atoms: C_1  and  C_2
REMARK    2  A    between atoms: C_4  and  O_5
REMARK    3  A    between atoms: O_5  and  C_6
REMARK    4  A    between atoms: C_6  and  C_7
REMARK    5  A    between atoms: C_15  and  C_16
REMARK                            x       y       z     vdW  Elec       q    Type
REMARK                         _______ _______ _______ _____ _____    ______ ____
ROOT
ATOM      1  C   UNL     1      44.489   6.899  11.846  0.00  0.00    +0.000 C 
ATOM      2  C   UNL     1      45.176   5.673  12.382  0.00  0.00    +0.000 A 
ATOM      3  C   UNL     1      46.110   5.816  13.421  0.00  0.00    +0.000 A 
ATOM      4  C   UNL     1      46.716   4.686  13.949  0.00  0.00    +0.000 A 
ATOM      5  N   UNL     1      46.481   3.437  13.501  0.00  0.00    +0.000 NA
ATOM      6  C   UNL     1      45.585   3.317  12.492  0.00  0.00    +0.000 A 
ATOM      7  C   UNL     1      44.914   4.380  11.894  0.00  0.00    +0.000 A 
ENDROOT
BRANCH   7   8
ATOM      8  C   UNL     1      43.926   4.112  10.814  0.00  0.00    +0.000 C 
ATOM      9  N   UNL     1      44.292   4.394   9.526  0.00  0.00    +0.000 N 
ATOM     10  O   UNL     1      42.811   3.662  11.045  0.00  0.00    +0.000 OA
ATOM     11  H   UNL     1      45.099   4.947   9.272  0.00  0.00    +0.000 HD
ATOM     12  H   UNL     1      43.573   4.271   8.823  0.00  0.00    +0.000 HD
ENDBRANCH   7   8
BRANCH   4  13
ATOM     13  O   UNL     1      47.624   4.880  14.970  0.00  0.00    +0.000 OA
BRANCH  13  14
ATOM     14  C   UNL     1      47.358   4.031  16.091  0.00  0.00    +0.000 C 
BRANCH  14  15
ATOM     15  C   UNL     1      48.639   3.451  16.629  0.00  0.00    +0.000 A 
ATOM     16  C   UNL     1      49.516   4.182  17.437  0.00  0.00    +0.000 A 
ATOM     17  C   UNL     1      50.716   3.610  17.852  0.00  0.00    +0.000 A 
ATOM     18  C   UNL     1      51.009   2.323  17.435  0.00  0.00    +0.000 A 
ATOM     19  N   UNL     1      50.201   1.591  16.641  0.00  0.00    +0.000 NA
ATOM     20  C   UNL     1      49.043   2.172  16.254  0.00  0.00    +0.000 A 
ENDBRANCH  14  15
ENDBRANCH  13  14
ENDBRANCH   4  13
TORSDOF 4
ENDMDL
MODEL 8
REMARK VINA RESULT:    -5.909      3.900      6.157
REMARK INTER + INTRA:          -7.643
REMARK INTER:                  -7.204
REMARK INTRA:                  -0.439
REMARK UNBOUND:                -0.353
REMARK  Name = 
REMARK  5 active torsions:
REMARK  status: ('A' for Active; 'I' for Inactive)
REMARK    1  A    between atoms: C_1  and  C_2
REMARK    2  A    between atoms: C_4  and  O_5
REMARK    3  A    between atoms: O_5  and  C_6
REMARK    4  A    between atoms: C_6  and  C_7
REMARK    5  A    between atoms: C_15  and  C_16
REMARK                            x       y       z     vdW  Elec       q    Type
REMARK                         _______ _______ _______ _____ _____    ______ ____
ROOT
ATOM      1  C   UNL     1      45.320   7.152  12.103  0.00  0.00    +0.000 C 
ATOM      2  C   UNL     1      45.544   5.692  12.384  0.00  0.00    +0.000 A 
ATOM      3  C   UNL     1      46.490   5.323  13.355  0.00  0.00    +0.000 A 
ATOM      4  C   UNL     1      46.671   3.981  13.650  0.00  0.00    +0.000 A 
ATOM      5  N   UNL     1      46.004   2.987  13.032  0.00  0.00    +0.000 NA
ATOM      6  C   UNL     1      45.103   3.357  12.091  0.00  0.00    +0.000 A 
ATOM      7  C   UNL     1      44.836   4.673  11.722  0.00  0.00    +0.000 A 
ENDROOT
BRANCH   7   8
ATOM      8  C   UNL     1      43.795   4.951  10.695  0.00  0.00    +0.000 C 
ATOM      9  N   UNL     1      44.127   4.768   9.381  0.00  0.00    +0.000 N 
ATOM     10  O   UNL     1      42.673   5.342  10.991  0.00  0.00    +0.000 OA
ATOM     11  H   UNL     1      45.072   4.649   9.044  0.00  0.00    +0.000 HD
ATOM     12  H   UNL     1      43.423   5.037   8.703  0.00  0.00    +0.000 HD
ENDBRANCH   7   8
BRANCH   4  13
ATOM     13  O   UNL     1      47.610   3.672  14.613  0.00  0.00    +0.000 OA
BRANCH  13  14
ATOM     14  C   UNL     1      47.161   4.017  15.927  0.00  0.00    +0.000 C 
BRANCH  14  15
ATOM     15  C   UNL     1      48.277   4.647  16.718  0.00  0.00    +0.000 A 
ATOM     16  C   UNL     1      48.788   5.915  16.421  0.00  0.00    +0.000 A 
ATOM     17  C   UNL     1      49.863   6.417  17.150  0.00  0.00    +0.000 A 
ATOM     18  C   UNL     1      50.405   5.627  18.149  0.00  0.00    +0.000 A 
ATOM     19  N   UNL     1      49.956   4.393  18.455  0.00  0.00    +0.000 NA
ATOM     20  C   UNL     1      48.910   3.931  17.731  0.00  0.00    +0.000 A 
ENDBRANCH  14  15
ENDBRANCH  13  14
ENDBRANCH   4  13
TORSDOF 4
ENDMDL
MODEL 9
REMARK VINA RESULT:    -5.582      4.348      6.276
REMARK INTER + INTRA:          -7.240
REMARK INTER:                  -6.866
REMARK INTRA:                  -0.374
REMARK UNBOUND:                -0.353
REMARK  Name = 
REMARK  5 active torsions:
REMARK  status: ('A' for Active; 'I' for Inactive)
REMARK    1  A    between atoms: C_1  and  C_2
REMARK    2  A    between atoms: C_4  and  O_5
REMARK    3  A    between atoms: O_5  and  C_6
REMARK    4  A    between atoms: C_6  and  C_7
REMARK    5  A    between atoms: C_15  and  C_16
REMARK                            x       y       z     vdW  Elec       q    Type
REMARK                         _______ _______ _______ _____ _____    ______ ____
ROOT
ATOM      1  C   UNL     1      44.750   2.937  12.193  0.00  0.00    +0.000 C 
ATOM      2  C   UNL     1      45.297   4.305  12.497  0.00  0.00    +0.000 A 
ATOM      3  C   UNL     1      46.522   4.413  13.174  0.00  0.00    +0.000 A 
ATOM      4  C   UNL     1      47.054   5.669  13.419  0.00  0.00    +0.000 A 
ATOM      5  N   UNL     1      46.443   6.817  13.066  0.00  0.00    +0.000 NA
ATOM      6  C   UNL     1      45.257   6.697  12.423  0.00  0.00    +0.000 A 
ATOM      7  C   UNL     1      44.637   5.488  12.119  0.00  0.00    +0.000 A 
ENDROOT
BRANCH   7   8
ATOM      8  C   UNL     1      43.347   5.491  11.377  0.00  0.00    +0.000 C 
ATOM      9  N   UNL     1      42.226   5.907  12.042  0.00  0.00    +0.000 N 
ATOM     10  O   UNL     1      43.263   5.127  10.210  0.00  0.00    +0.000 OA
ATOM     11  H   UNL     1      42.170   6.025  13.043  0.00  0.00    +0.000 HD
ATOM     12  H   UNL     1      41.353   5.826  11.533  0.00  0.00    +0.000 HD
ENDBRANCH   7   8
BRANCH   4  13
ATOM     13  O   UNL     1      48.262   5.720  14.086  0.00  0.00    +0.000 OA
BRANCH  13  14
ATOM     14  C   UNL     1      48.113   6.204  15.424  0.00  0.00    +0.000 C 
BRANCH  14  15
ATOM     15  C   UNL     1      48.263   5.077  16.412  0.00  0.00    +0.000 A 
ATOM     16  C   UNL     1      47.270   4.112  16.609  0.00  0.00    +0.000 A 
ATOM     17  C   UNL     1      47.441   3.131  17.582  0.00  0.00    +0.000 A 
ATOM     18  C   UNL     1      48.599   3.152  18.341  0.00  0.00    +0.000 A 
ATOM     19  N   UNL     1      49.571   4.076  18.196  0.00  0.00    +0.000 NA
ATOM     20  C   UNL     1      49.378   5.016  17.243  0.00  0.00    +0.000 A 
ENDBRANCH  14  15
ENDBRANCH  13  14
ENDBRANCH   4  13
TORSDOF 4
ENDMDL
