MODEL 1
REMARK VINA RESULT:    -8.442      0.000      0.000
REMARK INTER + INTRA:         -11.700
REMARK INTER:                 -10.909
REMARK INTRA:                  -0.791
REMARK UNBOUND:                -0.791
REMARK  Name = 
REMARK  5 active torsions:
REMARK  status: ('A' for Active; 'I' for Inactive)
REMARK    1  A    between atoms: C_2  and  C_4
REMARK    2  A    between atoms: C_7  and  N_8
REMARK    3  A    between atoms: N_8  and  C_9
REMARK    4  A    between atoms: C_9  and  C_10
REMARK    5  A    between atoms: C_12  and  N_13
REMARK                            x       y       z     vdW  Elec       q    Type
REMARK                         _______ _______ _______ _____ _____    ______ ____
ROOT
ATOM      1  C   UNL     1      43.554   4.528  11.464  0.00  0.00    +0.000 C 
ENDROOT
BRANCH   1   2
ATOM      2  C   UNL     1      44.813   4.757  12.281  0.00  0.00    +0.000 A 
ATOM      3  C   UNL     1      45.410   6.020  12.344  0.00  0.00    +0.000 A 
ATOM      4  C   UNL     1      46.615   6.201  13.034  0.00  0.00    +0.000 A 
ATOM      5  C   UNL     1      47.160   5.070  13.648  0.00  0.00    +0.000 A 
ATOM      6  C   UNL     1      46.502   3.854  13.562  0.00  0.00    +0.000 A 
ATOM      7  N   UNL     1      45.346   3.672  12.894  0.00  0.00    +0.000 NA
BRANCH   4   8
ATOM      8  N   UNL     1      47.252   7.424  13.118  0.00  0.00    +0.000 N 
ATOM      9  C   UNL     1      46.526   8.691  13.284  0.00  0.00    +0.000 C 
ATOM     10  C   UNL     1      46.831   9.659  12.122  0.00  0.00    +0.000 C 
ATOM     11  N   UNL     1      48.279   9.878  11.903  0.00  0.00    +0.000 NA
ATOM     12  C   UNL     1      48.923   8.565  11.683  0.00  0.00    +0.000 C 
ATOM     13  C   UNL     1      48.690   7.553  12.830  0.00  0.00    +0.000 C 
ATOM     14  H   UNL     1      48.669  10.279  12.756  0.00  0.00    +0.000 HD
ENDBRANCH   4   8
ENDBRANCH   1   2
BRANCH   1  15
ATOM     15  N   UNL     1      43.768   4.786  10.040  0.00  0.00    +0.000 N 
ATOM     16  H   UNL     1      42.908   5.044   9.558  0.00  0.00    +0.000 HD
BRANCH  15  20
ATOM     17  C   UNL     1      46.336   2.285   7.794  0.00  0.00    +0.000 A 
ATOM     18  C   UNL     1      45.432   1.709   8.691  0.00  0.00    +0.000 A 
ATOM     19  C   UNL     1      44.561   2.522   9.432  0.00  0.00    +0.000 A 
ATOM     20  C   UNL     1      44.548   3.915   9.274  0.00  0.00    +0.000 A 
ATOM     21  C   UNL     1      45.460   4.473   8.365  0.00  0.00    +0.000 A 
ATOM     22  C   UNL     1      46.350   3.673   7.639  0.00  0.00    +0.000 A 
BRANCH  17  24
ATOM     23  N   UNL     1      48.422   2.119   6.541  0.00  0.00    +0.000 N 
ATOM     24  C   UNL     1      47.325   1.474   7.041  0.00  0.00    +0.000 C 
ATOM     25  O   UNL     1      47.189   0.265   6.893  0.00  0.00    +0.000 OA
ATOM     26  H   UNL     1      49.130   1.531   6.118  0.00  0.00    +0.000 HD
ATOM     27  H   UNL     1      48.699   3.039   6.851  0.00  0.00    +0.000 HD
ENDBRANCH  17  24
ENDBRANCH  15  20
ENDBRANCH   1  15
TORSDOF 5
ENDMDL
MODEL 2
REMARK VINA RESULT:    -8.005      1.711      2.932
REMARK INTER + INTRA:         -11.136
REMARK INTER:                 -10.679
REMARK INTRA:                  -0.458
REMARK UNBOUND:                -0.791
REMARK  Name = 
REMARK  5 active torsions:
REMARK  status: ('A' for Active; 'I' for Inactive)
REMARK    1  A    between atoms: C_2  and  C_4
REMARK    2  A    between atoms: C_7  and  N_8
REMARK    3  A    between atoms: N_8  and  C_9
REMARK    4  A    between atoms: C_9  and  C_10
REMARK    5  A    between atoms: C_12  and  N_13
REMARK                            x       y       z     vdW  Elec       q    Type
REMARK                         _______ _______ _______ _____ _____    ______ ____
ROOT
ATOM      1  C   UNL     1      43.445   5.338  10.654  0.00  0.00    +0.000 C 
ENDROOT
BRANCH   1   2
ATOM      2  C   UNL     1      44.469   6.128  11.450  0.00  0.00    +0.000 A 
ATOM      3  C   UNL     1      45.442   5.479  12.216  0.00  0.00    +0.000 A 
ATOM      4  C   UNL     1      46.328   6.217  13.010  0.00  0.00    +0.000 A 
ATOM      5  C   UNL     1      46.187   7.607  12.978  0.00  0.00    +0.000 A 
ATOM      6  C   UNL     1      45.213   8.183  12.178  0.00  0.00    +0.000 A 
ATOM      7  N   UNL     1      44.353   7.479  11.418  0.00  0.00    +0.000 NA
BRANCH   4   8
ATOM      8  N   UNL     1      47.301   5.625  13.793  0.00  0.00    +0.000 N 
ATOM      9  C   UNL     1      47.135   4.299  14.404  0.00  0.00    +0.000 C 
ATOM     10  C   UNL     1      47.263   4.379  15.939  0.00  0.00    +0.000 C 
ATOM     11  N   UNL     1      48.506   5.043  16.393  0.00  0.00    +0.000 NA
ATOM     12  C   UNL     1      48.565   6.390  15.785  0.00  0.00    +0.000 C 
ATOM     13  C   UNL     1      48.481   6.385  14.240  0.00  0.00    +0.000 C 
ATOM     14  H   UNL     1      49.297   4.505  16.040  0.00  0.00    +0.000 HD
ENDBRANCH   4   8
ENDBRANCH   1   2
BRANCH   1  15
ATOM     15  N   UNL     1      43.786   3.918  10.574  0.00  0.00    +0.000 N 
ATOM     16  H   UNL     1      44.060   3.533  11.477  0.00  0.00    +0.000 HD
BRANCH  15  20
ATOM     17  C   UNL     1      46.431   2.661   7.521  0.00  0.00    +0.000 A 
ATOM     18  C   UNL     1      45.878   1.710   8.381  0.00  0.00    +0.000 A 
ATOM     19  C   UNL     1      44.985   2.106   9.389  0.00  0.00    +0.000 A 
ATOM     20  C   UNL     1      44.602   3.446   9.541  0.00  0.00    +0.000 A 
ATOM     21  C   UNL     1      45.165   4.385   8.664  0.00  0.00    +0.000 A 
ATOM     22  C   UNL     1      46.076   4.004   7.671  0.00  0.00    +0.000 A 
BRANCH  17  24
ATOM     23  N   UNL     1      47.397   2.990   5.305  0.00  0.00    +0.000 N 
ATOM     24  C   UNL     1      47.433   2.302   6.486  0.00  0.00    +0.000 C 
ATOM     25  O   UNL     1      48.285   1.444   6.684  0.00  0.00    +0.000 OA
ATOM     26  H   UNL     1      48.150   2.798   4.655  0.00  0.00    +0.000 HD
ATOM     27  H   UNL     1      46.894   3.858   5.198  0.00  0.00    +0.000 HD
ENDBRANCH  17  24
ENDBRANCH  15  20
ENDBRANCH   1  15
TORSDOF 5
ENDMDL
MODEL 3
REMARK VINA RESULT:    -7.820      1.620      2.565
REMARK INTER + INTRA:         -10.897
REMARK INTER:                 -10.199
REMARK INTRA:                  -0.698
REMARK UNBOUND:                -0.791
REMARK  Name = 
REMARK  5 active torsions:
REMARK  status: ('A' for Active; 'I' for Inactive)
REMARK    1  A    between atoms: C_2  and  C_4
REMARK    2  A    between atoms: C_7  and  N_8
REMARK    3  A    between atoms: N_8  and  C_9
REMARK    4  A    between atoms: C_9  and  C_10
REMARK    5  A    between atoms: C_12  and  N_13
REMARK                            x       y       z     vdW  Elec       q    Type
REMARK                         _______ _______ _______ _____ _____    ______ ____
ROOT
ATOM      1  C   UNL     1      43.899   5.235  11.245  0.00  0.00    +0.000 C 
ENDROOT
BRANCH   1   2
ATOM      2  C   UNL     1      44.878   6.362  11.525  0.00  0.00    +0.000 A 
ATOM      3  C   UNL     1      46.182   6.092  11.952  0.00  0.00    +0.000 A 
ATOM      4  C   UNL     1      47.049   7.140  12.286  0.00  0.00    +0.000 A 
ATOM      5  C   UNL     1      46.543   8.435  12.157  0.00  0.00    +0.000 A 
ATOM      6  C   UNL     1      45.246   8.628  11.707  0.00  0.00    +0.000 A 
ATOM      7  N   UNL     1      44.405   7.625  11.391  0.00  0.00    +0.000 NA
BRANCH   4   8
ATOM      8  N   UNL     1      48.343   6.929  12.722  0.00  0.00    +0.000 N 
ATOM      9  C   UNL     1      48.667   6.559  14.107  0.00  0.00    +0.000 C 
ATOM     10  C   UNL     1      49.608   7.600  14.750  0.00  0.00    +0.000 C 
ATOM     11  N   UNL     1      50.826   7.866  13.951  0.00  0.00    +0.000 NA
ATOM     12  C   UNL     1      50.413   8.291  12.597  0.00  0.00    +0.000 C 
ATOM     13  C   UNL     1      49.495   7.276  11.873  0.00  0.00    +0.000 C 
ATOM     14  H   UNL     1      51.341   6.990  13.862  0.00  0.00    +0.000 HD
ENDBRANCH   4   8
ENDBRANCH   1   2
BRANCH   1  15
ATOM     15  N   UNL     1      43.801   4.933   9.817  0.00  0.00    +0.000 N 
ATOM     16  H   UNL     1      42.841   4.763   9.521  0.00  0.00    +0.000 HD
BRANCH  15  20
ATOM     17  C   UNL     1      46.295   2.073   7.948  0.00  0.00    +0.000 A 
ATOM     18  C   UNL     1      46.459   3.427   7.644  0.00  0.00    +0.000 A 
ATOM     19  C   UNL     1      45.653   4.392   8.268  0.00  0.00    +0.000 A 
ATOM     20  C   UNL     1      44.692   4.034   9.224  0.00  0.00    +0.000 A 
ATOM     21  C   UNL     1      44.546   2.670   9.518  0.00  0.00    +0.000 A 
ATOM     22  C   UNL     1      45.329   1.698   8.883  0.00  0.00    +0.000 A 
BRANCH  17  24
ATOM     23  N   UNL     1      46.804  -0.287   7.599  0.00  0.00    +0.000 N 
ATOM     24  C   UNL     1      47.074   1.011   7.264  0.00  0.00    +0.000 C 
ATOM     25  O   UNL     1      47.909   1.275   6.406  0.00  0.00    +0.000 OA
ATOM     26  H   UNL     1      47.275  -0.996   7.050  0.00  0.00    +0.000 HD
ATOM     27  H   UNL     1      45.968  -0.556   8.097  0.00  0.00    +0.000 HD
ENDBRANCH  17  24
ENDBRANCH  15  20
ENDBRANCH   1  15
TORSDOF 5
ENDMDL
MODEL 4
REMARK VINA RESULT:    -7.316      1.325      1.817
REMARK INTER + INTRA:         -10.246
REMARK INTER:                  -9.529
REMARK INTRA:                  -0.717
REMARK UNBOUND:                -0.791
REMARK  Name = 
REMARK  5 active torsions:
REMARK  status: ('A' for Active; 'I' for Inactive)
REMARK    1  A    between atoms: C_2  and  C_4
REMARK    2  A    between atoms: C_7  and  N_8
REMARK    3  A    between atoms: N_8  and  C_9
REMARK    4  A    between atoms: C_9  and  C_10
REMARK    5  A    between atoms: C_12  and  N_13
REMARK                            x       y       z     vdW  Elec       q    Type
REMARK                         _______ _______ _______ _____ _____    ______ ____
ROOT
ATOM      1  C   UNL     1      44.462   6.137  10.879  0.00  0.00    +0.000 C 
ENDROOT
BRANCH   1   2
ATOM      2  C   UNL     1      45.470   5.887  11.987  0.00  0.00    +0.000 A 
ATOM      3  C   UNL     1      46.704   6.545  11.999  0.00  0.00    +0.000 A 
ATOM      4  C   UNL     1      47.657   6.245  12.980  0.00  0.00    +0.000 A 
ATOM      5  C   UNL     1      47.299   5.281  13.926  0.00  0.00    +0.000 A 
ATOM      6  C   UNL     1      46.050   4.685  13.864  0.00  0.00    +0.000 A 
ATOM      7  N   UNL     1      45.131   4.964  12.920  0.00  0.00    +0.000 NA
BRANCH   4   8
ATOM      8  N   UNL     1      48.894   6.858  13.032  0.00  0.00    +0.000 N 
ATOM      9  C   UNL     1      49.532   7.259  14.294  0.00  0.00    +0.000 C 
ATOM     10  C   UNL     1      49.814   8.776  14.312  0.00  0.00    +0.000 C 
ATOM     11  N   UNL     1      50.578   9.247  13.134  0.00  0.00    +0.000 NA
ATOM     12  C   UNL     1      49.840   8.859  11.912  0.00  0.00    +0.000 C 
ATOM     13  C   UNL     1      49.554   7.342  11.808  0.00  0.00    +0.000 C 
ATOM     14  H   UNL     1      51.475   8.761  13.126  0.00  0.00    +0.000 HD
ENDBRANCH   4   8
ENDBRANCH   1   2
BRANCH   1  15
ATOM     15  N   UNL     1      43.974   4.892  10.287  0.00  0.00    +0.000 N 
ATOM     16  H   UNL     1      43.456   4.322  10.953  0.00  0.00    +0.000 HD
BRANCH  15  20
ATOM     17  C   UNL     1      46.320   2.399   7.801  0.00  0.00    +0.000 A 
ATOM     18  C   UNL     1      46.393   3.785   7.644  0.00  0.00    +0.000 A 
ATOM     19  C   UNL     1      45.636   4.629   8.472  0.00  0.00    +0.000 A 
ATOM     20  C   UNL     1      44.817   4.115   9.487  0.00  0.00    +0.000 A 
ATOM     21  C   UNL     1      44.761   2.720   9.631  0.00  0.00    +0.000 A 
ATOM     22  C   UNL     1      45.494   1.869   8.795  0.00  0.00    +0.000 A 
BRANCH  17  24
ATOM     23  N   UNL     1      47.712   1.998   5.839  0.00  0.00    +0.000 N 
ATOM     24  C   UNL     1      47.046   1.463   6.906  0.00  0.00    +0.000 C 
ATOM     25  O   UNL     1      47.079   0.258   7.125  0.00  0.00    +0.000 OA
ATOM     26  H   UNL     1      48.281   1.354   5.301  0.00  0.00    +0.000 HD
ATOM     27  H   UNL     1      47.923   2.982   5.767  0.00  0.00    +0.000 HD
ENDBRANCH  17  24
ENDBRANCH  15  20
ENDBRANCH   1  15
TORSDOF 5
ENDMDL
MODEL 5
REMARK VINA RESULT:    -6.714      5.194      8.279
REMARK INTER + INTRA:          -9.468
REMARK INTER:                  -8.938
REMARK INTRA:                  -0.530
REMARK UNBOUND:                -0.791
REMARK  Name = 
REMARK  5 active torsions:
REMARK  status: ('A' for Active; 'I' for Inactive)
REMARK    1  A    between atoms: C_2  and  C_4
REMARK    2  A    between atoms: C_7  and  N_8
REMARK    3  A    between atoms: N_8  and  C_9
REMARK    4  A    between atoms: C_9  and  C_10
REMARK    5  A    between atoms: C_12  and  N_13
REMARK                            x       y       z     vdW  Elec       q    Type
REMARK                         _______ _______ _______ _____ _____    ______ ____
ROOT
ATOM      1  C   UNL     1      47.721   4.227  16.503  0.00  0.00    +0.000 C 
ENDROOT
BRANCH   1   2
ATOM      2  C   UNL     1      47.485   4.933  15.180  0.00  0.00    +0.000 A 
ATOM      3  C   UNL     1      46.510   4.479  14.286  0.00  0.00    +0.000 A 
ATOM      4  C   UNL     1      46.358   5.088  13.034  0.00  0.00    +0.000 A 
ATOM      5  C   UNL     1      47.213   6.156  12.751  0.00  0.00    +0.000 A 
ATOM      6  C   UNL     1      48.142   6.565  13.693  0.00  0.00    +0.000 A 
ATOM      7  N   UNL     1      48.298   5.980  14.896  0.00  0.00    +0.000 NA
BRANCH   4   8
ATOM      8  N   UNL     1      45.418   4.674  12.110  0.00  0.00    +0.000 N 
ATOM      9  C   UNL     1      44.572   5.612  11.358  0.00  0.00    +0.000 C 
ATOM     10  C   UNL     1      43.076   5.337  11.619  0.00  0.00    +0.000 C 
ATOM     11  N   UNL     1      42.686   3.929  11.379  0.00  0.00    +0.000 NA
ATOM     12  C   UNL     1      43.538   3.058  12.216  0.00  0.00    +0.000 C 
ATOM     13  C   UNL     1      45.056   3.253  11.981  0.00  0.00    +0.000 C 
ATOM     14  H   UNL     1      42.879   3.711  10.402  0.00  0.00    +0.000 HD
ENDBRANCH   4   8
ENDBRANCH   1   2
BRANCH   1  15
ATOM     15  N   UNL     1      48.915   4.722  17.186  0.00  0.00    +0.000 N 
ATOM     16  H   UNL     1      49.229   5.619  16.820  0.00  0.00    +0.000 HD
BRANCH  15  20
ATOM     17  C   UNL     1      52.129   2.023  17.720  0.00  0.00    +0.000 A 
ATOM     18  C   UNL     1      52.333   3.385  17.956  0.00  0.00    +0.000 A 
ATOM     19  C   UNL     1      51.274   4.293  17.801  0.00  0.00    +0.000 A 
ATOM     20  C   UNL     1      49.990   3.863  17.440  0.00  0.00    +0.000 A 
ATOM     21  C   UNL     1      49.805   2.491  17.212  0.00  0.00    +0.000 A 
ATOM     22  C   UNL     1      50.860   1.580  17.341  0.00  0.00    +0.000 A 
BRANCH  17  24
ATOM     23  N   UNL     1      52.916  -0.237  18.194  0.00  0.00    +0.000 N 
ATOM     24  C   UNL     1      53.233   1.033  17.802  0.00  0.00    +0.000 C 
ATOM     25  O   UNL     1      54.384   1.327  17.501  0.00  0.00    +0.000 OA
ATOM     26  H   UNL     1      53.664  -0.918  18.147  0.00  0.00    +0.000 HD
ATOM     27  H   UNL     1      51.967  -0.582  18.201  0.00  0.00    +0.000 HD
ENDBRANCH  17  24
ENDBRANCH  15  20
ENDBRANCH   1  15
TORSDOF 5
ENDMDL
MODEL 6
REMARK VINA RESULT:    -6.691      4.336      8.286
REMARK INTER + INTRA:          -9.438
REMARK INTER:                  -9.023
REMARK INTRA:                  -0.415
REMARK UNBOUND:                -0.791
REMARK  Name = 
REMARK  5 active torsions:
REMARK  status: ('A' for Active; 'I' for Inactive)
REMARK    1  A    between atoms: C_2  and  C_4
REMARK    2  A    between atoms: C_7  and  N_8
REMARK    3  A    between atoms: N_8  and  C_9
REMARK    4  A    between atoms: C_9  and  C_10
REMARK    5  A    between atoms: C_12  and  N_13
REMARK                            x       y       z     vdW  Elec       q    Type
REMARK                         _______ _______ _______ _____ _____    ______ ____
ROOT
ATOM      1  C   UNL     1      46.446   5.066  13.762  0.00  0.00    +0.000 C 
ENDROOT
BRANCH   1   2
ATOM      2  C   UNL     1      45.291   4.746  12.831  0.00  0.00    +0.000 A 
ATOM      3  C   UNL     1      45.518   4.208  11.560  0.00  0.00    +0.000 A 
ATOM      4  C   UNL     1      44.451   3.994  10.680  0.00  0.00    +0.000 A 
ATOM      5  C   UNL     1      43.178   4.333  11.146  0.00  0.00    +0.000 A 
ATOM      6  C   UNL     1      43.025   4.841  12.426  0.00  0.00    +0.000 A 
ATOM      7  N   UNL     1      44.048   5.057  13.275  0.00  0.00    +0.000 NA
BRANCH   4   8
ATOM      8  N   UNL     1      44.621   3.475   9.410  0.00  0.00    +0.000 N 
ATOM      9  C   UNL     1      44.606   2.032   9.131  0.00  0.00    +0.000 C 
ATOM     10  C   UNL     1      45.933   1.582   8.485  0.00  0.00    +0.000 C 
ATOM     11  N   UNL     1      46.303   2.371   7.288  0.00  0.00    +0.000 NA
ATOM     12  C   UNL     1      46.356   3.799   7.668  0.00  0.00    +0.000 C 
ATOM     13  C   UNL     1      45.043   4.332   8.290  0.00  0.00    +0.000 C 
ATOM     14  H   UNL     1      45.563   2.259   6.596  0.00  0.00    +0.000 HD
ENDBRANCH   4   8
ENDBRANCH   1   2
BRANCH   1  15
ATOM     15  N   UNL     1      46.708   3.982  14.708  0.00  0.00    +0.000 N 
ATOM     16  H   UNL     1      45.914   3.350  14.804  0.00  0.00    +0.000 HD
BRANCH  15  20
ATOM     17  C   UNL     1      48.627   4.569  18.432  0.00  0.00    +0.000 A 
ATOM     18  C   UNL     1      48.749   5.543  17.439  0.00  0.00    +0.000 A 
ATOM     19  C   UNL     1      48.105   5.374  16.203  0.00  0.00    +0.000 A 
ATOM     20  C   UNL     1      47.306   4.253  15.943  0.00  0.00    +0.000 A 
ATOM     21  C   UNL     1      47.192   3.288  16.956  0.00  0.00    +0.000 A 
ATOM     22  C   UNL     1      47.850   3.436  18.182  0.00  0.00    +0.000 A 
BRANCH  17  24
ATOM     23  N   UNL     1      48.787   4.045  20.810  0.00  0.00    +0.000 N 
ATOM     24  C   UNL     1      49.345   4.668  19.728  0.00  0.00    +0.000 C 
ATOM     25  O   UNL     1      50.414   5.258  19.828  0.00  0.00    +0.000 OA
ATOM     26  H   UNL     1      49.342   4.041  21.657  0.00  0.00    +0.000 HD
ATOM     27  H   UNL     1      48.062   3.349  20.721  0.00  0.00    +0.000 HD
ENDBRANCH  17  24
ENDBRANCH  15  20
ENDBRANCH   1  15
TORSDOF 5
ENDMDL
MODEL 7
REMARK VINA RESULT:    -6.535      2.706      6.882
REMARK INTER + INTRA:          -9.236
REMARK INTER:                  -8.524
REMARK INTRA:                  -0.712
REMARK UNBOUND:                -0.791
REMARK  Name = 
REMARK  5 active torsions:
REMARK  status: ('A' for Active; 'I' for Inactive)
REMARK    1  A    between atoms: C_2  and  C_4
REMARK    2  A    between atoms: C_7  and  N_8
REMARK    3  A    between atoms: N_8  and  C_9
REMARK    4  A    between atoms: C_9  and  C_10
REMARK    5  A    between atoms: C_12  and  N_13
REMARK                            x       y       z     vdW  Elec       q    Type
REMARK                         _______ _______ _______ _____ _____    ______ ____
ROOT
ATOM      1  C   UNL     1      46.695   4.405  13.636  0.00  0.00    +0.000 C 
ENDROOT
BRANCH   1   2
ATOM      2  C   UNL     1      45.549   3.976  12.738  0.00  0.00    +0.000 A 
ATOM      3  C   UNL     1      45.774   3.623  11.404  0.00  0.00    +0.000 A 
ATOM      4  C   UNL     1      44.699   3.308  10.563  0.00  0.00    +0.000 A 
ATOM      5  C   UNL     1      43.424   3.357  11.133  0.00  0.00    +0.000 A 
ATOM      6  C   UNL     1      43.279   3.694  12.469  0.00  0.00    +0.000 A 
ATOM      7  N   UNL     1      44.307   4.005  13.281  0.00  0.00    +0.000 NA
BRANCH   4   8
ATOM      8  N   UNL     1      44.864   2.962   9.236  0.00  0.00    +0.000 N 
ATOM      9  C   UNL     1      45.083   1.578   8.794  0.00  0.00    +0.000 C 
ATOM     10  C   UNL     1      46.417   1.446   8.030  0.00  0.00    +0.000 C 
ATOM     11  N   UNL     1      46.555   2.408   6.914  0.00  0.00    +0.000 NA
ATOM     12  C   UNL     1      46.384   3.775   7.452  0.00  0.00    +0.000 C 
ATOM     13  C   UNL     1      45.047   3.993   8.200  0.00  0.00    +0.000 C 
ATOM     14  H   UNL     1      45.797   2.235   6.254  0.00  0.00    +0.000 HD
ENDBRANCH   4   8
ENDBRANCH   1   2
BRANCH   1  15
ATOM     15  N   UNL     1      46.594   5.812  14.023  0.00  0.00    +0.000 N 
ATOM     16  H   UNL     1      45.644   6.078  14.278  0.00  0.00    +0.000 HD
BRANCH  15  20
ATOM     17  C   UNL     1      48.455   8.965  11.905  0.00  0.00    +0.000 A 
ATOM     18  C   UNL     1      49.108   7.735  12.015  0.00  0.00    +0.000 A 
ATOM     19  C   UNL     1      48.499   6.673  12.699  0.00  0.00    +0.000 A 
ATOM     20  C   UNL     1      47.220   6.801  13.258  0.00  0.00    +0.000 A 
ATOM     21  C   UNL     1      46.579   8.042  13.133  0.00  0.00    +0.000 A 
ATOM     22  C   UNL     1      47.188   9.116  12.474  0.00  0.00    +0.000 A 
BRANCH  17  24
ATOM     23  N   UNL     1      50.452  10.213  11.267  0.00  0.00    +0.000 N 
ATOM     24  C   UNL     1      49.087  10.140  11.253  0.00  0.00    +0.000 C 
ATOM     25  O   UNL     1      48.419  11.003  10.695  0.00  0.00    +0.000 OA
ATOM     26  H   UNL     1      50.863  10.969  10.732  0.00  0.00    +0.000 HD
ATOM     27  H   UNL     1      51.036   9.419  11.481  0.00  0.00    +0.000 HD
ENDBRANCH  17  24
ENDBRANCH  15  20
ENDBRANCH   1  15
TORSDOF 5
ENDMDL
MODEL 8
REMARK VINA RESULT:    -6.179      3.601      5.847
REMARK INTER + INTRA:          -8.777
REMARK INTER:                  -8.226
REMARK INTRA:                  -0.551
REMARK UNBOUND:                -0.791
REMARK  Name = 
REMARK  5 active torsions:
REMARK  status: ('A' for Active; 'I' for Inactive)
REMARK    1  A    between atoms: C_2  and  C_4
REMARK    2  A    between atoms: C_7  and  N_8
REMARK    3  A    between atoms: N_8  and  C_9
REMARK    4  A    between atoms: C_9  and  C_10
REMARK    5  A    between atoms: C_12  and  N_13
REMARK                            x       y       z     vdW  Elec       q    Type
REMARK                         _______ _______ _______ _____ _____    ______ ____
ROOT
ATOM      1  C   UNL     1      48.019   7.786  12.968  0.00  0.00    +0.000 C 
ENDROOT
BRANCH   1   2
ATOM      2  C   UNL     1      48.840   7.328  14.160  0.00  0.00    +0.000 A 
ATOM      3  C   UNL     1      48.248   6.629  15.216  0.00  0.00    +0.000 A 
ATOM      4  C   UNL     1      48.998   6.284  16.347  0.00  0.00    +0.000 A 
ATOM      5  C   UNL     1      50.343   6.663  16.344  0.00  0.00    +0.000 A 
ATOM      6  C   UNL     1      50.868   7.336  15.252  0.00  0.00    +0.000 A 
ATOM      7  N   UNL     1      50.150   7.677  14.165  0.00  0.00    +0.000 NA
BRANCH   4   8
ATOM      8  N   UNL     1      48.461   5.602  17.422  0.00  0.00    +0.000 N 
ATOM      9  C   UNL     1      48.907   5.818  18.805  0.00  0.00    +0.000 C 
ATOM     10  C   UNL     1      49.432   4.507  19.427  0.00  0.00    +0.000 C 
ATOM     11  N   UNL     1      48.474   3.382  19.325  0.00  0.00    +0.000 NA
ATOM     12  C   UNL     1      48.126   3.192  17.901  0.00  0.00    +0.000 C 
ATOM     13  C   UNL     1      47.556   4.459  17.220  0.00  0.00    +0.000 C 
ATOM     14  H   UNL     1      47.624   3.647  19.823  0.00  0.00    +0.000 HD
ENDBRANCH   4   8
ENDBRANCH   1   2
BRANCH   1  15
ATOM     15  N   UNL     1      46.597   7.480  13.129  0.00  0.00    +0.000 N 
ATOM     16  H   UNL     1      46.286   7.577  14.094  0.00  0.00    +0.000 HD
BRANCH  15  20
ATOM     17  C   UNL     1      44.725   4.085  11.435  0.00  0.00    +0.000 A 
ATOM     18  C   UNL     1      45.199   5.096  10.595  0.00  0.00    +0.000 A 
ATOM     19  C   UNL     1      45.838   6.222  11.138  0.00  0.00    +0.000 A 
ATOM     20  C   UNL     1      46.046   6.350  12.518  0.00  0.00    +0.000 A 
ATOM     21  C   UNL     1      45.568   5.322  13.344  0.00  0.00    +0.000 A 
ATOM     22  C   UNL     1      44.907   4.207  12.815  0.00  0.00    +0.000 A 
BRANCH  17  24
ATOM     23  N   UNL     1      44.528   2.228   9.866  0.00  0.00    +0.000 N 
ATOM     24  C   UNL     1      43.981   2.911  10.916  0.00  0.00    +0.000 C 
ATOM     25  O   UNL     1      42.928   2.540  11.423  0.00  0.00    +0.000 OA
ATOM     26  H   UNL     1      44.055   1.375   9.594  0.00  0.00    +0.000 HD
ATOM     27  H   UNL     1      45.493   2.338   9.591  0.00  0.00    +0.000 HD
ENDBRANCH  17  24
ENDBRANCH  15  20
ENDBRANCH   1  15
TORSDOF 5
ENDMDL
MODEL 9
REMARK VINA RESULT:    -6.042      4.011      6.089
REMARK INTER + INTRA:          -8.599
REMARK INTER:                  -7.986
REMARK INTRA:                  -0.613
REMARK UNBOUND:                -0.791
REMARK  Name = 
REMARK  5 active torsions:
REMARK  status: ('A' for Active; 'I' for Inactive)
REMARK    1  A    between atoms: C_2  and  C_4
REMARK    2  A    between atoms: C_7  and  N_8
REMARK    3  A    between atoms: N_8  and  C_9
REMARK    4  A    between atoms: C_9  and  C_10
REMARK    5  A    between atoms: C_12  and  N_13
REMARK                            x       y       z     vdW  Elec       q    Type
REMARK                         _______ _______ _______ _____ _____    ______ ____
ROOT
ATOM      1  C   UNL     1      48.593   7.089  13.376  0.00  0.00    +0.000 C 
ENDROOT
BRANCH   1   2
ATOM      2  C   UNL     1      48.725   7.401  14.856  0.00  0.00    +0.000 A 
ATOM      3  C   UNL     1      49.045   6.399  15.777  0.00  0.00    +0.000 A 
ATOM      4  C   UNL     1      49.083   6.681  17.148  0.00  0.00    +0.000 A 
ATOM      5  C   UNL     1      48.801   7.998  17.523  0.00  0.00    +0.000 A 
ATOM      6  C   UNL     1      48.512   8.944  16.553  0.00  0.00    +0.000 A 
ATOM      7  N   UNL     1      48.467   8.678  15.234  0.00  0.00    +0.000 NA
BRANCH   4   8
ATOM      8  N   UNL     1      49.384   5.727  18.101  0.00  0.00    +0.000 N 
ATOM      9  C   UNL     1      49.552   4.303  17.777  0.00  0.00    +0.000 C 
ATOM     10  C   UNL     1      48.549   3.436  18.567  0.00  0.00    +0.000 C 
ATOM     11  N   UNL     1      48.585   3.677  20.027  0.00  0.00    +0.000 NA
ATOM     12  C   UNL     1      48.347   5.116  20.270  0.00  0.00    +0.000 C 
ATOM     13  C   UNL     1      49.342   6.048  19.537  0.00  0.00    +0.000 C 
ATOM     14  H   UNL     1      49.524   3.454  20.360  0.00  0.00    +0.000 HD
ENDBRANCH   4   8
ENDBRANCH   1   2
BRANCH   1  15
ATOM     15  N   UNL     1      47.246   7.360  12.875  0.00  0.00    +0.000 N 
ATOM     16  H   UNL     1      46.747   8.040  13.447  0.00  0.00    +0.000 HD
BRANCH  15  20
ATOM     17  C   UNL     1      44.889   4.132  11.490  0.00  0.00    +0.000 A 
ATOM     18  C   UNL     1      45.294   4.159  12.827  0.00  0.00    +0.000 A 
ATOM     19  C   UNL     1      46.061   5.231  13.308  0.00  0.00    +0.000 A 
ATOM     20  C   UNL     1      46.414   6.307  12.482  0.00  0.00    +0.000 A 
ATOM     21  C   UNL     1      45.994   6.262  11.144  0.00  0.00    +0.000 A 
ATOM     22  C   UNL     1      45.249   5.186  10.648  0.00  0.00    +0.000 A 
BRANCH  17  24
ATOM     23  N   UNL     1      44.732   2.282   9.906  0.00  0.00    +0.000 N 
ATOM     24  C   UNL     1      44.137   2.988  10.915  0.00  0.00    +0.000 C 
ATOM     25  O   UNL     1      43.037   2.660  11.344  0.00  0.00    +0.000 OA
ATOM     26  H   UNL     1      44.246   1.449   9.599  0.00  0.00    +0.000 HD
ATOM     27  H   UNL     1      45.718   2.353   9.703  0.00  0.00    +0.000 HD
ENDBRANCH  17  24
ENDBRANCH  15  20
ENDBRANCH   1  15
TORSDOF 5
ENDMDL
