MODEL 1
REMARK VINA RESULT:    -8.373      0.000      0.000
REMARK INTER + INTRA:         -12.466
REMARK INTER:                 -11.310
REMARK INTRA:                  -1.156
REMARK UNBOUND:                -1.156
REMARK  Name = 
REMARK  6 active torsions:
REMARK  status: ('A' for Active; 'I' for Inactive)
REMARK    1  A    between atoms: C_2  and  C_25
REMARK    2  A    between atoms: N_3  and  C_4
REMARK    3  A    between atoms: C_4  and  C_5
REMARK    4  A    between atoms: C_8  and  C_9
REMARK    5  A    between atoms: C_9  and  N_10
REMARK    6  A    between atoms: C_11  and  C_13
REMARK                            x       y       z     vdW  Elec       q    Type
REMARK                         _______ _______ _______ _____ _____    ______ ____
ROOT
ATOM      1  C   UNL     1      44.944   5.392  10.667  0.00  0.00    +0.000 A 
ATOM      2  C   UNL     1      44.321   5.736  11.876  0.00  0.00    +0.000 A 
ATOM      3  C   UNL     1      44.940   6.613  12.777  0.00  0.00    +0.000 A 
ATOM      4  C   UNL     1      46.184   7.183  12.481  0.00  0.00    +0.000 A 
ATOM      5  C   UNL     1      46.808   6.834  11.274  0.00  0.00    +0.000 A 
ATOM      6  C   UNL     1      46.190   5.961  10.372  0.00  0.00    +0.000 A 
ENDROOT
BRANCH   1   7
ATOM      7  C   UNL     1      44.292   4.419   9.718  0.00  0.00    +0.000 C 
BRANCH   7  10
ATOM      8  O   UNL     1      45.446   1.916   9.351  0.00  0.00    +0.000 OA
ATOM      9  C   UNL     1      45.663   2.785   8.515  0.00  0.00    +0.000 C 
ATOM     10  N   UNL     1      45.149   4.059   8.617  0.00  0.00    +0.000 N 
ATOM     11  H   UNL     1      45.222   4.694   7.834  0.00  0.00    +0.000 HD
BRANCH   9  12
ATOM     12  C   UNL     1      46.464   2.540   7.344  0.00  0.00    +0.000 A 
ATOM     13  C   UNL     1      46.550   3.158   6.110  0.00  0.00    +0.000 A 
ATOM     14  C   UNL     1      47.543   2.448   5.409  0.00  0.00    +0.000 A 
ATOM     15  N   UNL     1      48.054   1.450   6.128  0.00  0.00    +0.000 NA
ATOM     16  N   UNL     1      47.392   1.531   7.298  0.00  0.00    +0.000 N 
ATOM     17  H   UNL     1      47.612   0.867   8.033  0.00  0.00    +0.000 HD
ENDBRANCH   9  12
ENDBRANCH   7  10
ENDBRANCH   1   7
BRANCH   4  18
ATOM     18  C   UNL     1      46.863   8.127  13.443  0.00  0.00    +0.000 C 
BRANCH  18  19
ATOM     19  N   UNL     1      47.357   7.431  14.606  0.00  0.00    +0.000 N 
ATOM     20  C   UNL     1      48.601   6.849  14.625  0.00  0.00    +0.000 C 
ATOM     21  O   UNL     1      49.373   6.930  13.672  0.00  0.00    +0.000 OA
ATOM     22  H   UNL     1      46.663   7.127  15.281  0.00  0.00    +0.000 HD
BRANCH  20  23
ATOM     23  C   UNL     1      48.983   6.172  15.870  0.00  0.00    +0.000 A 
ATOM     24  C   UNL     1      50.078   6.623  16.598  0.00  0.00    +0.000 A 
ATOM     25  S   UNL     1      50.345   5.750  18.041  0.00  0.00    +0.000 S 
ATOM     26  C   UNL     1      49.044   4.704  17.715  0.00  0.00    +0.000 A 
ATOM     27  N   UNL     1      48.736   3.682  18.560  0.00  0.00    +0.000 NA
ATOM     28  C   UNL     1      47.746   2.949  18.172  0.00  0.00    +0.000 A 
ATOM     29  N   UNL     1      47.029   3.151  17.021  0.00  0.00    +0.000 N 
ATOM     30  C   UNL     1      47.281   4.190  16.157  0.00  0.00    +0.000 A 
ATOM     31  O   UNL     1      46.585   4.371  15.164  0.00  0.00    +0.000 OA
ATOM     32  C   UNL     1      48.399   5.031  16.536  0.00  0.00    +0.000 A 
ATOM     33  H   UNL     1      46.256   2.549  16.779  0.00  0.00    +0.000 HD
ENDBRANCH  20  23
ENDBRANCH  18  19
ENDBRANCH   4  18
TORSDOF 6
ENDMDL
MODEL 2
REMARK VINA RESULT:    -7.619      1.824      2.037
REMARK INTER + INTRA:         -11.447
REMARK INTER:                 -10.666
REMARK INTRA:                  -0.781
REMARK UNBOUND:                -1.156
REMARK  Name = 
REMARK  6 active torsions:
REMARK  status: ('A' for Active; 'I' for Inactive)
REMARK    1  A    between atoms: C_2  and  C_25
REMARK    2  A    between atoms: N_3  and  C_4
REMARK    3  A    between atoms: C_4  and  C_5
REMARK    4  A    between atoms: C_8  and  C_9
REMARK    5  A    between atoms: C_9  and  N_10
REMARK    6  A    between atoms: C_11  and  C_13
REMARK                            x       y       z     vdW  Elec       q    Type
REMARK                         _______ _______ _______ _____ _____    ______ ____
ROOT
ATOM      1  C   UNL     1      45.284   4.881  11.615  0.00  0.00    +0.000 A 
ATOM      2  C   UNL     1      45.797   4.530  12.872  0.00  0.00    +0.000 A 
ATOM      3  C   UNL     1      46.701   5.370  13.539  0.00  0.00    +0.000 A 
ATOM      4  C   UNL     1      47.093   6.589  12.973  0.00  0.00    +0.000 A 
ATOM      5  C   UNL     1      46.583   6.937  11.714  0.00  0.00    +0.000 A 
ATOM      6  C   UNL     1      45.679   6.100  11.050  0.00  0.00    +0.000 A 
ENDROOT
BRANCH   1   7
ATOM      7  C   UNL     1      44.342   3.957  10.886  0.00  0.00    +0.000 C 
BRANCH   7  10
ATOM      8  O   UNL     1      44.944   4.382   8.206  0.00  0.00    +0.000 OA
ATOM      9  C   UNL     1      45.298   3.329   8.721  0.00  0.00    +0.000 C 
ATOM     10  N   UNL     1      45.032   3.020  10.036  0.00  0.00    +0.000 N 
ATOM     11  H   UNL     1      45.473   2.216  10.462  0.00  0.00    +0.000 HD
BRANCH   9  12
ATOM     12  C   UNL     1      46.036   2.329   7.994  0.00  0.00    +0.000 A 
ATOM     13  C   UNL     1      46.849   2.379   6.876  0.00  0.00    +0.000 A 
ATOM     14  C   UNL     1      47.287   1.057   6.677  0.00  0.00    +0.000 A 
ATOM     15  N   UNL     1      46.795   0.219   7.588  0.00  0.00    +0.000 NA
ATOM     16  N   UNL     1      46.049   1.013   8.379  0.00  0.00    +0.000 N 
ATOM     17  H   UNL     1      45.564   0.602   9.170  0.00  0.00    +0.000 HD
ENDBRANCH   9  12
ENDBRANCH   7  10
ENDBRANCH   1   7
BRANCH   4  18
ATOM     18  C   UNL     1      48.067   7.502  13.678  0.00  0.00    +0.000 C 
BRANCH  18  19
ATOM     19  N   UNL     1      47.951   7.394  15.111  0.00  0.00    +0.000 N 
ATOM     20  C   UNL     1      49.013   7.015  15.895  0.00  0.00    +0.000 C 
ATOM     21  O   UNL     1      50.126   6.792  15.423  0.00  0.00    +0.000 OA
ATOM     22  H   UNL     1      47.011   7.311  15.485  0.00  0.00    +0.000 HD
BRANCH  20  23
ATOM     23  C   UNL     1      48.762   6.944  17.340  0.00  0.00    +0.000 A 
ATOM     24  C   UNL     1      48.443   8.097  18.047  0.00  0.00    +0.000 A 
ATOM     25  S   UNL     1      48.135   7.820  19.703  0.00  0.00    +0.000 S 
ATOM     26  C   UNL     1      48.473   6.160  19.545  0.00  0.00    +0.000 A 
ATOM     27  N   UNL     1      48.422   5.328  20.622  0.00  0.00    +0.000 NA
ATOM     28  C   UNL     1      48.731   4.101  20.362  0.00  0.00    +0.000 A 
ATOM     29  N   UNL     1      49.080   3.629  19.124  0.00  0.00    +0.000 N 
ATOM     30  C   UNL     1      49.111   4.424  18.003  0.00  0.00    +0.000 A 
ATOM     31  O   UNL     1      49.375   3.957  16.900  0.00  0.00    +0.000 OA
ATOM     32  C   UNL     1      48.791   5.818  18.243  0.00  0.00    +0.000 A 
ATOM     33  H   UNL     1      49.300   2.654  18.983  0.00  0.00    +0.000 HD
ENDBRANCH  20  23
ENDBRANCH  18  19
ENDBRANCH   4  18
TORSDOF 6
ENDMDL
MODEL 3
REMARK VINA RESULT:    -7.614      2.307      2.680
REMARK INTER + INTRA:         -11.440
REMARK INTER:                 -10.465
REMARK INTRA:                  -0.975
REMARK UNBOUND:                -1.156
REMARK  Name = 
REMARK  6 active torsions:
REMARK  status: ('A' for Active; 'I' for Inactive)
REMARK    1  A    between atoms: C_2  and  C_25
REMARK    2  A    between atoms: N_3  and  C_4
REMARK    3  A    between atoms: C_4  and  C_5
REMARK    4  A    between atoms: C_8  and  C_9
REMARK    5  A    between atoms: C_9  and  N_10
REMARK    6  A    between atoms: C_11  and  C_13
REMARK                            x       y       z     vdW  Elec       q    Type
REMARK                         _______ _______ _______ _____ _____    ______ ____
ROOT
ATOM      1  C   UNL     1      45.139   5.370  11.393  0.00  0.00    +0.000 A 
ATOM      2  C   UNL     1      45.685   4.751  12.526  0.00  0.00    +0.000 A 
ATOM      3  C   UNL     1      46.600   5.429  13.344  0.00  0.00    +0.000 A 
ATOM      4  C   UNL     1      46.970   6.749  13.060  0.00  0.00    +0.000 A 
ATOM      5  C   UNL     1      46.426   7.366  11.924  0.00  0.00    +0.000 A 
ATOM      6  C   UNL     1      45.511   6.690  11.109  0.00  0.00    +0.000 A 
ENDROOT
BRANCH   1   7
ATOM      7  C   UNL     1      44.184   4.623  10.496  0.00  0.00    +0.000 C 
BRANCH   7  10
ATOM      8  O   UNL     1      45.589   4.843   8.107  0.00  0.00    +0.000 OA
ATOM      9  C   UNL     1      45.504   3.740   8.631  0.00  0.00    +0.000 C 
ATOM     10  N   UNL     1      44.816   3.527   9.805  0.00  0.00    +0.000 N 
ATOM     11  H   UNL     1      44.900   2.640  10.283  0.00  0.00    +0.000 HD
BRANCH   9  12
ATOM     12  C   UNL     1      46.130   2.572   8.068  0.00  0.00    +0.000 A 
ATOM     13  C   UNL     1      47.082   2.392   7.082  0.00  0.00    +0.000 A 
ATOM     14  C   UNL     1      47.283   1.001   7.010  0.00  0.00    +0.000 A 
ATOM     15  N   UNL     1      46.520   0.335   7.876  0.00  0.00    +0.000 NA
ATOM     16  N   UNL     1      45.838   1.307   8.511  0.00  0.00    +0.000 N 
ATOM     17  H   UNL     1      45.180   1.050   9.239  0.00  0.00    +0.000 HD
ENDBRANCH   9  12
ENDBRANCH   7  10
ENDBRANCH   1   7
BRANCH   4  18
ATOM     18  C   UNL     1      47.956   7.491  13.930  0.00  0.00    +0.000 C 
BRANCH  18  19
ATOM     19  N   UNL     1      47.923   7.014  15.290  0.00  0.00    +0.000 N 
ATOM     20  C   UNL     1      49.056   6.572  15.927  0.00  0.00    +0.000 C 
ATOM     21  O   UNL     1      50.161   6.602  15.389  0.00  0.00    +0.000 OA
ATOM     22  H   UNL     1      47.017   6.735  15.651  0.00  0.00    +0.000 HD
BRANCH  20  23
ATOM     23  C   UNL     1      48.888   6.113  17.311  0.00  0.00    +0.000 A 
ATOM     24  C   UNL     1      49.210   4.804  17.653  0.00  0.00    +0.000 A 
ATOM     25  S   UNL     1      49.000   4.461  19.312  0.00  0.00    +0.000 S 
ATOM     26  C   UNL     1      48.418   6.030  19.621  0.00  0.00    +0.000 A 
ATOM     27  N   UNL     1      48.021   6.398  20.870  0.00  0.00    +0.000 NA
ATOM     28  C   UNL     1      47.573   7.606  20.952  0.00  0.00    +0.000 A 
ATOM     29  N   UNL     1      47.493   8.483  19.902  0.00  0.00    +0.000 N 
ATOM     30  C   UNL     1      47.915   8.167  18.632  0.00  0.00    +0.000 A 
ATOM     31  O   UNL     1      47.879   8.994  17.727  0.00  0.00    +0.000 OA
ATOM     32  C   UNL     1      48.408   6.812  18.480  0.00  0.00    +0.000 A 
ATOM     33  H   UNL     1      47.144   9.420  20.033  0.00  0.00    +0.000 HD
ENDBRANCH  20  23
ENDBRANCH  18  19
ENDBRANCH   4  18
TORSDOF 6
ENDMDL
MODEL 4
REMARK VINA RESULT:    -7.400      4.629      9.495
REMARK INTER + INTRA:         -11.152
REMARK INTER:                 -10.380
REMARK INTRA:                  -0.772
REMARK UNBOUND:                -1.156
REMARK  Name = 
REMARK  6 active torsions:
REMARK  status: ('A' for Active; 'I' for Inactive)
REMARK    1  A    between atoms: C_2  and  C_25
REMARK    2  A    between atoms: N_3  and  C_4
REMARK    3  A    between atoms: C_4  and  C_5
REMARK    4  A    between atoms: C_8  and  C_9
REMARK    5  A    between atoms: C_9  and  N_10
REMARK    6  A    between atoms: C_11  and  C_13
REMARK                            x       y       z     vdW  Elec       q    Type
REMARK                         _______ _______ _______ _____ _____    ______ ____
ROOT
ATOM      1  C   UNL     1      51.380   2.988  17.727  0.00  0.00    +0.000 A 
ATOM      2  C   UNL     1      50.615   1.954  17.169  0.00  0.00    +0.000 A 
ATOM      3  C   UNL     1      49.248   2.130  16.914  0.00  0.00    +0.000 A 
ATOM      4  C   UNL     1      48.621   3.351  17.190  0.00  0.00    +0.000 A 
ATOM      5  C   UNL     1      49.386   4.383  17.753  0.00  0.00    +0.000 A 
ATOM      6  C   UNL     1      50.752   4.209  18.005  0.00  0.00    +0.000 A 
ENDROOT
BRANCH   1   7
ATOM      7  C   UNL     1      52.842   2.781  18.034  0.00  0.00    +0.000 C 
BRANCH   7  10
ATOM      8  O   UNL     1      54.420   0.854  16.799  0.00  0.00    +0.000 OA
ATOM      9  C   UNL     1      53.924   0.589  17.887  0.00  0.00    +0.000 C 
ATOM     10  N   UNL     1      53.116   1.471  18.569  0.00  0.00    +0.000 N 
ATOM     11  H   UNL     1      52.857   1.277  19.527  0.00  0.00    +0.000 HD
BRANCH   9  12
ATOM     12  C   UNL     1      54.158  -0.666  18.552  0.00  0.00    +0.000 A 
ATOM     13  C   UNL     1      55.305  -1.316  18.970  0.00  0.00    +0.000 A 
ATOM     14  C   UNL     1      54.857  -2.506  19.573  0.00  0.00    +0.000 A 
ATOM     15  N   UNL     1      53.531  -2.620  19.543  0.00  0.00    +0.000 NA
ATOM     16  N   UNL     1      53.129  -1.491  18.928  0.00  0.00    +0.000 N 
ATOM     17  H   UNL     1      52.137  -1.335  18.788  0.00  0.00    +0.000 HD
ENDBRANCH   9  12
ENDBRANCH   7  10
ENDBRANCH   1   7
BRANCH   4  18
ATOM     18  C   UNL     1      47.149   3.554  16.924  0.00  0.00    +0.000 C 
BRANCH  18  19
ATOM     19  N   UNL     1      46.930   4.546  15.900  0.00  0.00    +0.000 N 
ATOM     20  C   UNL     1      47.021   4.238  14.565  0.00  0.00    +0.000 C 
ATOM     21  O   UNL     1      47.250   3.096  14.173  0.00  0.00    +0.000 OA
ATOM     22  H   UNL     1      47.004   5.517  16.186  0.00  0.00    +0.000 HD
BRANCH  20  23
ATOM     23  C   UNL     1      46.774   5.339  13.625  0.00  0.00    +0.000 A 
ATOM     24  C   UNL     1      47.800   6.219  13.302  0.00  0.00    +0.000 A 
ATOM     25  S   UNL     1      47.348   7.403  12.158  0.00  0.00    +0.000 S 
ATOM     26  C   UNL     1      45.752   6.816  12.097  0.00  0.00    +0.000 A 
ATOM     27  N   UNL     1      44.814   7.413  11.313  0.00  0.00    +0.000 NA
ATOM     28  C   UNL     1      43.639   6.883  11.388  0.00  0.00    +0.000 A 
ATOM     29  N   UNL     1      43.318   5.803  12.171  0.00  0.00    +0.000 N 
ATOM     30  C   UNL     1      44.241   5.147  12.951  0.00  0.00    +0.000 A 
ATOM     31  O   UNL     1      43.931   4.152  13.597  0.00  0.00    +0.000 OA
ATOM     32  C   UNL     1      45.573   5.717  12.918  0.00  0.00    +0.000 A 
ATOM     33  H   UNL     1      42.382   5.427  12.177  0.00  0.00    +0.000 HD
ENDBRANCH  20  23
ENDBRANCH  18  19
ENDBRANCH   4  18
TORSDOF 6
ENDMDL
MODEL 5
REMARK VINA RESULT:    -7.097      2.601      3.570
REMARK INTER + INTRA:         -10.742
REMARK INTER:                 -10.017
REMARK INTRA:                  -0.725
REMARK UNBOUND:                -1.156
REMARK  Name = 
REMARK  6 active torsions:
REMARK  status: ('A' for Active; 'I' for Inactive)
REMARK    1  A    between atoms: C_2  and  C_25
REMARK    2  A    between atoms: N_3  and  C_4
REMARK    3  A    between atoms: C_4  and  C_5
REMARK    4  A    between atoms: C_8  and  C_9
REMARK    5  A    between atoms: C_9  and  N_10
REMARK    6  A    between atoms: C_11  and  C_13
REMARK                            x       y       z     vdW  Elec       q    Type
REMARK                         _______ _______ _______ _____ _____    ______ ____
ROOT
ATOM      1  C   UNL     1      45.065   4.472  11.163  0.00  0.00    +0.000 A 
ATOM      2  C   UNL     1      45.259   3.358  11.992  0.00  0.00    +0.000 A 
ATOM      3  C   UNL     1      45.921   3.485  13.221  0.00  0.00    +0.000 A 
ATOM      4  C   UNL     1      46.384   4.732  13.658  0.00  0.00    +0.000 A 
ATOM      5  C   UNL     1      46.194   5.844  12.827  0.00  0.00    +0.000 A 
ATOM      6  C   UNL     1      45.530   5.719  11.601  0.00  0.00    +0.000 A 
ENDROOT
BRANCH   1   7
ATOM      7  C   UNL     1      44.385   4.324   9.825  0.00  0.00    +0.000 C 
BRANCH   7  10
ATOM      8  O   UNL     1      44.964   1.746   8.961  0.00  0.00    +0.000 OA
ATOM      9  C   UNL     1      45.517   2.685   8.401  0.00  0.00    +0.000 C 
ATOM     10  N   UNL     1      45.308   3.996   8.768  0.00  0.00    +0.000 N 
ATOM     11  H   UNL     1      45.659   4.743   8.185  0.00  0.00    +0.000 HD
BRANCH   9  12
ATOM     12  C   UNL     1      46.425   2.495   7.300  0.00  0.00    +0.000 A 
ATOM     13  C   UNL     1      46.596   3.145   6.092  0.00  0.00    +0.000 A 
ATOM     14  C   UNL     1      47.669   2.486   5.465  0.00  0.00    +0.000 A 
ATOM     15  N   UNL     1      48.150   1.487   6.204  0.00  0.00    +0.000 NA
ATOM     16  N   UNL     1      47.387   1.517   7.313  0.00  0.00    +0.000 N 
ATOM     17  H   UNL     1      47.565   0.843   8.050  0.00  0.00    +0.000 HD
ENDBRANCH   9  12
ENDBRANCH   7  10
ENDBRANCH   1   7
BRANCH   4  18
ATOM     18  C   UNL     1      47.102   4.882  14.978  0.00  0.00    +0.000 C 
BRANCH  18  19
ATOM     19  N   UNL     1      47.853   6.112  15.034  0.00  0.00    +0.000 N 
ATOM     20  C   UNL     1      48.962   6.244  15.832  0.00  0.00    +0.000 C 
ATOM     21  O   UNL     1      49.398   5.312  16.503  0.00  0.00    +0.000 OA
ATOM     22  H   UNL     1      47.377   6.948  14.711  0.00  0.00    +0.000 HD
BRANCH  20  23
ATOM     23  C   UNL     1      49.637   7.548  15.797  0.00  0.00    +0.000 A 
ATOM     24  C   UNL     1      50.400   7.906  14.691  0.00  0.00    +0.000 A 
ATOM     25  S   UNL     1      51.068   9.473  14.800  0.00  0.00    +0.000 S 
ATOM     26  C   UNL     1      50.409   9.706  16.352  0.00  0.00    +0.000 A 
ATOM     27  N   UNL     1      50.632  10.857  17.043  0.00  0.00    +0.000 NA
ATOM     28  C   UNL     1      50.099  10.885  18.219  0.00  0.00    +0.000 A 
ATOM     29  N   UNL     1      49.355   9.870  18.763  0.00  0.00    +0.000 N 
ATOM     30  C   UNL     1      49.075   8.705  18.088  0.00  0.00    +0.000 A 
ATOM     31  O   UNL     1      48.361   7.840  18.585  0.00  0.00    +0.000 OA
ATOM     32  C   UNL     1      49.669   8.614  16.769  0.00  0.00    +0.000 A 
ATOM     33  H   UNL     1      48.954   9.958  19.685  0.00  0.00    +0.000 HD
ENDBRANCH  20  23
ENDBRANCH  18  19
ENDBRANCH   4  18
TORSDOF 6
ENDMDL
MODEL 6
REMARK VINA RESULT:    -7.083      4.694      9.520
REMARK INTER + INTRA:         -10.723
REMARK INTER:                  -9.686
REMARK INTRA:                  -1.037
REMARK UNBOUND:                -1.156
REMARK  Name = 
REMARK  6 active torsions:
REMARK  status: ('A' for Active; 'I' for Inactive)
REMARK    1  A    between atoms: C_2  and  C_25
REMARK    2  A    between atoms: N_3  and  C_4
REMARK    3  A    between atoms: C_4  and  C_5
REMARK    4  A    between atoms: C_8  and  C_9
REMARK    5  A    between atoms: C_9  and  N_10
REMARK    6  A    between atoms: C_11  and  C_13
REMARK                            x       y       z     vdW  Elec       q    Type
REMARK                         _______ _______ _______ _____ _____    ______ ____
ROOT
ATOM      1  C   UNL     1      51.424   2.770  17.691  0.00  0.00    +0.000 A 
ATOM      2  C   UNL     1      50.589   1.839  17.058  0.00  0.00    +0.000 A 
ATOM      3  C   UNL     1      49.243   2.139  16.801  0.00  0.00    +0.000 A 
ATOM      4  C   UNL     1      48.710   3.385  17.152  0.00  0.00    +0.000 A 
ATOM      5  C   UNL     1      49.545   4.314  17.789  0.00  0.00    +0.000 A 
ATOM      6  C   UNL     1      50.888   4.016  18.043  0.00  0.00    +0.000 A 
ENDROOT
BRANCH   1   7
ATOM      7  C   UNL     1      52.860   2.428  17.999  0.00  0.00    +0.000 C 
BRANCH   7  10
ATOM      8  O   UNL     1      54.765   0.620  17.089  0.00  0.00    +0.000 OA
ATOM      9  C   UNL     1      54.003   0.263  17.979  0.00  0.00    +0.000 C 
ATOM     10  N   UNL     1      53.017   1.080  18.484  0.00  0.00    +0.000 N 
ATOM     11  H   UNL     1      52.516   0.806  19.318  0.00  0.00    +0.000 HD
BRANCH   9  12
ATOM     12  C   UNL     1      54.086  -1.042  18.582  0.00  0.00    +0.000 A 
ATOM     13  C   UNL     1      55.137  -1.905  18.831  0.00  0.00    +0.000 A 
ATOM     14  C   UNL     1      54.559  -3.020  19.465  0.00  0.00    +0.000 A 
ATOM     15  N   UNL     1      53.242  -2.892  19.610  0.00  0.00    +0.000 NA
ATOM     16  N   UNL     1      52.979  -1.684  19.077  0.00  0.00    +0.000 N 
ATOM     17  H   UNL     1      52.023  -1.346  19.073  0.00  0.00    +0.000 HD
ENDBRANCH   9  12
ENDBRANCH   7  10
ENDBRANCH   1   7
BRANCH   4  18
ATOM     18  C   UNL     1      47.263   3.721  16.884  0.00  0.00    +0.000 C 
BRANCH  18  19
ATOM     19  N   UNL     1      47.133   4.695  15.828  0.00  0.00    +0.000 N 
ATOM     20  C   UNL     1      47.156   4.331  14.505  0.00  0.00    +0.000 C 
ATOM     21  O   UNL     1      47.244   3.156  14.152  0.00  0.00    +0.000 OA
ATOM     22  H   UNL     1      47.325   5.660  16.076  0.00  0.00    +0.000 HD
BRANCH  20  23
ATOM     23  C   UNL     1      47.014   5.418  13.528  0.00  0.00    +0.000 A 
ATOM     24  C   UNL     1      45.991   5.377  12.588  0.00  0.00    +0.000 A 
ATOM     25  S   UNL     1      45.946   6.746  11.568  0.00  0.00    +0.000 S 
ATOM     26  C   UNL     1      47.324   7.414  12.310  0.00  0.00    +0.000 A 
ATOM     27  N   UNL     1      47.847   8.595  11.883  0.00  0.00    +0.000 NA
ATOM     28  C   UNL     1      48.910   8.967  12.515  0.00  0.00    +0.000 A 
ATOM     29  N   UNL     1      49.494   8.268  13.540  0.00  0.00    +0.000 N 
ATOM     30  C   UNL     1      48.981   7.089  14.027  0.00  0.00    +0.000 A 
ATOM     31  O   UNL     1      49.498   6.518  14.981  0.00  0.00    +0.000 OA
ATOM     32  C   UNL     1      47.796   6.616  13.337  0.00  0.00    +0.000 A 
ATOM     33  H   UNL     1      50.319   8.618  14.003  0.00  0.00    +0.000 HD
ENDBRANCH  20  23
ENDBRANCH  18  19
ENDBRANCH   4  18
TORSDOF 6
ENDMDL
MODEL 7
REMARK VINA RESULT:    -7.015      2.309      3.757
REMARK INTER + INTRA:         -10.631
REMARK INTER:                  -9.593
REMARK INTRA:                  -1.039
REMARK UNBOUND:                -1.156
REMARK  Name = 
REMARK  6 active torsions:
REMARK  status: ('A' for Active; 'I' for Inactive)
REMARK    1  A    between atoms: C_2  and  C_25
REMARK    2  A    between atoms: N_3  and  C_4
REMARK    3  A    between atoms: C_4  and  C_5
REMARK    4  A    between atoms: C_8  and  C_9
REMARK    5  A    between atoms: C_9  and  N_10
REMARK    6  A    between atoms: C_11  and  C_13
REMARK                            x       y       z     vdW  Elec       q    Type
REMARK                         _______ _______ _______ _____ _____    ______ ____
ROOT
ATOM      1  C   UNL     1      44.939   4.416  11.295  0.00  0.00    +0.000 A 
ATOM      2  C   UNL     1      45.250   3.208  11.936  0.00  0.00    +0.000 A 
ATOM      3  C   UNL     1      45.934   3.201  13.160  0.00  0.00    +0.000 A 
ATOM      4  C   UNL     1      46.301   4.402  13.781  0.00  0.00    +0.000 A 
ATOM      5  C   UNL     1      45.993   5.608  13.136  0.00  0.00    +0.000 A 
ATOM      6  C   UNL     1      45.308   5.616  11.916  0.00  0.00    +0.000 A 
ENDROOT
BRANCH   1   7
ATOM      7  C   UNL     1      44.237   4.417   9.961  0.00  0.00    +0.000 C 
BRANCH   7  10
ATOM      8  O   UNL     1      46.353   5.336   8.409  0.00  0.00    +0.000 OA
ATOM      9  C   UNL     1      45.981   4.178   8.258  0.00  0.00    +0.000 C 
ATOM     10  N   UNL     1      44.933   3.637   8.968  0.00  0.00    +0.000 N 
ATOM     11  H   UNL     1      44.760   2.642   8.928  0.00  0.00    +0.000 HD
BRANCH   9  12
ATOM     12  C   UNL     1      46.623   3.281   7.333  0.00  0.00    +0.000 A 
ATOM     13  C   UNL     1      46.967   1.944   7.396  0.00  0.00    +0.000 A 
ATOM     14  C   UNL     1      47.555   1.653   6.152  0.00  0.00    +0.000 A 
ATOM     15  N   UNL     1      47.593   2.716   5.350  0.00  0.00    +0.000 NA
ATOM     16  N   UNL     1      47.016   3.687   6.083  0.00  0.00    +0.000 N 
ATOM     17  H   UNL     1      46.918   4.613   5.681  0.00  0.00    +0.000 HD
ENDBRANCH   9  12
ENDBRANCH   7  10
ENDBRANCH   1   7
BRANCH   4  18
ATOM     18  C   UNL     1      47.040   4.409  15.097  0.00  0.00    +0.000 C 
BRANCH  18  19
ATOM     19  N   UNL     1      47.604   5.706  15.379  0.00  0.00    +0.000 N 
ATOM     20  C   UNL     1      48.675   5.859  16.225  0.00  0.00    +0.000 C 
ATOM     21  O   UNL     1      49.236   4.898  16.748  0.00  0.00    +0.000 OA
ATOM     22  H   UNL     1      47.015   6.509  15.183  0.00  0.00    +0.000 HD
BRANCH  20  23
ATOM     23  C   UNL     1      49.153   7.232  16.427  0.00  0.00    +0.000 A 
ATOM     24  C   UNL     1      49.131   7.796  17.697  0.00  0.00    +0.000 A 
ATOM     25  S   UNL     1      49.770   9.378  17.754  0.00  0.00    +0.000 S 
ATOM     26  C   UNL     1      50.048   9.386  16.075  0.00  0.00    +0.000 A 
ATOM     27  N   UNL     1      50.567  10.481  15.455  0.00  0.00    +0.000 NA
ATOM     28  C   UNL     1      50.695  10.359  14.176  0.00  0.00    +0.000 A 
ATOM     29  N   UNL     1      50.358   9.239  13.461  0.00  0.00    +0.000 N 
ATOM     30  C   UNL     1      49.864   8.098  14.049  0.00  0.00    +0.000 A 
ATOM     31  O   UNL     1      49.624   7.095  13.385  0.00  0.00    +0.000 OA
ATOM     32  C   UNL     1      49.681   8.190  15.484  0.00  0.00    +0.000 A 
ATOM     33  H   UNL     1      50.493   9.201  12.462  0.00  0.00    +0.000 HD
ENDBRANCH  20  23
ENDBRANCH  18  19
ENDBRANCH   4  18
TORSDOF 6
ENDMDL
MODEL 8
REMARK VINA RESULT:    -6.496      2.592      2.883
REMARK INTER + INTRA:          -9.931
REMARK INTER:                  -8.951
REMARK INTRA:                  -0.980
REMARK UNBOUND:                -1.156
REMARK  Name = 
REMARK  6 active torsions:
REMARK  status: ('A' for Active; 'I' for Inactive)
REMARK    1  A    between atoms: C_2  and  C_25
REMARK    2  A    between atoms: N_3  and  C_4
REMARK    3  A    between atoms: C_4  and  C_5
REMARK    4  A    between atoms: C_8  and  C_9
REMARK    5  A    between atoms: C_9  and  N_10
REMARK    6  A    between atoms: C_11  and  C_13
REMARK                            x       y       z     vdW  Elec       q    Type
REMARK                         _______ _______ _______ _____ _____    ______ ____
ROOT
ATOM      1  C   UNL     1      44.772   4.908  11.652  0.00  0.00    +0.000 A 
ATOM      2  C   UNL     1      45.777   4.745  12.616  0.00  0.00    +0.000 A 
ATOM      3  C   UNL     1      46.406   5.857  13.192  0.00  0.00    +0.000 A 
ATOM      4  C   UNL     1      46.027   7.157  12.834  0.00  0.00    +0.000 A 
ATOM      5  C   UNL     1      45.025   7.319  11.867  0.00  0.00    +0.000 A 
ATOM      6  C   UNL     1      44.396   6.208  11.293  0.00  0.00    +0.000 A 
ENDROOT
BRANCH   1   7
ATOM      7  C   UNL     1      44.125   3.707  11.008  0.00  0.00    +0.000 C 
BRANCH   7  10
ATOM      8  O   UNL     1      44.473   4.338   8.323  0.00  0.00    +0.000 OA
ATOM      9  C   UNL     1      45.127   3.415   8.792  0.00  0.00    +0.000 C 
ATOM     10  N   UNL     1      45.012   3.017  10.106  0.00  0.00    +0.000 N 
ATOM     11  H   UNL     1      45.676   2.360  10.491  0.00  0.00    +0.000 HD
BRANCH   9  12
ATOM     12  C   UNL     1      46.083   2.675   8.010  0.00  0.00    +0.000 A 
ATOM     13  C   UNL     1      46.418   1.336   7.944  0.00  0.00    +0.000 A 
ATOM     14  C   UNL     1      47.422   1.253   6.962  0.00  0.00    +0.000 A 
ATOM     15  N   UNL     1      47.716   2.442   6.438  0.00  0.00    +0.000 NA
ATOM     16  N   UNL     1      46.887   3.286   7.081  0.00  0.00    +0.000 N 
ATOM     17  H   UNL     1      46.914   4.273   6.849  0.00  0.00    +0.000 HD
ENDBRANCH   9  12
ENDBRANCH   7  10
ENDBRANCH   1   7
BRANCH   4  18
ATOM     18  C   UNL     1      46.698   8.364  13.444  0.00  0.00    +0.000 C 
BRANCH  18  19
ATOM     19  N   UNL     1      47.556   7.993  14.542  0.00  0.00    +0.000 N 
ATOM     20  C   UNL     1      48.885   8.340  14.567  0.00  0.00    +0.000 C 
ATOM     21  O   UNL     1      49.399   9.021  13.682  0.00  0.00    +0.000 OA
ATOM     22  H   UNL     1      47.237   7.231  15.130  0.00  0.00    +0.000 HD
BRANCH  20  23
ATOM     23  C   UNL     1      49.649   7.902  15.742  0.00  0.00    +0.000 A 
ATOM     24  C   UNL     1      50.736   7.050  15.585  0.00  0.00    +0.000 A 
ATOM     25  S   UNL     1      51.536   6.686  17.049  0.00  0.00    +0.000 S 
ATOM     26  C   UNL     1      50.425   7.608  17.950  0.00  0.00    +0.000 A 
ATOM     27  N   UNL     1      50.521   7.696  19.305  0.00  0.00    +0.000 NA
ATOM     28  C   UNL     1      49.594   8.402  19.861  0.00  0.00    +0.000 A 
ATOM     29  N   UNL     1      48.583   9.035  19.185  0.00  0.00    +0.000 N 
ATOM     30  C   UNL     1      48.467   9.003  17.815  0.00  0.00    +0.000 A 
ATOM     31  O   UNL     1      47.581   9.626  17.239  0.00  0.00    +0.000 OA
ATOM     32  C   UNL     1      49.473   8.205  17.143  0.00  0.00    +0.000 A 
ATOM     33  H   UNL     1      47.894   9.583  19.677  0.00  0.00    +0.000 HD
ENDBRANCH  20  23
ENDBRANCH  18  19
ENDBRANCH   4  18
TORSDOF 6
ENDMDL
MODEL 9
REMARK VINA RESULT:    -6.164      2.983      4.051
REMARK INTER + INTRA:          -9.482
REMARK INTER:                  -9.397
REMARK INTRA:                  -0.085
REMARK UNBOUND:                -1.156
REMARK  Name = 
REMARK  6 active torsions:
REMARK  status: ('A' for Active; 'I' for Inactive)
REMARK    1  A    between atoms: C_2  and  C_25
REMARK    2  A    between atoms: N_3  and  C_4
REMARK    3  A    between atoms: C_4  and  C_5
REMARK    4  A    between atoms: C_8  and  C_9
REMARK    5  A    between atoms: C_9  and  N_10
REMARK    6  A    between atoms: C_11  and  C_13
REMARK                            x       y       z     vdW  Elec       q    Type
REMARK                         _______ _______ _______ _____ _____    ______ ____
ROOT
ATOM      1  C   UNL     1      44.335   4.594  11.594  0.00  0.00    +0.000 A 
ATOM      2  C   UNL     1      45.335   4.606  12.577  0.00  0.00    +0.000 A 
ATOM      3  C   UNL     1      45.832   5.815  13.081  0.00  0.00    +0.000 A 
ATOM      4  C   UNL     1      45.324   7.040  12.630  0.00  0.00    +0.000 A 
ATOM      5  C   UNL     1      44.327   7.028  11.645  0.00  0.00    +0.000 A 
ATOM      6  C   UNL     1      43.828   5.820  11.143  0.00  0.00    +0.000 A 
ENDROOT
BRANCH   1   7
ATOM      7  C   UNL     1      43.830   3.291  11.029  0.00  0.00    +0.000 C 
BRANCH   7  10
ATOM      8  O   UNL     1      44.306   3.987   8.379  0.00  0.00    +0.000 OA
ATOM      9  C   UNL     1      44.966   3.079   8.869  0.00  0.00    +0.000 C 
ATOM     10  N   UNL     1      44.792   2.651  10.167  0.00  0.00    +0.000 N 
ATOM     11  H   UNL     1      45.458   2.011  10.578  0.00  0.00    +0.000 HD
BRANCH   9  12
ATOM     12  C   UNL     1      45.992   2.390   8.130  0.00  0.00    +0.000 A 
ATOM     13  C   UNL     1      46.312   1.054   7.976  0.00  0.00    +0.000 A 
ATOM     14  C   UNL     1      47.418   1.036   7.105  0.00  0.00    +0.000 A 
ATOM     15  N   UNL     1      47.786   2.260   6.731  0.00  0.00    +0.000 NA
ATOM     16  N   UNL     1      46.903   3.062   7.356  0.00  0.00    +0.000 N 
ATOM     17  H   UNL     1      46.970   4.066   7.221  0.00  0.00    +0.000 HD
ENDBRANCH   9  12
ENDBRANCH   7  10
ENDBRANCH   1   7
BRANCH   4  18
ATOM     18  C   UNL     1      45.852   8.351  13.162  0.00  0.00    +0.000 C 
BRANCH  18  19
ATOM     19  N   UNL     1      47.123   8.180  13.821  0.00  0.00    +0.000 N 
ATOM     20  C   UNL     1      48.309   8.426  13.174  0.00  0.00    +0.000 C 
ATOM     21  O   UNL     1      48.349   8.845  12.019  0.00  0.00    +0.000 OA
ATOM     22  H   UNL     1      47.129   7.598  14.652  0.00  0.00    +0.000 HD
BRANCH  20  23
ATOM     23  C   UNL     1      49.533   8.214  13.957  0.00  0.00    +0.000 A 
ATOM     24  C   UNL     1      49.447   7.867  15.300  0.00  0.00    +0.000 A 
ATOM     25  S   UNL     1      50.965   7.612  16.038  0.00  0.00    +0.000 S 
ATOM     26  C   UNL     1      51.792   8.010  14.605  0.00  0.00    +0.000 A 
ATOM     27  N   UNL     1      53.152   8.019  14.559  0.00  0.00    +0.000 NA
ATOM     28  C   UNL     1      53.645   8.370  13.418  0.00  0.00    +0.000 A 
ATOM     29  N   UNL     1      52.901   8.706  12.316  0.00  0.00    +0.000 N 
ATOM     30  C   UNL     1      51.526   8.678  12.307  0.00  0.00    +0.000 A 
ATOM     31  O   UNL     1      50.893   8.932  11.287  0.00  0.00    +0.000 OA
ATOM     32  C   UNL     1      50.922   8.309  13.572  0.00  0.00    +0.000 A 
ATOM     33  H   UNL     1      53.346   8.961  11.447  0.00  0.00    +0.000 HD
ENDBRANCH  20  23
ENDBRANCH  18  19
ENDBRANCH   4  18
TORSDOF 6
ENDMDL
