MODEL 1
REMARK VINA RESULT:    -7.901      0.000      0.000
REMARK INTER + INTRA:         -11.768
REMARK INTER:                 -10.672
REMARK INTRA:                  -1.095
REMARK UNBOUND:                -1.095
REMARK  Name = 
REMARK  7 active torsions:
REMARK  status: ('A' for Active; 'I' for Inactive)
REMARK    1  A    between atoms: C_1  and  C_2
REMARK    2  A    between atoms: C_2  and  N_3
REMARK    3  A    between atoms: C_2  and  C_16
REMARK    4  A    between atoms: C_4  and  C_6
REMARK    5  A    between atoms: C_19  and  C_20
REMARK    6  A    between atoms: C_20  and  N_21
REMARK    7  A    between atoms: C_22  and  C_24
REMARK                            x       y       z     vdW  Elec       q    Type
REMARK                         _______ _______ _______ _____ _____    ______ ____
ROOT
ATOM      1  C   UNL     1      47.596   8.858  13.961  0.00  0.00    +0.000 C 
ATOM      2  C   UNL     1      47.929   7.363  13.923  0.00  0.00    +0.000 C 
ENDROOT
BRANCH   2   3
ATOM      3  C   UNL     1      46.938   6.616  13.033  0.00  0.00    +0.000 A 
ATOM      4  C   UNL     1      46.608   7.099  11.760  0.00  0.00    +0.000 A 
ATOM      5  C   UNL     1      45.728   6.388  10.931  0.00  0.00    +0.000 A 
ATOM      6  C   UNL     1      45.152   5.183  11.357  0.00  0.00    +0.000 A 
ATOM      7  C   UNL     1      45.489   4.693  12.624  0.00  0.00    +0.000 A 
ATOM      8  C   UNL     1      46.363   5.404  13.453  0.00  0.00    +0.000 A 
BRANCH   6   9
ATOM      9  C   UNL     1      44.209   4.411  10.466  0.00  0.00    +0.000 C 
BRANCH   9  10
ATOM     10  N   UNL     1      44.897   3.388   9.718  0.00  0.00    +0.000 N 
ATOM     11  C   UNL     1      45.515   3.665   8.520  0.00  0.00    +0.000 C 
ATOM     12  O   UNL     1      45.493   4.779   8.010  0.00  0.00    +0.000 OA
ATOM     13  H   UNL     1      45.009   2.480  10.141  0.00  0.00    +0.000 HD
BRANCH  11  14
ATOM     14  C   UNL     1      46.201   2.544   7.908  0.00  0.00    +0.000 A 
ATOM     15  C   UNL     1      47.120   2.471   6.871  0.00  0.00    +0.000 A 
ATOM     16  C   UNL     1      47.470   1.113   6.678  0.00  0.00    +0.000 A 
ATOM     17  C   UNL     1      46.764   0.376   7.599  0.00  0.00    +0.000 A 
ATOM     18  N   UNL     1      46.007   1.244   8.340  0.00  0.00    +0.000 N 
ATOM     19  H   UNL     1      45.386   0.991   9.099  0.00  0.00    +0.000 HD
ENDBRANCH  11  14
ENDBRANCH   9  10
ENDBRANCH   6   9
ENDBRANCH   2   3
BRANCH   2  20
ATOM     20  N   UNL     1      47.913   6.755  15.244  0.00  0.00    +0.000 N 
ATOM     21  C   UNL     1      49.033   6.369  15.935  0.00  0.00    +0.000 C 
ATOM     22  O   UNL     1      50.173   6.539  15.516  0.00  0.00    +0.000 OA
ATOM     23  H   UNL     1      47.042   6.294  15.486  0.00  0.00    +0.000 HD
BRANCH  21  24
ATOM     24  C   UNL     1      48.784   5.805  17.267  0.00  0.00    +0.000 A 
ATOM     25  C   UNL     1      48.997   4.454  17.504  0.00  0.00    +0.000 A 
ATOM     26  S   UNL     1      48.724   3.998  19.125  0.00  0.00    +0.000 S 
ATOM     27  C   UNL     1      48.260   5.579  19.552  0.00  0.00    +0.000 A 
ATOM     28  N   UNL     1      47.875   5.881  20.821  0.00  0.00    +0.000 NA
ATOM     29  C   UNL     1      47.517   7.110  20.994  0.00  0.00    +0.000 A 
ATOM     30  N   UNL     1      47.513   8.066  20.011  0.00  0.00    +0.000 N 
ATOM     31  C   UNL     1      47.923   7.814  18.726  0.00  0.00    +0.000 A 
ATOM     32  O   UNL     1      47.957   8.704  17.882  0.00  0.00    +0.000 OA
ATOM     33  C   UNL     1      48.327   6.444  18.477  0.00  0.00    +0.000 A 
ATOM     34  H   UNL     1      47.228   9.015  20.209  0.00  0.00    +0.000 HD
ENDBRANCH  21  24
ENDBRANCH   2  20
TORSDOF 6
ENDMDL
MODEL 2
REMARK VINA RESULT:    -7.739      1.625      2.186
REMARK INTER + INTRA:         -11.548
REMARK INTER:                 -10.684
REMARK INTRA:                  -0.864
REMARK UNBOUND:                -1.095
REMARK  Name = 
REMARK  7 active torsions:
REMARK  status: ('A' for Active; 'I' for Inactive)
REMARK    1  A    between atoms: C_1  and  C_2
REMARK    2  A    between atoms: C_2  and  N_3
REMARK    3  A    between atoms: C_2  and  C_16
REMARK    4  A    between atoms: C_4  and  C_6
REMARK    5  A    between atoms: C_19  and  C_20
REMARK    6  A    between atoms: C_20  and  N_21
REMARK    7  A    between atoms: C_22  and  C_24
REMARK                            x       y       z     vdW  Elec       q    Type
REMARK                         _______ _______ _______ _____ _____    ______ ____
ROOT
ATOM      1  C   UNL     1      46.654   9.357  13.183  0.00  0.00    +0.000 C 
ATOM      2  C   UNL     1      47.297   7.966  13.209  0.00  0.00    +0.000 C 
ENDROOT
BRANCH   2   3
ATOM      3  C   UNL     1      46.380   6.941  12.545  0.00  0.00    +0.000 A 
ATOM      4  C   UNL     1      45.318   7.347  11.726  0.00  0.00    +0.000 A 
ATOM      5  C   UNL     1      44.504   6.400  11.087  0.00  0.00    +0.000 A 
ATOM      6  C   UNL     1      44.729   5.027  11.256  0.00  0.00    +0.000 A 
ATOM      7  C   UNL     1      45.796   4.618  12.064  0.00  0.00    +0.000 A 
ATOM      8  C   UNL     1      46.606   5.562  12.706  0.00  0.00    +0.000 A 
BRANCH   6   9
ATOM      9  C   UNL     1      43.860   4.004  10.566  0.00  0.00    +0.000 C 
BRANCH   9  10
ATOM     10  N   UNL     1      44.639   3.101   9.755  0.00  0.00    +0.000 N 
ATOM     11  C   UNL     1      45.277   3.528   8.613  0.00  0.00    +0.000 C 
ATOM     12  O   UNL     1      45.200   4.682   8.208  0.00  0.00    +0.000 OA
ATOM     13  H   UNL     1      44.795   2.166  10.096  0.00  0.00    +0.000 HD
BRANCH  11  14
ATOM     14  C   UNL     1      46.055   2.515   7.927  0.00  0.00    +0.000 A 
ATOM     15  C   UNL     1      46.873   2.572   6.807  0.00  0.00    +0.000 A 
ATOM     16  C   UNL     1      47.394   1.277   6.569  0.00  0.00    +0.000 A 
ATOM     17  C   UNL     1      46.892   0.450   7.545  0.00  0.00    +0.000 A 
ATOM     18  N   UNL     1      46.091   1.203   8.362  0.00  0.00    +0.000 N 
ATOM     19  H   UNL     1      45.588   0.866   9.174  0.00  0.00    +0.000 HD
ENDBRANCH  11  14
ENDBRANCH   9  10
ENDBRANCH   6   9
ENDBRANCH   2   3
BRANCH   2  20
ATOM     20  N   UNL     1      47.595   7.515  14.559  0.00  0.00    +0.000 N 
ATOM     21  C   UNL     1      48.799   6.991  14.954  0.00  0.00    +0.000 C 
ATOM     22  O   UNL     1      49.765   6.888  14.207  0.00  0.00    +0.000 OA
ATOM     23  H   UNL     1      46.780   7.262  15.108  0.00  0.00    +0.000 HD
BRANCH  21  24
ATOM     24  C   UNL     1      48.888   6.630  16.374  0.00  0.00    +0.000 A 
ATOM     25  C   UNL     1      49.311   7.566  17.307  0.00  0.00    +0.000 A 
ATOM     26  S   UNL     1      49.282   6.987  18.912  0.00  0.00    +0.000 S 
ATOM     27  C   UNL     1      48.755   5.449  18.408  0.00  0.00    +0.000 A 
ATOM     28  N   UNL     1      48.548   4.447  19.305  0.00  0.00    +0.000 NA
ATOM     29  C   UNL     1      48.183   3.325  18.778  0.00  0.00    +0.000 A 
ATOM     30  N   UNL     1      48.004   3.115  17.435  0.00  0.00    +0.000 N 
ATOM     31  C   UNL     1      48.172   4.105  16.499  0.00  0.00    +0.000 A 
ATOM     32  O   UNL     1      47.954   3.899  15.309  0.00  0.00    +0.000 OA
ATOM     33  C   UNL     1      48.591   5.384  17.037  0.00  0.00    +0.000 A 
ATOM     34  H   UNL     1      47.711   2.215  17.084  0.00  0.00    +0.000 HD
ENDBRANCH  21  24
ENDBRANCH   2  20
TORSDOF 6
ENDMDL
MODEL 3
REMARK VINA RESULT:    -7.504      3.897      8.703
REMARK INTER + INTRA:         -11.231
REMARK INTER:                 -10.214
REMARK INTRA:                  -1.017
REMARK UNBOUND:                -1.095
REMARK  Name = 
REMARK  7 active torsions:
REMARK  status: ('A' for Active; 'I' for Inactive)
REMARK    1  A    between atoms: C_1  and  C_2
REMARK    2  A    between atoms: C_2  and  N_3
REMARK    3  A    between atoms: C_2  and  C_16
REMARK    4  A    between atoms: C_4  and  C_6
REMARK    5  A    between atoms: C_19  and  C_20
REMARK    6  A    between atoms: C_20  and  N_21
REMARK    7  A    between atoms: C_22  and  C_24
REMARK                            x       y       z     vdW  Elec       q    Type
REMARK                         _______ _______ _______ _____ _____    ______ ____
ROOT
ATOM      1  C   UNL     1      49.363   7.397  12.887  0.00  0.00    +0.000 C 
ATOM      2  C   UNL     1      48.038   6.930  13.498  0.00  0.00    +0.000 C 
ENDROOT
BRANCH   2   3
ATOM      3  C   UNL     1      48.288   6.163  14.795  0.00  0.00    +0.000 A 
ATOM      4  C   UNL     1      47.512   5.046  15.132  0.00  0.00    +0.000 A 
ATOM      5  C   UNL     1      47.772   4.322  16.304  0.00  0.00    +0.000 A 
ATOM      6  C   UNL     1      48.809   4.699  17.170  0.00  0.00    +0.000 A 
ATOM      7  C   UNL     1      49.592   5.808  16.829  0.00  0.00    +0.000 A 
ATOM      8  C   UNL     1      49.331   6.534  15.662  0.00  0.00    +0.000 A 
BRANCH   6   9
ATOM      9  C   UNL     1      49.096   3.919  18.429  0.00  0.00    +0.000 C 
BRANCH   9  10
ATOM     10  N   UNL     1      50.402   3.306  18.392  0.00  0.00    +0.000 N 
ATOM     11  C   UNL     1      50.673   2.243  17.562  0.00  0.00    +0.000 C 
ATOM     12  O   UNL     1      49.824   1.742  16.834  0.00  0.00    +0.000 OA
ATOM     13  H   UNL     1      51.148   3.739  18.912  0.00  0.00    +0.000 HD
BRANCH  11  14
ATOM     14  C   UNL     1      52.041   1.762  17.605  0.00  0.00    +0.000 A 
ATOM     15  C   UNL     1      53.232   2.381  17.958  0.00  0.00    +0.000 A 
ATOM     16  C   UNL     1      54.282   1.440  17.818  0.00  0.00    +0.000 A 
ATOM     17  C   UNL     1      53.719   0.263  17.386  0.00  0.00    +0.000 A 
ATOM     18  N   UNL     1      52.369   0.462  17.266  0.00  0.00    +0.000 N 
ATOM     19  H   UNL     1      51.691  -0.230  16.972  0.00  0.00    +0.000 HD
ENDBRANCH  11  14
ENDBRANCH   9  10
ENDBRANCH   6   9
ENDBRANCH   2   3
BRANCH   2  20
ATOM     20  N   UNL     1      47.278   6.079  12.597  0.00  0.00    +0.000 N 
ATOM     21  C   UNL     1      46.248   6.513  11.803  0.00  0.00    +0.000 C 
ATOM     22  O   UNL     1      45.890   7.684  11.747  0.00  0.00    +0.000 OA
ATOM     23  H   UNL     1      47.289   5.093  12.838  0.00  0.00    +0.000 HD
BRANCH  21  24
ATOM     24  C   UNL     1      45.641   5.486  10.947  0.00  0.00    +0.000 A 
ATOM     25  C   UNL     1      45.766   5.566   9.567  0.00  0.00    +0.000 A 
ATOM     26  S   UNL     1      45.060   4.248   8.744  0.00  0.00    +0.000 S 
ATOM     27  C   UNL     1      44.517   3.555  10.201  0.00  0.00    +0.000 A 
ATOM     28  N   UNL     1      43.807   2.395  10.207  0.00  0.00    +0.000 NA
ATOM     29  C   UNL     1      43.430   2.005  11.380  0.00  0.00    +0.000 A 
ATOM     30  N   UNL     1      43.703   2.668  12.548  0.00  0.00    +0.000 N 
ATOM     31  C   UNL     1      44.443   3.824  12.591  0.00  0.00    +0.000 A 
ATOM     32  O   UNL     1      44.713   4.367  13.658  0.00  0.00    +0.000 OA
ATOM     33  C   UNL     1      44.882   4.311  11.299  0.00  0.00    +0.000 A 
ATOM     34  H   UNL     1      43.387   2.309  13.437  0.00  0.00    +0.000 HD
ENDBRANCH  21  24
ENDBRANCH   2  20
TORSDOF 6
ENDMDL
MODEL 4
REMARK VINA RESULT:    -7.462      1.714      2.295
REMARK INTER + INTRA:         -11.174
REMARK INTER:                 -10.149
REMARK INTRA:                  -1.026
REMARK UNBOUND:                -1.095
REMARK  Name = 
REMARK  7 active torsions:
REMARK  status: ('A' for Active; 'I' for Inactive)
REMARK    1  A    between atoms: C_1  and  C_2
REMARK    2  A    between atoms: C_2  and  N_3
REMARK    3  A    between atoms: C_2  and  C_16
REMARK    4  A    between atoms: C_4  and  C_6
REMARK    5  A    between atoms: C_19  and  C_20
REMARK    6  A    between atoms: C_20  and  N_21
REMARK    7  A    between atoms: C_22  and  C_24
REMARK                            x       y       z     vdW  Elec       q    Type
REMARK                         _______ _______ _______ _____ _____    ______ ____
ROOT
ATOM      1  C   UNL     1      46.400   9.889  12.516  0.00  0.00    +0.000 C 
ATOM      2  C   UNL     1      47.074   8.586  12.957  0.00  0.00    +0.000 C 
ENDROOT
BRANCH   2   3
ATOM      3  C   UNL     1      46.267   7.379  12.484  0.00  0.00    +0.000 A 
ATOM      4  C   UNL     1      45.057   7.546  11.797  0.00  0.00    +0.000 A 
ATOM      5  C   UNL     1      44.340   6.435  11.329  0.00  0.00    +0.000 A 
ATOM      6  C   UNL     1      44.812   5.132  11.542  0.00  0.00    +0.000 A 
ATOM      7  C   UNL     1      46.025   4.963  12.219  0.00  0.00    +0.000 A 
ATOM      8  C   UNL     1      46.739   6.071  12.689  0.00  0.00    +0.000 A 
BRANCH   6   9
ATOM      9  C   UNL     1      44.047   3.933  11.036  0.00  0.00    +0.000 C 
BRANCH   9  10
ATOM     10  N   UNL     1      44.863   3.097  10.190  0.00  0.00    +0.000 N 
ATOM     11  C   UNL     1      45.087   3.411   8.869  0.00  0.00    +0.000 C 
ATOM     12  O   UNL     1      44.589   4.395   8.332  0.00  0.00    +0.000 OA
ATOM     13  H   UNL     1      45.357   2.327  10.612  0.00  0.00    +0.000 HD
BRANCH  11  14
ATOM     14  C   UNL     1      45.961   2.499   8.159  0.00  0.00    +0.000 A 
ATOM     15  C   UNL     1      46.950   2.710   7.208  0.00  0.00    +0.000 A 
ATOM     16  C   UNL     1      47.497   1.455   6.846  0.00  0.00    +0.000 A 
ATOM     17  C   UNL     1      46.839   0.497   7.580  0.00  0.00    +0.000 A 
ATOM     18  N   UNL     1      45.920   1.133   8.372  0.00  0.00    +0.000 N 
ATOM     19  H   UNL     1      45.290   0.685   9.027  0.00  0.00    +0.000 HD
ENDBRANCH  11  14
ENDBRANCH   9  10
ENDBRANCH   6   9
ENDBRANCH   2   3
BRANCH   2  20
ATOM     20  N   UNL     1      47.230   8.500  14.400  0.00  0.00    +0.000 N 
ATOM     21  C   UNL     1      48.377   8.827  15.078  0.00  0.00    +0.000 C 
ATOM     22  O   UNL     1      49.381   9.266  14.528  0.00  0.00    +0.000 OA
ATOM     23  H   UNL     1      46.595   7.852  14.856  0.00  0.00    +0.000 HD
BRANCH  21  24
ATOM     24  C   UNL     1      48.302   8.694  16.537  0.00  0.00    +0.000 A 
ATOM     25  C   UNL     1      47.981   9.793  17.323  0.00  0.00    +0.000 A 
ATOM     26  S   UNL     1      47.870   9.430  18.986  0.00  0.00    +0.000 S 
ATOM     27  C   UNL     1      48.299   7.804  18.719  0.00  0.00    +0.000 A 
ATOM     28  N   UNL     1      48.410   6.927  19.752  0.00  0.00    +0.000 NA
ATOM     29  C   UNL     1      48.776   5.737  19.406  0.00  0.00    +0.000 A 
ATOM     30  N   UNL     1      49.039   5.345  18.119  0.00  0.00    +0.000 N 
ATOM     31  C   UNL     1      48.910   6.189  17.044  0.00  0.00    +0.000 A 
ATOM     32  O   UNL     1      49.104   5.793  15.899  0.00  0.00    +0.000 OA
ATOM     33  C   UNL     1      48.510   7.541  17.379  0.00  0.00    +0.000 A 
ATOM     34  H   UNL     1      49.316   4.397  17.910  0.00  0.00    +0.000 HD
ENDBRANCH  21  24
ENDBRANCH   2  20
TORSDOF 6
ENDMDL
MODEL 5
REMARK VINA RESULT:    -7.419      2.908      4.516
REMARK INTER + INTRA:         -11.116
REMARK INTER:                  -9.900
REMARK INTRA:                  -1.216
REMARK UNBOUND:                -1.095
REMARK  Name = 
REMARK  7 active torsions:
REMARK  status: ('A' for Active; 'I' for Inactive)
REMARK    1  A    between atoms: C_1  and  C_2
REMARK    2  A    between atoms: C_2  and  N_3
REMARK    3  A    between atoms: C_2  and  C_16
REMARK    4  A    between atoms: C_4  and  C_6
REMARK    5  A    between atoms: C_19  and  C_20
REMARK    6  A    between atoms: C_20  and  N_21
REMARK    7  A    between atoms: C_22  and  C_24
REMARK                            x       y       z     vdW  Elec       q    Type
REMARK                         _______ _______ _______ _____ _____    ______ ____
ROOT
ATOM      1  C   UNL     1      47.513   3.799  15.719  0.00  0.00    +0.000 C 
ATOM      2  C   UNL     1      47.109   5.109  15.034  0.00  0.00    +0.000 C 
ENDROOT
BRANCH   2   3
ATOM      3  C   UNL     1      46.249   4.826  13.804  0.00  0.00    +0.000 A 
ATOM      4  C   UNL     1      45.532   5.853  13.175  0.00  0.00    +0.000 A 
ATOM      5  C   UNL     1      44.776   5.596  12.022  0.00  0.00    +0.000 A 
ATOM      6  C   UNL     1      44.715   4.307  11.474  0.00  0.00    +0.000 A 
ATOM      7  C   UNL     1      45.440   3.282  12.093  0.00  0.00    +0.000 A 
ATOM      8  C   UNL     1      46.191   3.537  13.246  0.00  0.00    +0.000 A 
BRANCH   6   9
ATOM      9  C   UNL     1      43.908   4.026  10.229  0.00  0.00    +0.000 C 
BRANCH   9  10
ATOM     10  N   UNL     1      44.684   3.324   9.237  0.00  0.00    +0.000 N 
ATOM     11  C   UNL     1      45.599   3.977   8.444  0.00  0.00    +0.000 C 
ATOM     12  O   UNL     1      45.787   5.186   8.515  0.00  0.00    +0.000 OA
ATOM     13  H   UNL     1      44.620   2.319   9.204  0.00  0.00    +0.000 HD
BRANCH  11  14
ATOM     14  C   UNL     1      46.332   3.130   7.523  0.00  0.00    +0.000 A 
ATOM     15  C   UNL     1      46.749   1.809   7.607  0.00  0.00    +0.000 A 
ATOM     16  C   UNL     1      47.433   1.480   6.412  0.00  0.00    +0.000 A 
ATOM     17  C   UNL     1      47.421   2.600   5.614  0.00  0.00    +0.000 A 
ATOM     18  N   UNL     1      46.752   3.587   6.287  0.00  0.00    +0.000 N 
ATOM     19  H   UNL     1      46.579   4.525   5.946  0.00  0.00    +0.000 HD
ENDBRANCH  11  14
ENDBRANCH   9  10
ENDBRANCH   6   9
ENDBRANCH   2   3
BRANCH   2  20
ATOM     20  N   UNL     1      48.258   5.900  14.624  0.00  0.00    +0.000 N 
ATOM     21  C   UNL     1      48.906   6.803  15.427  0.00  0.00    +0.000 C 
ATOM     22  O   UNL     1      48.599   7.004  16.597  0.00  0.00    +0.000 OA
ATOM     23  H   UNL     1      48.342   6.033  13.621  0.00  0.00    +0.000 HD
BRANCH  21  24
ATOM     24  C   UNL     1      50.062   7.468  14.815  0.00  0.00    +0.000 A 
ATOM     25  C   UNL     1      51.292   7.462  15.459  0.00  0.00    +0.000 A 
ATOM     26  S   UNL     1      52.532   8.220  14.564  0.00  0.00    +0.000 S 
ATOM     27  C   UNL     1      51.454   8.629  13.311  0.00  0.00    +0.000 A 
ATOM     28  N   UNL     1      51.876   9.324  12.220  0.00  0.00    +0.000 NA
ATOM     29  C   UNL     1      50.945   9.595  11.366  0.00  0.00    +0.000 A 
ATOM     30  N   UNL     1      49.630   9.232  11.504  0.00  0.00    +0.000 N 
ATOM     31  C   UNL     1      49.168   8.504  12.573  0.00  0.00    +0.000 A 
ATOM     32  O   UNL     1      47.995   8.151  12.642  0.00  0.00    +0.000 OA
ATOM     33  C   UNL     1      50.172   8.182  13.566  0.00  0.00    +0.000 A 
ATOM     34  H   UNL     1      48.948   9.467  10.798  0.00  0.00    +0.000 HD
ENDBRANCH  21  24
ENDBRANCH   2  20
TORSDOF 6
ENDMDL
MODEL 6
REMARK VINA RESULT:    -6.880      2.190      2.698
REMARK INTER + INTRA:         -10.389
REMARK INTER:                  -9.111
REMARK INTRA:                  -1.278
REMARK UNBOUND:                -1.095
REMARK  Name = 
REMARK  7 active torsions:
REMARK  status: ('A' for Active; 'I' for Inactive)
REMARK    1  A    between atoms: C_1  and  C_2
REMARK    2  A    between atoms: C_2  and  N_3
REMARK    3  A    between atoms: C_2  and  C_16
REMARK    4  A    between atoms: C_4  and  C_6
REMARK    5  A    between atoms: C_19  and  C_20
REMARK    6  A    between atoms: C_20  and  N_21
REMARK    7  A    between atoms: C_22  and  C_24
REMARK                            x       y       z     vdW  Elec       q    Type
REMARK                         _______ _______ _______ _____ _____    ______ ____
ROOT
ATOM      1  C   UNL     1      48.824  10.232  14.819  0.00  0.00    +0.000 C 
ATOM      2  C   UNL     1      49.092   8.780  14.410  0.00  0.00    +0.000 C 
ENDROOT
BRANCH   2   3
ATOM      3  C   UNL     1      47.932   8.236  13.579  0.00  0.00    +0.000 A 
ATOM      4  C   UNL     1      46.682   8.867  13.587  0.00  0.00    +0.000 A 
ATOM      5  C   UNL     1      45.632   8.386  12.791  0.00  0.00    +0.000 A 
ATOM      6  C   UNL     1      45.805   7.260  11.973  0.00  0.00    +0.000 A 
ATOM      7  C   UNL     1      47.057   6.634  11.955  0.00  0.00    +0.000 A 
ATOM      8  C   UNL     1      48.104   7.111  12.753  0.00  0.00    +0.000 A 
BRANCH   6   9
ATOM      9  C   UNL     1      44.681   6.742  11.110  0.00  0.00    +0.000 C 
BRANCH   9  10
ATOM     10  N   UNL     1      45.136   5.725  10.195  0.00  0.00    +0.000 N 
ATOM     11  C   UNL     1      44.715   4.419  10.303  0.00  0.00    +0.000 C 
ATOM     12  O   UNL     1      43.958   4.042  11.190  0.00  0.00    +0.000 OA
ATOM     13  H   UNL     1      45.691   6.008   9.403  0.00  0.00    +0.000 HD
BRANCH  11  14
ATOM     14  C   UNL     1      45.225   3.522   9.285  0.00  0.00    +0.000 A 
ATOM     15  C   UNL     1      45.743   3.752   8.018  0.00  0.00    +0.000 A 
ATOM     16  C   UNL     1      46.095   2.505   7.446  0.00  0.00    +0.000 A 
ATOM     17  C   UNL     1      45.790   1.533   8.369  0.00  0.00    +0.000 A 
ATOM     18  N   UNL     1      45.273   2.153   9.476  0.00  0.00    +0.000 N 
ATOM     19  H   UNL     1      44.963   1.692  10.323  0.00  0.00    +0.000 HD
ENDBRANCH  11  14
ENDBRANCH   9  10
ENDBRANCH   6   9
ENDBRANCH   2   3
BRANCH   2  20
ATOM     20  N   UNL     1      49.290   7.907  15.556  0.00  0.00    +0.000 N 
ATOM     21  C   UNL     1      50.467   7.268  15.851  0.00  0.00    +0.000 C 
ATOM     22  O   UNL     1      51.491   7.405  15.190  0.00  0.00    +0.000 OA
ATOM     23  H   UNL     1      48.438   7.497  15.926  0.00  0.00    +0.000 HD
BRANCH  21  24
ATOM     24  C   UNL     1      50.450   6.459  17.075  0.00  0.00    +0.000 A 
ATOM     25  C   UNL     1      51.366   6.707  18.088  0.00  0.00    +0.000 A 
ATOM     26  S   UNL     1      51.147   5.716  19.460  0.00  0.00    +0.000 S 
ATOM     27  C   UNL     1      49.856   4.886  18.725  0.00  0.00    +0.000 A 
ATOM     28  N   UNL     1      49.214   3.873  19.367  0.00  0.00    +0.000 NA
ATOM     29  C   UNL     1      48.278   3.310  18.677  0.00  0.00    +0.000 A 
ATOM     30  N   UNL     1      47.923   3.672  17.403  0.00  0.00    +0.000 N 
ATOM     31  C   UNL     1      48.522   4.708  16.730  0.00  0.00    +0.000 A 
ATOM     32  O   UNL     1      48.146   5.041  15.610  0.00  0.00    +0.000 OA
ATOM     33  C   UNL     1      49.588   5.368  17.458  0.00  0.00    +0.000 A 
ATOM     34  H   UNL     1      47.176   3.199  16.916  0.00  0.00    +0.000 HD
ENDBRANCH  21  24
ENDBRANCH   2  20
TORSDOF 6
ENDMDL
MODEL 7
REMARK VINA RESULT:    -6.701      3.178      4.653
REMARK INTER + INTRA:         -10.147
REMARK INTER:                  -9.086
REMARK INTRA:                  -1.061
REMARK UNBOUND:                -1.095
REMARK  Name = 
REMARK  7 active torsions:
REMARK  status: ('A' for Active; 'I' for Inactive)
REMARK    1  A    between atoms: C_1  and  C_2
REMARK    2  A    between atoms: C_2  and  N_3
REMARK    3  A    between atoms: C_2  and  C_16
REMARK    4  A    between atoms: C_4  and  C_6
REMARK    5  A    between atoms: C_19  and  C_20
REMARK    6  A    between atoms: C_20  and  N_21
REMARK    7  A    between atoms: C_22  and  C_24
REMARK                            x       y       z     vdW  Elec       q    Type
REMARK                         _______ _______ _______ _____ _____    ______ ____
ROOT
ATOM      1  C   UNL     1      47.879   5.033  15.648  0.00  0.00    +0.000 C 
ATOM      2  C   UNL     1      47.541   6.167  14.675  0.00  0.00    +0.000 C 
ENDROOT
BRANCH   2   3
ATOM      3  C   UNL     1      46.650   5.655  13.545  0.00  0.00    +0.000 A 
ATOM      4  C   UNL     1      46.359   4.290  13.420  0.00  0.00    +0.000 A 
ATOM      5  C   UNL     1      45.507   3.830  12.405  0.00  0.00    +0.000 A 
ATOM      6  C   UNL     1      44.933   4.722  11.488  0.00  0.00    +0.000 A 
ATOM      7  C   UNL     1      45.214   6.087  11.618  0.00  0.00    +0.000 A 
ATOM      8  C   UNL     1      46.066   6.546  12.628  0.00  0.00    +0.000 A 
BRANCH   6   9
ATOM      9  C   UNL     1      44.011   4.233  10.397  0.00  0.00    +0.000 C 
BRANCH   9  10
ATOM     10  N   UNL     1      44.707   3.409   9.439  0.00  0.00    +0.000 N 
ATOM     11  C   UNL     1      45.548   3.955   8.497  0.00  0.00    +0.000 C 
ATOM     12  O   UNL     1      45.732   5.163   8.399  0.00  0.00    +0.000 OA
ATOM     13  H   UNL     1      44.649   2.408   9.538  0.00  0.00    +0.000 HD
BRANCH  11  14
ATOM     14  C   UNL     1      46.208   2.997   7.632  0.00  0.00    +0.000 A 
ATOM     15  C   UNL     1      46.717   3.103   6.345  0.00  0.00    +0.000 A 
ATOM     16  C   UNL     1      47.261   1.849   5.975  0.00  0.00    +0.000 A 
ATOM     17  C   UNL     1      47.080   0.997   7.038  0.00  0.00    +0.000 A 
ATOM     18  N   UNL     1      46.451   1.696   8.034  0.00  0.00    +0.000 N 
ATOM     19  H   UNL     1      46.192   1.331   8.943  0.00  0.00    +0.000 HD
ENDBRANCH  11  14
ENDBRANCH   9  10
ENDBRANCH   6   9
ENDBRANCH   2   3
BRANCH   2  20
ATOM     20  N   UNL     1      48.728   6.771  14.090  0.00  0.00    +0.000 N 
ATOM     21  C   UNL     1      48.939   8.122  13.984  0.00  0.00    +0.000 C 
ATOM     22  O   UNL     1      48.156   8.961  14.414  0.00  0.00    +0.000 OA
ATOM     23  H   UNL     1      49.227   6.174  13.438  0.00  0.00    +0.000 HD
BRANCH  21  24
ATOM     24  C   UNL     1      50.223   8.510  13.387  0.00  0.00    +0.000 A 
ATOM     25  C   UNL     1      50.256   9.143  12.153  0.00  0.00    +0.000 A 
ATOM     26  S   UNL     1      51.828   9.582  11.655  0.00  0.00    +0.000 S 
ATOM     27  C   UNL     1      52.523   8.891  13.048  0.00  0.00    +0.000 A 
ATOM     28  N   UNL     1      53.869   8.903  13.242  0.00  0.00    +0.000 NA
ATOM     29  C   UNL     1      54.258   8.313  14.324  0.00  0.00    +0.000 A 
ATOM     30  N   UNL     1      53.422   7.714  15.230  0.00  0.00    +0.000 N 
ATOM     31  C   UNL     1      52.056   7.706  15.089  0.00  0.00    +0.000 A 
ATOM     32  O   UNL     1      51.331   7.206  15.944  0.00  0.00    +0.000 OA
ATOM     33  C   UNL     1      51.567   8.347  13.885  0.00  0.00    +0.000 A 
ATOM     34  H   UNL     1      53.786   7.274  16.063  0.00  0.00    +0.000 HD
ENDBRANCH  21  24
ENDBRANCH   2  20
TORSDOF 6
ENDMDL
MODEL 8
REMARK VINA RESULT:    -6.643      4.088      8.541
REMARK INTER + INTRA:         -10.068
REMARK INTER:                  -9.586
REMARK INTRA:                  -0.482
REMARK UNBOUND:                -1.095
REMARK  Name = 
REMARK  7 active torsions:
REMARK  status: ('A' for Active; 'I' for Inactive)
REMARK    1  A    between atoms: C_1  and  C_2
REMARK    2  A    between atoms: C_2  and  N_3
REMARK    3  A    between atoms: C_2  and  C_16
REMARK    4  A    between atoms: C_4  and  C_6
REMARK    5  A    between atoms: C_19  and  C_20
REMARK    6  A    between atoms: C_20  and  N_21
REMARK    7  A    between atoms: C_22  and  C_24
REMARK                            x       y       z     vdW  Elec       q    Type
REMARK                         _______ _______ _______ _____ _____    ______ ____
ROOT
ATOM      1  C   UNL     1      50.001   8.232  14.094  0.00  0.00    +0.000 C 
ATOM      2  C   UNL     1      48.843   7.821  15.009  0.00  0.00    +0.000 C 
ENDROOT
BRANCH   2   3
ATOM      3  C   UNL     1      49.262   6.667  15.918  0.00  0.00    +0.000 A 
ATOM      4  C   UNL     1      50.604   6.483  16.276  0.00  0.00    +0.000 A 
ATOM      5  C   UNL     1      50.979   5.446  17.143  0.00  0.00    +0.000 A 
ATOM      6  C   UNL     1      50.022   4.566  17.667  0.00  0.00    +0.000 A 
ATOM      7  C   UNL     1      48.679   4.754  17.319  0.00  0.00    +0.000 A 
ATOM      8  C   UNL     1      48.306   5.786  16.451  0.00  0.00    +0.000 A 
BRANCH   6   9
ATOM      9  C   UNL     1      50.418   3.451  18.605  0.00  0.00    +0.000 C 
BRANCH   9  10
ATOM     10  N   UNL     1      51.722   2.923  18.285  0.00  0.00    +0.000 N 
ATOM     11  C   UNL     1      51.870   1.717  17.638  0.00  0.00    +0.000 C 
ATOM     12  O   UNL     1      50.915   1.017  17.322  0.00  0.00    +0.000 OA
ATOM     13  H   UNL     1      52.527   3.504  18.452  0.00  0.00    +0.000 HD
BRANCH  11  14
ATOM     14  C   UNL     1      53.240   1.339  17.349  0.00  0.00    +0.000 A 
ATOM     15  C   UNL     1      54.429   2.053  17.388  0.00  0.00    +0.000 A 
ATOM     16  C   UNL     1      55.483   1.188  17.005  0.00  0.00    +0.000 A 
ATOM     17  C   UNL     1      54.925  -0.040  16.740  0.00  0.00    +0.000 A 
ATOM     18  N   UNL     1      53.576   0.057  16.955  0.00  0.00    +0.000 N 
ATOM     19  H   UNL     1      52.902  -0.693  16.846  0.00  0.00    +0.000 HD
ENDBRANCH  11  14
ENDBRANCH   9  10
ENDBRANCH   6   9
ENDBRANCH   2   3
BRANCH   2  20
ATOM     20  N   UNL     1      47.661   7.418  14.265  0.00  0.00    +0.000 N 
ATOM     21  C   UNL     1      47.657   6.489  13.256  0.00  0.00    +0.000 C 
ATOM     22  O   UNL     1      48.658   5.873  12.907  0.00  0.00    +0.000 OA
ATOM     23  H   UNL     1      46.910   8.101  14.265  0.00  0.00    +0.000 HD
BRANCH  21  24
ATOM     24  C   UNL     1      46.343   6.213  12.664  0.00  0.00    +0.000 A 
ATOM     25  C   UNL     1      45.599   7.243  12.105  0.00  0.00    +0.000 A 
ATOM     26  S   UNL     1      44.135   6.720  11.402  0.00  0.00    +0.000 S 
ATOM     27  C   UNL     1      44.421   5.108  11.869  0.00  0.00    +0.000 A 
ATOM     28  N   UNL     1      43.524   4.124  11.588  0.00  0.00    +0.000 NA
ATOM     29  C   UNL     1      43.855   2.957  12.032  0.00  0.00    +0.000 A 
ATOM     30  N   UNL     1      45.003   2.684  12.728  0.00  0.00    +0.000 N 
ATOM     31  C   UNL     1      45.950   3.638  13.006  0.00  0.00    +0.000 A 
ATOM     32  O   UNL     1      46.992   3.351  13.587  0.00  0.00    +0.000 OA
ATOM     33  C   UNL     1      45.622   4.970  12.538  0.00  0.00    +0.000 A 
ATOM     34  H   UNL     1      45.210   1.747  13.044  0.00  0.00    +0.000 HD
ENDBRANCH  21  24
ENDBRANCH   2  20
TORSDOF 6
ENDMDL
MODEL 9
REMARK VINA RESULT:    -6.553      3.532      9.247
REMARK INTER + INTRA:          -9.947
REMARK INTER:                  -8.936
REMARK INTRA:                  -1.011
REMARK UNBOUND:                -1.095
REMARK  Name = 
REMARK  7 active torsions:
REMARK  status: ('A' for Active; 'I' for Inactive)
REMARK    1  A    between atoms: C_1  and  C_2
REMARK    2  A    between atoms: C_2  and  N_3
REMARK    3  A    between atoms: C_2  and  C_16
REMARK    4  A    between atoms: C_4  and  C_6
REMARK    5  A    between atoms: C_19  and  C_20
REMARK    6  A    between atoms: C_20  and  N_21
REMARK    7  A    between atoms: C_22  and  C_24
REMARK                            x       y       z     vdW  Elec       q    Type
REMARK                         _______ _______ _______ _____ _____    ______ ____
ROOT
ATOM      1  C   UNL     1      48.626   7.815  11.947  0.00  0.00    +0.000 C 
ATOM      2  C   UNL     1      47.659   7.280  13.009  0.00  0.00    +0.000 C 
ENDROOT
BRANCH   2   3
ATOM      3  C   UNL     1      48.424   6.824  14.249  0.00  0.00    +0.000 A 
ATOM      4  C   UNL     1      49.669   7.379  14.572  0.00  0.00    +0.000 A 
ATOM      5  C   UNL     1      50.349   6.986  15.734  0.00  0.00    +0.000 A 
ATOM      6  C   UNL     1      49.804   6.024  16.596  0.00  0.00    +0.000 A 
ATOM      7  C   UNL     1      48.555   5.476  16.281  0.00  0.00    +0.000 A 
ATOM      8  C   UNL     1      47.878   5.865  15.120  0.00  0.00    +0.000 A 
BRANCH   6   9
ATOM      9  C   UNL     1      50.529   5.601  17.851  0.00  0.00    +0.000 C 
BRANCH   9  10
ATOM     10  N   UNL     1      51.171   4.320  17.690  0.00  0.00    +0.000 N 
ATOM     11  C   UNL     1      52.362   4.029  18.315  0.00  0.00    +0.000 C 
ATOM     12  O   UNL     1      52.954   4.842  19.016  0.00  0.00    +0.000 OA
ATOM     13  H   UNL     1      50.678   3.597  17.191  0.00  0.00    +0.000 HD
BRANCH  11  14
ATOM     14  C   UNL     1      52.863   2.687  18.091  0.00  0.00    +0.000 A 
ATOM     15  C   UNL     1      54.139   2.200  17.847  0.00  0.00    +0.000 A 
ATOM     16  C   UNL     1      54.061   0.793  17.703  0.00  0.00    +0.000 A 
ATOM     17  C   UNL     1      52.742   0.441  17.862  0.00  0.00    +0.000 A 
ATOM     18  N   UNL     1      52.027   1.585  18.101  0.00  0.00    +0.000 N 
ATOM     19  H   UNL     1      51.029   1.638  18.265  0.00  0.00    +0.000 HD
ENDBRANCH  11  14
ENDBRANCH   9  10
ENDBRANCH   6   9
ENDBRANCH   2   3
BRANCH   2  20
ATOM     20  N   UNL     1      46.860   6.167  12.523  0.00  0.00    +0.000 N 
ATOM     21  C   UNL     1      45.516   6.232  12.259  0.00  0.00    +0.000 C 
ATOM     22  O   UNL     1      44.858   7.261  12.370  0.00  0.00    +0.000 OA
ATOM     23  H   UNL     1      47.244   5.250  12.729  0.00  0.00    +0.000 HD
BRANCH  21  24
ATOM     24  C   UNL     1      44.917   4.994  11.746  0.00  0.00    +0.000 A 
ATOM     25  C   UNL     1      44.146   4.194  12.579  0.00  0.00    +0.000 A 
ATOM     26  S   UNL     1      43.476   2.838  11.789  0.00  0.00    +0.000 S 
ATOM     27  C   UNL     1      44.238   3.246  10.321  0.00  0.00    +0.000 A 
ATOM     28  N   UNL     1      44.093   2.469   9.214  0.00  0.00    +0.000 NA
ATOM     29  C   UNL     1      44.755   2.879   8.183  0.00  0.00    +0.000 A 
ATOM     30  N   UNL     1      45.545   3.998   8.158  0.00  0.00    +0.000 N 
ATOM     31  C   UNL     1      45.695   4.827   9.242  0.00  0.00    +0.000 A 
ATOM     32  O   UNL     1      46.369   5.850   9.172  0.00  0.00    +0.000 OA
ATOM     33  C   UNL     1      44.980   4.406  10.430  0.00  0.00    +0.000 A 
ATOM     34  H   UNL     1      46.034   4.272   7.318  0.00  0.00    +0.000 HD
ENDBRANCH  21  24
ENDBRANCH   2  20
TORSDOF 6
ENDMDL
