MODEL 1
REMARK VINA RESULT:    -7.247      0.000      0.000
REMARK INTER + INTRA:         -10.709
REMARK INTER:                  -9.788
REMARK INTRA:                  -0.920
REMARK UNBOUND:                -0.920
REMARK  Name = 
REMARK  8 active torsions:
REMARK  status: ('A' for Active; 'I' for Inactive)
REMARK    1  A    between atoms: C_1  and  N_2
REMARK    2  A    between atoms: C_5  and  N_6
REMARK    3  A    between atoms: N_6  and  C_7
REMARK    4  A    between atoms: C_7  and  C_8
REMARK    5  A    between atoms: C_11  and  C_12
REMARK    6  A    between atoms: C_12  and  N_13
REMARK    7  A    between atoms: N_13  and  C_14
REMARK    8  A    between atoms: C_15  and  C_17
REMARK                            x       y       z     vdW  Elec       q    Type
REMARK                         _______ _______ _______ _____ _____    ______ ____
ROOT
ATOM      1  C   UNL     1      49.105   7.057  13.983  0.00  0.00    +0.000 C 
ENDROOT
BRANCH   1   5
ATOM      2  C   UNL     1      45.806   5.670  11.553  0.00  0.00    +0.000 A 
ATOM      3  C   UNL     1      46.422   6.900  11.285  0.00  0.00    +0.000 A 
ATOM      4  C   UNL     1      47.440   7.378  12.110  0.00  0.00    +0.000 A 
ATOM      5  C   UNL     1      47.858   6.647  13.231  0.00  0.00    +0.000 A 
ATOM      6  C   UNL     1      47.164   5.478  13.565  0.00  0.00    +0.000 A 
ATOM      7  C   UNL     1      46.150   4.992  12.730  0.00  0.00    +0.000 A 
BRANCH   2   8
ATOM      8  C   UNL     1      44.794   5.099  10.587  0.00  0.00    +0.000 C 
BRANCH   8   9
ATOM      9  N   UNL     1      45.285   5.135   9.205  0.00  0.00    +0.000 NA
ATOM     10  H   UNL     1      44.940   5.981   8.750  0.00  0.00    +0.000 HD
BRANCH   9  15
ATOM     11  C   UNL     1      47.219   1.449   7.139  0.00  0.00    +0.000 C 
ATOM     12  N   UNL     1      46.485   2.300   8.061  0.00  0.00    +0.000 NA
ATOM     13  C   UNL     1      45.362   1.618   8.700  0.00  0.00    +0.000 C 
ATOM     14  C   UNL     1      44.580   2.771   9.318  0.00  0.00    +0.000 C 
ATOM     15  C   UNL     1      44.845   3.984   8.402  0.00  0.00    +0.000 C 
ATOM     16  C   UNL     1      45.881   3.451   7.388  0.00  0.00    +0.000 C 
ENDBRANCH   9  15
ENDBRANCH   8   9
ENDBRANCH   2   8
ENDBRANCH   1   5
BRANCH   1  17
ATOM     17  N   UNL     1      48.946   7.513  15.366  0.00  0.00    +0.000 N 
ATOM     18  C   UNL     1      48.246   8.761  15.610  0.00  0.00    +0.000 C 
ATOM     19  C   UNL     1      49.737   6.847  16.327  0.00  0.00    +0.000 C 
ATOM     20  O   UNL     1      50.467   5.907  16.012  0.00  0.00    +0.000 OA
BRANCH  19  21
ATOM     21  C   UNL     1      49.637   7.262  17.735  0.00  0.00    +0.000 A 
ATOM     22  C   UNL     1      50.324   8.330  18.287  0.00  0.00    +0.000 A 
ATOM     23  S   UNL     1      50.000   8.588  19.940  0.00  0.00    +0.000 S 
ATOM     24  C   UNL     1      48.800   7.375  19.942  0.00  0.00    +0.000 A 
ATOM     25  N   UNL     1      48.050   7.154  21.045  0.00  0.00    +0.000 NA
ATOM     26  C   UNL     1      47.143   6.241  20.893  0.00  0.00    +0.000 A 
ATOM     27  N   UNL     1      46.951   5.518  19.746  0.00  0.00    +0.000 N 
ATOM     28  C   UNL     1      47.775   5.623  18.641  0.00  0.00    +0.000 A 
ATOM     29  O   UNL     1      47.711   4.800  17.732  0.00  0.00    +0.000 OA
ATOM     30  C   UNL     1      48.728   6.716  18.725  0.00  0.00    +0.000 A 
ATOM     31  H   UNL     1      46.269   4.774  19.715  0.00  0.00    +0.000 HD
ENDBRANCH  19  21
ENDBRANCH   1  17
TORSDOF 6
ENDMDL
MODEL 2
REMARK VINA RESULT:    -6.887      3.524      4.054
REMARK INTER + INTRA:         -10.223
REMARK INTER:                  -9.471
REMARK INTRA:                  -0.752
REMARK UNBOUND:                -0.920
REMARK  Name = 
REMARK  8 active torsions:
REMARK  status: ('A' for Active; 'I' for Inactive)
REMARK    1  A    between atoms: C_1  and  N_2
REMARK    2  A    between atoms: C_5  and  N_6
REMARK    3  A    between atoms: N_6  and  C_7
REMARK    4  A    between atoms: C_7  and  C_8
REMARK    5  A    between atoms: C_11  and  C_12
REMARK    6  A    between atoms: C_12  and  N_13
REMARK    7  A    between atoms: N_13  and  C_14
REMARK    8  A    between atoms: C_15  and  C_17
REMARK                            x       y       z     vdW  Elec       q    Type
REMARK                         _______ _______ _______ _____ _____    ______ ____
ROOT
ATOM      1  C   UNL     1      48.631   6.525  16.556  0.00  0.00    +0.000 C 
ENDROOT
BRANCH   1   5
ATOM      2  C   UNL     1      46.772   5.696  12.739  0.00  0.00    +0.000 A 
ATOM      3  C   UNL     1      46.713   4.760  13.780  0.00  0.00    +0.000 A 
ATOM      4  C   UNL     1      47.370   4.998  14.987  0.00  0.00    +0.000 A 
ATOM      5  C   UNL     1      48.114   6.171  15.179  0.00  0.00    +0.000 A 
ATOM      6  C   UNL     1      48.270   7.050  14.100  0.00  0.00    +0.000 A 
ATOM      7  C   UNL     1      47.600   6.816  12.892  0.00  0.00    +0.000 A 
BRANCH   2   8
ATOM      8  C   UNL     1      45.956   5.492  11.483  0.00  0.00    +0.000 C 
BRANCH   8   9
ATOM      9  N   UNL     1      44.891   4.502  11.685  0.00  0.00    +0.000 NA
ATOM     10  H   UNL     1      45.292   3.660  12.097  0.00  0.00    +0.000 HD
BRANCH   9  15
ATOM     11  C   UNL     1      46.088   3.338   7.348  0.00  0.00    +0.000 C 
ATOM     12  N   UNL     1      45.639   3.280   8.730  0.00  0.00    +0.000 NA
ATOM     13  C   UNL     1      44.668   2.215   8.973  0.00  0.00    +0.000 C 
ATOM     14  C   UNL     1      44.116   2.577  10.347  0.00  0.00    +0.000 C 
ATOM     15  C   UNL     1      44.215   4.114  10.437  0.00  0.00    +0.000 C 
ATOM     16  C   UNL     1      44.951   4.506   9.138  0.00  0.00    +0.000 C 
ENDBRANCH   9  15
ENDBRANCH   8   9
ENDBRANCH   2   8
ENDBRANCH   1   5
BRANCH   1  17
ATOM     17  N   UNL     1      49.937   5.992  16.950  0.00  0.00    +0.000 N 
ATOM     18  C   UNL     1      51.119   6.463  16.252  0.00  0.00    +0.000 C 
ATOM     19  C   UNL     1      49.908   4.851  17.782  0.00  0.00    +0.000 C 
ATOM     20  O   UNL     1      48.844   4.382  18.185  0.00  0.00    +0.000 OA
BRANCH  19  21
ATOM     21  C   UNL     1      51.184   4.254  18.207  0.00  0.00    +0.000 A 
ATOM     22  C   UNL     1      52.090   4.867  19.057  0.00  0.00    +0.000 A 
ATOM     23  S   UNL     1      53.475   3.931  19.390  0.00  0.00    +0.000 S 
ATOM     24  C   UNL     1      52.838   2.600  18.535  0.00  0.00    +0.000 A 
ATOM     25  N   UNL     1      53.496   1.418  18.518  0.00  0.00    +0.000 NA
ATOM     26  C   UNL     1      52.877   0.478  17.876  0.00  0.00    +0.000 A 
ATOM     27  N   UNL     1      51.679   0.635  17.229  0.00  0.00    +0.000 N 
ATOM     28  C   UNL     1      51.038   1.854  17.115  0.00  0.00    +0.000 A 
ATOM     29  O   UNL     1      50.097   1.996  16.339  0.00  0.00    +0.000 OA
ATOM     30  C   UNL     1      51.635   2.906  17.919  0.00  0.00    +0.000 A 
ATOM     31  H   UNL     1      51.282  -0.121  16.691  0.00  0.00    +0.000 HD
ENDBRANCH  19  21
ENDBRANCH   1  17
TORSDOF 6
ENDMDL
MODEL 3
REMARK VINA RESULT:    -6.859      1.354      2.092
REMARK INTER + INTRA:         -10.185
REMARK INTER:                  -9.156
REMARK INTRA:                  -1.029
REMARK UNBOUND:                -0.920
REMARK  Name = 
REMARK  8 active torsions:
REMARK  status: ('A' for Active; 'I' for Inactive)
REMARK    1  A    between atoms: C_1  and  N_2
REMARK    2  A    between atoms: C_5  and  N_6
REMARK    3  A    between atoms: N_6  and  C_7
REMARK    4  A    between atoms: C_7  and  C_8
REMARK    5  A    between atoms: C_11  and  C_12
REMARK    6  A    between atoms: C_12  and  N_13
REMARK    7  A    between atoms: N_13  and  C_14
REMARK    8  A    between atoms: C_15  and  C_17
REMARK                            x       y       z     vdW  Elec       q    Type
REMARK                         _______ _______ _______ _____ _____    ______ ____
ROOT
ATOM      1  C   UNL     1      48.885   6.667  14.217  0.00  0.00    +0.000 C 
ENDROOT
BRANCH   1   5
ATOM      2  C   UNL     1      45.667   5.589  11.533  0.00  0.00    +0.000 A 
ATOM      3  C   UNL     1      46.405   6.763  11.328  0.00  0.00    +0.000 A 
ATOM      4  C   UNL     1      47.396   7.146  12.232  0.00  0.00    +0.000 A 
ATOM      5  C   UNL     1      47.666   6.372  13.370  0.00  0.00    +0.000 A 
ATOM      6  C   UNL     1      46.851   5.265  13.636  0.00  0.00    +0.000 A 
ATOM      7  C   UNL     1      45.864   4.875  12.722  0.00  0.00    +0.000 A 
BRANCH   2   8
ATOM      8  C   UNL     1      44.684   5.115  10.487  0.00  0.00    +0.000 C 
BRANCH   8   9
ATOM      9  N   UNL     1      45.291   5.076   9.152  0.00  0.00    +0.000 NA
ATOM     10  H   UNL     1      45.026   5.918   8.640  0.00  0.00    +0.000 HD
BRANCH   9  15
ATOM     11  C   UNL     1      47.276   1.391   7.133  0.00  0.00    +0.000 C 
ATOM     12  N   UNL     1      46.527   2.243   8.042  0.00  0.00    +0.000 NA
ATOM     13  C   UNL     1      45.405   1.555   8.679  0.00  0.00    +0.000 C 
ATOM     14  C   UNL     1      44.608   2.707   9.281  0.00  0.00    +0.000 C 
ATOM     15  C   UNL     1      44.869   3.914   8.356  0.00  0.00    +0.000 C 
ATOM     16  C   UNL     1      45.917   3.382   7.355  0.00  0.00    +0.000 C 
ENDBRANCH   9  15
ENDBRANCH   8   9
ENDBRANCH   2   8
ENDBRANCH   1   5
BRANCH   1  17
ATOM     17  N   UNL     1      48.663   7.173  15.573  0.00  0.00    +0.000 N 
ATOM     18  C   UNL     1      48.403   8.589  15.754  0.00  0.00    +0.000 C 
ATOM     19  C   UNL     1      49.006   6.289  16.621  0.00  0.00    +0.000 C 
ATOM     20  O   UNL     1      49.411   5.150  16.388  0.00  0.00    +0.000 OA
BRANCH  19  21
ATOM     21  C   UNL     1      48.821   6.736  18.011  0.00  0.00    +0.000 A 
ATOM     22  C   UNL     1      47.716   6.434  18.789  0.00  0.00    +0.000 A 
ATOM     23  S   UNL     1      47.781   7.071  20.368  0.00  0.00    +0.000 S 
ATOM     24  C   UNL     1      49.371   7.640  20.123  0.00  0.00    +0.000 A 
ATOM     25  N   UNL     1      50.061   8.206  21.139  0.00  0.00    +0.000 NA
ATOM     26  C   UNL     1      51.272   8.547  20.830  0.00  0.00    +0.000 A 
ATOM     27  N   UNL     1      51.830   8.396  19.587  0.00  0.00    +0.000 N 
ATOM     28  C   UNL     1      51.120   7.942  18.492  0.00  0.00    +0.000 A 
ATOM     29  O   UNL     1      51.586   8.041  17.360  0.00  0.00    +0.000 OA
ATOM     30  C   UNL     1      49.799   7.438  18.821  0.00  0.00    +0.000 A 
ATOM     31  H   UNL     1      52.758   8.744  19.395  0.00  0.00    +0.000 HD
ENDBRANCH  19  21
ENDBRANCH   1  17
TORSDOF 6
ENDMDL
MODEL 4
REMARK VINA RESULT:    -6.558      4.732      8.478
REMARK INTER + INTRA:          -9.778
REMARK INTER:                  -8.774
REMARK INTRA:                  -1.004
REMARK UNBOUND:                -0.920
REMARK  Name = 
REMARK  8 active torsions:
REMARK  status: ('A' for Active; 'I' for Inactive)
REMARK    1  A    between atoms: C_1  and  N_2
REMARK    2  A    between atoms: C_5  and  N_6
REMARK    3  A    between atoms: N_6  and  C_7
REMARK    4  A    between atoms: C_7  and  C_8
REMARK    5  A    between atoms: C_11  and  C_12
REMARK    6  A    between atoms: C_12  and  N_13
REMARK    7  A    between atoms: N_13  and  C_14
REMARK    8  A    between atoms: C_15  and  C_17
REMARK                            x       y       z     vdW  Elec       q    Type
REMARK                         _______ _______ _______ _____ _____    ______ ____
ROOT
ATOM      1  C   UNL     1      46.609   8.083  13.066  0.00  0.00    +0.000 C 
ENDROOT
BRANCH   1   5
ATOM      2  C   UNL     1      50.831   8.743  12.389  0.00  0.00    +0.000 A 
ATOM      3  C   UNL     1      50.194   9.290  13.511  0.00  0.00    +0.000 A 
ATOM      4  C   UNL     1      48.820   9.135  13.693  0.00  0.00    +0.000 A 
ATOM      5  C   UNL     1      48.045   8.442  12.752  0.00  0.00    +0.000 A 
ATOM      6  C   UNL     1      48.661   7.997  11.575  0.00  0.00    +0.000 A 
ATOM      7  C   UNL     1      50.042   8.143  11.399  0.00  0.00    +0.000 A 
BRANCH   2   8
ATOM      8  C   UNL     1      52.336   8.805  12.262  0.00  0.00    +0.000 C 
BRANCH   8   9
ATOM      9  N   UNL     1      52.898   7.512  11.855  0.00  0.00    +0.000 NA
ATOM     10  H   UNL     1      53.487   7.153  12.607  0.00  0.00    +0.000 HD
BRANCH   9  15
ATOM     11  C   UNL     1      52.460   6.527   7.335  0.00  0.00    +0.000 C 
ATOM     12  N   UNL     1      52.560   7.235   8.600  0.00  0.00    +0.000 NA
ATOM     13  C   UNL     1      53.165   8.560   8.469  0.00  0.00    +0.000 C 
ATOM     14  C   UNL     1      53.466   8.932   9.916  0.00  0.00    +0.000 C 
ATOM     15  C   UNL     1      53.723   7.594  10.640  0.00  0.00    +0.000 C 
ATOM     16  C   UNL     1      53.414   6.534   9.560  0.00  0.00    +0.000 C 
ENDBRANCH   9  15
ENDBRANCH   8   9
ENDBRANCH   2   8
ENDBRANCH   1   5
BRANCH   1  17
ATOM     17  N   UNL     1      46.189   6.699  12.840  0.00  0.00    +0.000 N 
ATOM     18  C   UNL     1      47.041   5.627  13.320  0.00  0.00    +0.000 C 
ATOM     19  C   UNL     1      45.133   6.521  11.920  0.00  0.00    +0.000 C 
ATOM     20  O   UNL     1      44.575   7.484  11.394  0.00  0.00    +0.000 OA
BRANCH  19  21
ATOM     21  C   UNL     1      44.666   5.154  11.635  0.00  0.00    +0.000 A 
ATOM     22  C   UNL     1      43.869   4.406  12.484  0.00  0.00    +0.000 A 
ATOM     23  S   UNL     1      43.469   2.862  11.884  0.00  0.00    +0.000 S 
ATOM     24  C   UNL     1      44.217   3.198  10.388  0.00  0.00    +0.000 A 
ATOM     25  N   UNL     1      44.146   2.310   9.371  0.00  0.00    +0.000 NA
ATOM     26  C   UNL     1      44.712   2.713   8.277  0.00  0.00    +0.000 A 
ATOM     27  N   UNL     1      45.365   3.909   8.133  0.00  0.00    +0.000 N 
ATOM     28  C   UNL     1      45.570   4.787   9.181  0.00  0.00    +0.000 A 
ATOM     29  O   UNL     1      46.352   5.727   9.065  0.00  0.00    +0.000 OA
ATOM     30  C   UNL     1      44.851   4.430  10.391  0.00  0.00    +0.000 A 
ATOM     31  H   UNL     1      45.842   4.134   7.273  0.00  0.00    +0.000 HD
ENDBRANCH  19  21
ENDBRANCH   1  17
TORSDOF 6
ENDMDL
MODEL 5
REMARK VINA RESULT:    -6.369      1.461      2.206
REMARK INTER + INTRA:          -9.523
REMARK INTER:                  -8.384
REMARK INTRA:                  -1.139
REMARK UNBOUND:                -0.920
REMARK  Name = 
REMARK  8 active torsions:
REMARK  status: ('A' for Active; 'I' for Inactive)
REMARK    1  A    between atoms: C_1  and  N_2
REMARK    2  A    between atoms: C_5  and  N_6
REMARK    3  A    between atoms: N_6  and  C_7
REMARK    4  A    between atoms: C_7  and  C_8
REMARK    5  A    between atoms: C_11  and  C_12
REMARK    6  A    between atoms: C_12  and  N_13
REMARK    7  A    between atoms: N_13  and  C_14
REMARK    8  A    between atoms: C_15  and  C_17
REMARK                            x       y       z     vdW  Elec       q    Type
REMARK                         _______ _______ _______ _____ _____    ______ ____
ROOT
ATOM      1  C   UNL     1      49.993   7.411  14.353  0.00  0.00    +0.000 C 
ENDROOT
BRANCH   1   5
ATOM      2  C   UNL     1      46.390   6.924  12.009  0.00  0.00    +0.000 A 
ATOM      3  C   UNL     1      46.638   6.100  13.115  0.00  0.00    +0.000 A 
ATOM      4  C   UNL     1      47.831   6.212  13.829  0.00  0.00    +0.000 A 
ATOM      5  C   UNL     1      48.811   7.139  13.448  0.00  0.00    +0.000 A 
ATOM      6  C   UNL     1      48.614   7.878  12.275  0.00  0.00    +0.000 A 
ATOM      7  C   UNL     1      47.411   7.774  11.565  0.00  0.00    +0.000 A 
BRANCH   2   8
ATOM      8  C   UNL     1      45.046   6.886  11.318  0.00  0.00    +0.000 C 
BRANCH   8   9
ATOM      9  N   UNL     1      44.001   6.348  12.196  0.00  0.00    +0.000 NA
ATOM     10  H   UNL     1      44.437   5.936  13.021  0.00  0.00    +0.000 HD
BRANCH   9  15
ATOM     11  C   UNL     1      44.688   2.542   9.619  0.00  0.00    +0.000 C 
ATOM     12  N   UNL     1      44.390   3.437  10.725  0.00  0.00    +0.000 NA
ATOM     13  C   UNL     1      43.421   2.881  11.667  0.00  0.00    +0.000 C 
ATOM     14  C   UNL     1      43.031   4.096  12.500  0.00  0.00    +0.000 C 
ATOM     15  C   UNL     1      43.183   5.306  11.554  0.00  0.00    +0.000 C 
ATOM     16  C   UNL     1      43.784   4.690  10.272  0.00  0.00    +0.000 C 
ENDBRANCH   9  15
ENDBRANCH   8   9
ENDBRANCH   2   8
ENDBRANCH   1   5
BRANCH   1  17
ATOM     17  N   UNL     1      49.726   7.595  15.781  0.00  0.00    +0.000 N 
ATOM     18  C   UNL     1      48.988   8.770  16.205  0.00  0.00    +0.000 C 
ATOM     19  C   UNL     1      50.459   6.761  16.654  0.00  0.00    +0.000 C 
ATOM     20  O   UNL     1      51.227   5.902  16.222  0.00  0.00    +0.000 OA
BRANCH  19  21
ATOM     21  C   UNL     1      50.251   6.900  18.105  0.00  0.00    +0.000 A 
ATOM     22  C   UNL     1      51.076   7.625  18.948  0.00  0.00    +0.000 A 
ATOM     23  S   UNL     1      50.580   7.624  20.578  0.00  0.00    +0.000 S 
ATOM     24  C   UNL     1      49.147   6.785  20.190  0.00  0.00    +0.000 A 
ATOM     25  N   UNL     1      48.212   6.548  21.139  0.00  0.00    +0.000 NA
ATOM     26  C   UNL     1      47.152   5.948  20.698  0.00  0.00    +0.000 A 
ATOM     27  N   UNL     1      46.970   5.541  19.402  0.00  0.00    +0.000 N 
ATOM     28  C   UNL     1      47.949   5.648  18.433  0.00  0.00    +0.000 A 
ATOM     29  O   UNL     1      47.832   5.067  17.358  0.00  0.00    +0.000 OA
ATOM     30  C   UNL     1      49.104   6.421  18.854  0.00  0.00    +0.000 A 
ATOM     31  H   UNL     1      46.147   5.018  19.139  0.00  0.00    +0.000 HD
ENDBRANCH  19  21
ENDBRANCH   1  17
TORSDOF 6
ENDMDL
MODEL 6
REMARK VINA RESULT:    -6.250      2.166      2.850
REMARK INTER + INTRA:          -9.362
REMARK INTER:                  -8.252
REMARK INTRA:                  -1.110
REMARK UNBOUND:                -0.920
REMARK  Name = 
REMARK  8 active torsions:
REMARK  status: ('A' for Active; 'I' for Inactive)
REMARK    1  A    between atoms: C_1  and  N_2
REMARK    2  A    between atoms: C_5  and  N_6
REMARK    3  A    between atoms: N_6  and  C_7
REMARK    4  A    between atoms: C_7  and  C_8
REMARK    5  A    between atoms: C_11  and  C_12
REMARK    6  A    between atoms: C_12  and  N_13
REMARK    7  A    between atoms: N_13  and  C_14
REMARK    8  A    between atoms: C_15  and  C_17
REMARK                            x       y       z     vdW  Elec       q    Type
REMARK                         _______ _______ _______ _____ _____    ______ ____
ROOT
ATOM      1  C   UNL     1      48.699   9.116  13.954  0.00  0.00    +0.000 C 
ENDROOT
BRANCH   1   5
ATOM      2  C   UNL     1      45.299   7.458  11.854  0.00  0.00    +0.000 A 
ATOM      3  C   UNL     1      46.553   6.835  11.787  0.00  0.00    +0.000 A 
ATOM      4  C   UNL     1      47.664   7.407  12.407  0.00  0.00    +0.000 A 
ATOM      5  C   UNL     1      47.553   8.621  13.098  0.00  0.00    +0.000 A 
ATOM      6  C   UNL     1      46.329   9.302  13.065  0.00  0.00    +0.000 A 
ATOM      7  C   UNL     1      45.212   8.722  12.453  0.00  0.00    +0.000 A 
BRANCH   2   8
ATOM      8  C   UNL     1      44.076   6.772  11.289  0.00  0.00    +0.000 C 
BRANCH   8   9
ATOM      9  N   UNL     1      43.220   6.233  12.351  0.00  0.00    +0.000 NA
ATOM     10  H   UNL     1      43.544   6.584  13.252  0.00  0.00    +0.000 HD
BRANCH   9  15
ATOM     11  C   UNL     1      44.882   2.697   9.834  0.00  0.00    +0.000 C 
ATOM     12  N   UNL     1      44.688   3.691  10.877  0.00  0.00    +0.000 NA
ATOM     13  C   UNL     1      45.114   3.229  12.196  0.00  0.00    +0.000 C 
ATOM     14  C   UNL     1      44.507   4.273  13.127  0.00  0.00    +0.000 C 
ATOM     15  C   UNL     1      43.229   4.763  12.414  0.00  0.00    +0.000 C 
ATOM     16  C   UNL     1      43.278   4.043  11.049  0.00  0.00    +0.000 C 
ENDBRANCH   9  15
ENDBRANCH   8   9
ENDBRANCH   2   8
ENDBRANCH   1   5
BRANCH   1  17
ATOM     17  N   UNL     1      48.900   8.476  15.256  0.00  0.00    +0.000 N 
ATOM     18  C   UNL     1      48.290   9.077  16.427  0.00  0.00    +0.000 C 
ATOM     19  C   UNL     1      49.909   7.489  15.305  0.00  0.00    +0.000 C 
ATOM     20  O   UNL     1      50.531   7.161  14.294  0.00  0.00    +0.000 OA
BRANCH  19  21
ATOM     21  C   UNL     1      50.174   6.812  16.585  0.00  0.00    +0.000 A 
ATOM     22  C   UNL     1      51.113   7.232  17.512  0.00  0.00    +0.000 A 
ATOM     23  S   UNL     1      51.190   6.264  18.912  0.00  0.00    +0.000 S 
ATOM     24  C   UNL     1      49.852   5.337  18.402  0.00  0.00    +0.000 A 
ATOM     25  N   UNL     1      49.330   4.385  19.208  0.00  0.00    +0.000 NA
ATOM     26  C   UNL     1      48.287   3.792  18.719  0.00  0.00    +0.000 A 
ATOM     27  N   UNL     1      47.750   4.054  17.486  0.00  0.00    +0.000 N 
ATOM     28  C   UNL     1      48.325   4.926  16.582  0.00  0.00    +0.000 A 
ATOM     29  O   UNL     1      47.948   4.957  15.414  0.00  0.00    +0.000 OA
ATOM     30  C   UNL     1      49.425   5.698  17.134  0.00  0.00    +0.000 A 
ATOM     31  H   UNL     1      46.974   3.509  17.137  0.00  0.00    +0.000 HD
ENDBRANCH  19  21
ENDBRANCH   1  17
TORSDOF 6
ENDMDL
MODEL 7
REMARK VINA RESULT:    -6.189      1.880      2.404
REMARK INTER + INTRA:          -9.280
REMARK INTER:                  -8.678
REMARK INTRA:                  -0.601
REMARK UNBOUND:                -0.920
REMARK  Name = 
REMARK  8 active torsions:
REMARK  status: ('A' for Active; 'I' for Inactive)
REMARK    1  A    between atoms: C_1  and  N_2
REMARK    2  A    between atoms: C_5  and  N_6
REMARK    3  A    between atoms: N_6  and  C_7
REMARK    4  A    between atoms: C_7  and  C_8
REMARK    5  A    between atoms: C_11  and  C_12
REMARK    6  A    between atoms: C_12  and  N_13
REMARK    7  A    between atoms: N_13  and  C_14
REMARK    8  A    between atoms: C_15  and  C_17
REMARK                            x       y       z     vdW  Elec       q    Type
REMARK                         _______ _______ _______ _____ _____    ______ ____
ROOT
ATOM      1  C   UNL     1      47.141   8.053  12.698  0.00  0.00    +0.000 C 
ENDROOT
BRANCH   1   5
ATOM      2  C   UNL     1      44.273   4.986  11.656  0.00  0.00    +0.000 A 
ATOM      3  C   UNL     1      44.086   6.310  11.238  0.00  0.00    +0.000 A 
ATOM      4  C   UNL     1      44.974   7.311  11.631  0.00  0.00    +0.000 A 
ATOM      5  C   UNL     1      46.063   7.018  12.463  0.00  0.00    +0.000 A 
ATOM      6  C   UNL     1      46.183   5.720  12.976  0.00  0.00    +0.000 A 
ATOM      7  C   UNL     1      45.299   4.713  12.572  0.00  0.00    +0.000 A 
BRANCH   2   8
ATOM      8  C   UNL     1      43.383   3.886  11.126  0.00  0.00    +0.000 C 
BRANCH   8   9
ATOM      9  N   UNL     1      43.752   3.504   9.757  0.00  0.00    +0.000 NA
ATOM     10  H   UNL     1      43.378   2.577   9.557  0.00  0.00    +0.000 HD
BRANCH   9  15
ATOM     11  C   UNL     1      46.721   1.481   6.810  0.00  0.00    +0.000 C 
ATOM     12  N   UNL     1      45.894   2.459   7.498  0.00  0.00    +0.000 NA
ATOM     13  C   UNL     1      46.460   3.806   7.475  0.00  0.00    +0.000 C 
ATOM     14  C   UNL     1      45.621   4.537   8.517  0.00  0.00    +0.000 C 
ATOM     15  C   UNL     1      45.206   3.458   9.539  0.00  0.00    +0.000 C 
ATOM     16  C   UNL     1      45.740   2.149   8.920  0.00  0.00    +0.000 C 
ENDBRANCH   9  15
ENDBRANCH   8   9
ENDBRANCH   2   8
ENDBRANCH   1   5
BRANCH   1  17
ATOM     17  N   UNL     1      47.899   7.974  13.949  0.00  0.00    +0.000 N 
ATOM     18  C   UNL     1      47.552   8.878  15.030  0.00  0.00    +0.000 C 
ATOM     19  C   UNL     1      49.092   7.221  13.896  0.00  0.00    +0.000 C 
ATOM     20  O   UNL     1      49.429   6.629  12.870  0.00  0.00    +0.000 OA
BRANCH  19  21
ATOM     21  C   UNL     1      49.911   7.108  15.114  0.00  0.00    +0.000 A 
ATOM     22  C   UNL     1      51.020   7.892  15.386  0.00  0.00    +0.000 A 
ATOM     23  S   UNL     1      51.763   7.551  16.881  0.00  0.00    +0.000 S 
ATOM     24  C   UNL     1      50.530   6.448  17.296  0.00  0.00    +0.000 A 
ATOM     25  N   UNL     1      50.512   5.867  18.517  0.00  0.00    +0.000 NA
ATOM     26  C   UNL     1      49.494   5.091  18.718  0.00  0.00    +0.000 A 
ATOM     27  N   UNL     1      48.519   4.830  17.791  0.00  0.00    +0.000 N 
ATOM     28  C   UNL     1      48.567   5.302  16.493  0.00  0.00    +0.000 A 
ATOM     29  O   UNL     1      47.805   4.859  15.638  0.00  0.00    +0.000 OA
ATOM     30  C   UNL     1      49.625   6.268  16.262  0.00  0.00    +0.000 A 
ATOM     31  H   UNL     1      47.787   4.164  17.989  0.00  0.00    +0.000 HD
ENDBRANCH  19  21
ENDBRANCH   1  17
TORSDOF 6
ENDMDL
MODEL 8
REMARK VINA RESULT:    -6.034      3.552      4.636
REMARK INTER + INTRA:          -9.070
REMARK INTER:                  -8.118
REMARK INTRA:                  -0.953
REMARK UNBOUND:                -0.920
REMARK  Name = 
REMARK  8 active torsions:
REMARK  status: ('A' for Active; 'I' for Inactive)
REMARK    1  A    between atoms: C_1  and  N_2
REMARK    2  A    between atoms: C_5  and  N_6
REMARK    3  A    between atoms: N_6  and  C_7
REMARK    4  A    between atoms: C_7  and  C_8
REMARK    5  A    between atoms: C_11  and  C_12
REMARK    6  A    between atoms: C_12  and  N_13
REMARK    7  A    between atoms: N_13  and  C_14
REMARK    8  A    between atoms: C_15  and  C_17
REMARK                            x       y       z     vdW  Elec       q    Type
REMARK                         _______ _______ _______ _____ _____    ______ ____
ROOT
ATOM      1  C   UNL     1      49.542   7.545  17.407  0.00  0.00    +0.000 C 
ENDROOT
BRANCH   1   5
ATOM      2  C   UNL     1      47.617   7.458  13.534  0.00  0.00    +0.000 A 
ATOM      3  C   UNL     1      47.813   8.671  14.206  0.00  0.00    +0.000 A 
ATOM      4  C   UNL     1      48.371   8.693  15.484  0.00  0.00    +0.000 A 
ATOM      5  C   UNL     1      48.735   7.502  16.128  0.00  0.00    +0.000 A 
ATOM      6  C   UNL     1      48.431   6.284  15.506  0.00  0.00    +0.000 A 
ATOM      7  C   UNL     1      47.881   6.264  14.218  0.00  0.00    +0.000 A 
BRANCH   2   8
ATOM      8  C   UNL     1      47.130   7.449  12.103  0.00  0.00    +0.000 C 
BRANCH   8   9
ATOM      9  N   UNL     1      46.687   6.112  11.690  0.00  0.00    +0.000 NA
ATOM     10  H   UNL     1      47.164   5.855  10.826  0.00  0.00    +0.000 HD
BRANCH   9  15
ATOM     11  C   UNL     1      43.376   2.851  11.720  0.00  0.00    +0.000 C 
ATOM     12  N   UNL     1      44.217   3.982  12.076  0.00  0.00    +0.000 NA
ATOM     13  C   UNL     1      43.503   5.014  12.825  0.00  0.00    +0.000 C 
ATOM     14  C   UNL     1      44.468   6.192  12.772  0.00  0.00    +0.000 C 
ATOM     15  C   UNL     1      45.239   6.031  11.445  0.00  0.00    +0.000 C 
ATOM     16  C   UNL     1      44.736   4.677  10.897  0.00  0.00    +0.000 C 
ENDBRANCH   9  15
ENDBRANCH   8   9
ENDBRANCH   2   8
ENDBRANCH   1   5
BRANCH   1  17
ATOM     17  N   UNL     1      50.686   6.637  17.520  0.00  0.00    +0.000 N 
ATOM     18  C   UNL     1      51.680   6.637  16.462  0.00  0.00    +0.000 C 
ATOM     19  C   UNL     1      50.577   5.633  18.506  0.00  0.00    +0.000 C 
ATOM     20  O   UNL     1      49.599   5.574  19.253  0.00  0.00    +0.000 OA
BRANCH  19  21
ATOM     21  C   UNL     1      51.684   4.677  18.668  0.00  0.00    +0.000 A 
ATOM     22  C   UNL     1      52.810   4.907  19.440  0.00  0.00    +0.000 A 
ATOM     23  S   UNL     1      53.921   3.614  19.455  0.00  0.00    +0.000 S 
ATOM     24  C   UNL     1      52.857   2.630  18.555  0.00  0.00    +0.000 A 
ATOM     25  N   UNL     1      53.166   1.337  18.305  0.00  0.00    +0.000 NA
ATOM     26  C   UNL     1      52.250   0.691  17.657  0.00  0.00    +0.000 A 
ATOM     27  N   UNL     1      51.074   1.240  17.216  0.00  0.00    +0.000 N 
ATOM     28  C   UNL     1      50.777   2.583  17.339  0.00  0.00    +0.000 A 
ATOM     29  O   UNL     1      49.828   3.072  16.731  0.00  0.00    +0.000 OA
ATOM     30  C   UNL     1      51.721   3.318  18.163  0.00  0.00    +0.000 A 
ATOM     31  H   UNL     1      50.431   0.697  16.658  0.00  0.00    +0.000 HD
ENDBRANCH  19  21
ENDBRANCH   1  17
TORSDOF 6
ENDMDL
MODEL 9
REMARK VINA RESULT:    -5.627      3.448      4.953
REMARK INTER + INTRA:          -8.521
REMARK INTER:                  -7.660
REMARK INTRA:                  -0.861
REMARK UNBOUND:                -0.920
REMARK  Name = 
REMARK  8 active torsions:
REMARK  status: ('A' for Active; 'I' for Inactive)
REMARK    1  A    between atoms: C_1  and  N_2
REMARK    2  A    between atoms: C_5  and  N_6
REMARK    3  A    between atoms: N_6  and  C_7
REMARK    4  A    between atoms: C_7  and  C_8
REMARK    5  A    between atoms: C_11  and  C_12
REMARK    6  A    between atoms: C_12  and  N_13
REMARK    7  A    between atoms: N_13  and  C_14
REMARK    8  A    between atoms: C_15  and  C_17
REMARK                            x       y       z     vdW  Elec       q    Type
REMARK                         _______ _______ _______ _____ _____    ______ ____
ROOT
ATOM      1  C   UNL     1      48.516   4.478  17.801  0.00  0.00    +0.000 C 
ENDROOT
BRANCH   1   5
ATOM      2  C   UNL     1      47.196   5.883  13.929  0.00  0.00    +0.000 A 
ATOM      3  C   UNL     1      46.789   4.631  14.411  0.00  0.00    +0.000 A 
ATOM      4  C   UNL     1      47.270   4.149  15.628  0.00  0.00    +0.000 A 
ATOM      5  C   UNL     1      48.179   4.899  16.388  0.00  0.00    +0.000 A 
ATOM      6  C   UNL     1      48.674   6.094  15.852  0.00  0.00    +0.000 A 
ATOM      7  C   UNL     1      48.183   6.583  14.635  0.00  0.00    +0.000 A 
BRANCH   2   8
ATOM      8  C   UNL     1      46.576   6.454  12.674  0.00  0.00    +0.000 C 
BRANCH   8   9
ATOM      9  N   UNL     1      45.131   6.658  12.829  0.00  0.00    +0.000 NA
ATOM     10  H   UNL     1      44.801   6.115  13.626  0.00  0.00    +0.000 HD
BRANCH   9  15
ATOM     11  C   UNL     1      44.814   2.929  10.073  0.00  0.00    +0.000 C 
ATOM     12  N   UNL     1      44.540   3.942  11.079  0.00  0.00    +0.000 NA
ATOM     13  C   UNL     1      43.111   4.173  11.286  0.00  0.00    +0.000 C 
ATOM     14  C   UNL     1      43.097   5.466  12.093  0.00  0.00    +0.000 C 
ATOM     15  C   UNL     1      44.356   6.240  11.650  0.00  0.00    +0.000 C 
ATOM     16  C   UNL     1      45.074   5.252  10.704  0.00  0.00    +0.000 C 
ENDBRANCH   9  15
ENDBRANCH   8   9
ENDBRANCH   2   8
ENDBRANCH   1   5
BRANCH   1  17
ATOM     17  N   UNL     1      49.861   4.779  18.297  0.00  0.00    +0.000 N 
ATOM     18  C   UNL     1      50.069   6.009  19.039  0.00  0.00    +0.000 C 
ATOM     19  C   UNL     1      50.902   3.988  17.765  0.00  0.00    +0.000 C 
ATOM     20  O   UNL     1      50.669   3.070  16.977  0.00  0.00    +0.000 OA
BRANCH  19  21
ATOM     21  C   UNL     1      52.282   4.243  18.209  0.00  0.00    +0.000 A 
ATOM     22  C   UNL     1      52.933   3.521  19.195  0.00  0.00    +0.000 A 
ATOM     23  S   UNL     1      54.533   4.029  19.489  0.00  0.00    +0.000 S 
ATOM     24  C   UNL     1      54.470   5.134  18.191  0.00  0.00    +0.000 A 
ATOM     25  N   UNL     1      55.570   5.834  17.832  0.00  0.00    +0.000 NA
ATOM     26  C   UNL     1      55.398   6.597  16.800  0.00  0.00    +0.000 A 
ATOM     27  N   UNL     1      54.213   6.738  16.125  0.00  0.00    +0.000 N 
ATOM     28  C   UNL     1      53.036   6.141  16.535  0.00  0.00    +0.000 A 
ATOM     29  O   UNL     1      51.961   6.475  16.044  0.00  0.00    +0.000 OA
ATOM     30  C   UNL     1      53.211   5.185  17.614  0.00  0.00    +0.000 A 
ATOM     31  H   UNL     1      54.129   7.401  15.368  0.00  0.00    +0.000 HD
ENDBRANCH  19  21
ENDBRANCH   1  17
TORSDOF 6
ENDMDL
