MODEL 1
REMARK VINA RESULT:    -8.027      0.000      0.000
REMARK INTER + INTRA:         -10.763
REMARK INTER:                 -10.374
REMARK INTRA:                  -0.390
REMARK UNBOUND:                -0.390
REMARK  Name = 
REMARK  7 active torsions:
REMARK  status: ('A' for Active; 'I' for Inactive)
REMARK    1  A    between atoms: C_1  and  C_2
REMARK    2  A    between atoms: C_2  and  N_3
REMARK    3  A    between atoms: C_2  and  C_17
REMARK    4  A    between atoms: C_4  and  C_6
REMARK    5  A    between atoms: N_12  and  C_13
REMARK    6  A    between atoms: C_20  and  O_21
REMARK    7  A    between atoms: O_21  and  C_22
REMARK                            x       y       z     vdW  Elec       q    Type
REMARK                         _______ _______ _______ _____ _____    ______ ____
ROOT
ATOM      1  C   UNL     1      45.657   8.420  12.337  0.00  0.00    +0.000 C 
ATOM      2  C   UNL     1      45.471   7.034  12.956  0.00  0.00    +0.000 C 
ENDROOT
BRANCH   2   3
ATOM      3  C   UNL     1      45.419   5.907  11.931  0.00  0.00    +0.000 A 
ATOM      4  C   UNL     1      45.557   6.213  10.566  0.00  0.00    +0.000 A 
ATOM      5  C   UNL     1      45.358   5.234   9.587  0.00  0.00    +0.000 A 
ATOM      6  C   UNL     1      45.059   3.920   9.955  0.00  0.00    +0.000 A 
ATOM      7  C   UNL     1      44.919   3.606  11.307  0.00  0.00    +0.000 A 
ATOM      8  C   UNL     1      45.094   4.589  12.284  0.00  0.00    +0.000 A 
BRANCH   6   9
ATOM      9  O   UNL     1      44.788   2.894   9.080  0.00  0.00    +0.000 OA
BRANCH   9  10
ATOM     10  C   UNL     1      45.700   2.549   8.118  0.00  0.00    +0.000 A 
ATOM     11  C   UNL     1      46.142   3.394   7.104  0.00  0.00    +0.000 A 
ATOM     12  C   UNL     1      47.066   2.923   6.176  0.00  0.00    +0.000 A 
ATOM     13  C   UNL     1      47.548   1.633   6.322  0.00  0.00    +0.000 A 
ATOM     14  N   UNL     1      47.183   0.802   7.324  0.00  0.00    +0.000 NA
ATOM     15  C   UNL     1      46.272   1.284   8.202  0.00  0.00    +0.000 A 
ENDBRANCH   9  10
ENDBRANCH   6   9
ENDBRANCH   2   3
BRANCH   2  16
ATOM     16  N   UNL     1      46.531   6.740  13.905  0.00  0.00    +0.000 N 
ATOM     17  C   UNL     1      47.863   6.840  13.603  0.00  0.00    +0.000 C 
ATOM     18  O   UNL     1      48.263   7.053  12.462  0.00  0.00    +0.000 OA
ATOM     19  H   UNL     1      46.253   6.705  14.881  0.00  0.00    +0.000 HD
BRANCH  17  20
ATOM     20  C   UNL     1      48.801   6.656  14.721  0.00  0.00    +0.000 A 
ATOM     21  C   UNL     1      49.870   7.526  14.882  0.00  0.00    +0.000 A 
ATOM     22  S   UNL     1      50.832   7.177  16.247  0.00  0.00    +0.000 S 
ATOM     23  C   UNL     1      49.824   5.882  16.698  0.00  0.00    +0.000 A 
ATOM     24  N   UNL     1      50.055   5.179  17.836  0.00  0.00    +0.000 NA
ATOM     25  C   UNL     1      49.178   4.261  18.087  0.00  0.00    +0.000 A 
ATOM     26  N   UNL     1      48.095   3.951  17.291  0.00  0.00    +0.000 N 
ATOM     27  C   UNL     1      47.166   2.906  17.664  0.00  0.00    +0.000 C 
ATOM     28  C   UNL     1      47.872   4.606  16.086  0.00  0.00    +0.000 A 
ATOM     29  O   UNL     1      46.981   4.277  15.311  0.00  0.00    +0.000 OA
ATOM     30  C   UNL     1      48.796   5.689  15.797  0.00  0.00    +0.000 A 
ENDBRANCH  17  20
ENDBRANCH   2  16
TORSDOF 5
ENDMDL
MODEL 2
REMARK VINA RESULT:    -8.022      1.562      2.397
REMARK INTER + INTRA:         -10.756
REMARK INTER:                 -10.678
REMARK INTRA:                  -0.078
REMARK UNBOUND:                -0.390
REMARK  Name = 
REMARK  7 active torsions:
REMARK  status: ('A' for Active; 'I' for Inactive)
REMARK    1  A    between atoms: C_1  and  C_2
REMARK    2  A    between atoms: C_2  and  N_3
REMARK    3  A    between atoms: C_2  and  C_17
REMARK    4  A    between atoms: C_4  and  C_6
REMARK    5  A    between atoms: N_12  and  C_13
REMARK    6  A    between atoms: C_20  and  O_21
REMARK    7  A    between atoms: O_21  and  C_22
REMARK                            x       y       z     vdW  Elec       q    Type
REMARK                         _______ _______ _______ _____ _____    ______ ____
ROOT
ATOM      1  C   UNL     1      47.026   8.108  12.160  0.00  0.00    +0.000 C 
ATOM      2  C   UNL     1      45.868   7.202  12.581  0.00  0.00    +0.000 C 
ENDROOT
BRANCH   2   3
ATOM      3  C   UNL     1      45.391   6.265  11.477  0.00  0.00    +0.000 A 
ATOM      4  C   UNL     1      44.334   5.376  11.739  0.00  0.00    +0.000 A 
ATOM      5  C   UNL     1      43.973   4.395  10.809  0.00  0.00    +0.000 A 
ATOM      6  C   UNL     1      44.633   4.313   9.581  0.00  0.00    +0.000 A 
ATOM      7  C   UNL     1      45.684   5.189   9.311  0.00  0.00    +0.000 A 
ATOM      8  C   UNL     1      46.061   6.153  10.249  0.00  0.00    +0.000 A 
BRANCH   6   9
ATOM      9  O   UNL     1      44.401   3.356   8.619  0.00  0.00    +0.000 OA
BRANCH   9  10
ATOM     10  C   UNL     1      45.451   2.722   8.010  0.00  0.00    +0.000 A 
ATOM     11  C   UNL     1      46.259   3.289   7.029  0.00  0.00    +0.000 A 
ATOM     12  C   UNL     1      47.291   2.538   6.475  0.00  0.00    +0.000 A 
ATOM     13  C   UNL     1      47.504   1.256   6.956  0.00  0.00    +0.000 A 
ATOM     14  N   UNL     1      46.775   0.692   7.943  0.00  0.00    +0.000 NA
ATOM     15  C   UNL     1      45.769   1.442   8.451  0.00  0.00    +0.000 A 
ENDBRANCH   9  10
ENDBRANCH   6   9
ENDBRANCH   2   3
BRANCH   2  16
ATOM     16  N   UNL     1      46.227   6.399  13.738  0.00  0.00    +0.000 N 
ATOM     17  C   UNL     1      47.451   5.805  13.893  0.00  0.00    +0.000 C 
ATOM     18  O   UNL     1      48.291   5.789  12.998  0.00  0.00    +0.000 OA
ATOM     19  H   UNL     1      45.629   6.506  14.552  0.00  0.00    +0.000 HD
BRANCH  17  20
ATOM     20  C   UNL     1      47.702   5.158  15.190  0.00  0.00    +0.000 A 
ATOM     21  C   UNL     1      47.176   3.901  15.452  0.00  0.00    +0.000 A 
ATOM     22  S   UNL     1      47.594   3.295  16.992  0.00  0.00    +0.000 S 
ATOM     23  C   UNL     1      48.532   4.672  17.341  0.00  0.00    +0.000 A 
ATOM     24  N   UNL     1      49.229   4.768  18.502  0.00  0.00    +0.000 NA
ATOM     25  C   UNL     1      49.945   5.841  18.612  0.00  0.00    +0.000 A 
ATOM     26  N   UNL     1      50.014   6.854  17.679  0.00  0.00    +0.000 N 
ATOM     27  C   UNL     1      50.851   8.014  17.894  0.00  0.00    +0.000 C 
ATOM     28  C   UNL     1      49.259   6.817  16.513  0.00  0.00    +0.000 A 
ATOM     29  O   UNL     1      49.221   7.752  15.721  0.00  0.00    +0.000 OA
ATOM     30  C   UNL     1      48.490   5.599  16.319  0.00  0.00    +0.000 A 
ENDBRANCH  17  20
ENDBRANCH   2  16
TORSDOF 5
ENDMDL
MODEL 3
REMARK VINA RESULT:    -7.886      1.560      2.114
REMARK INTER + INTRA:         -10.581
REMARK INTER:                  -9.233
REMARK INTRA:                  -1.348
REMARK UNBOUND:                -0.390
REMARK  Name = 
REMARK  7 active torsions:
REMARK  status: ('A' for Active; 'I' for Inactive)
REMARK    1  A    between atoms: C_1  and  C_2
REMARK    2  A    between atoms: C_2  and  N_3
REMARK    3  A    between atoms: C_2  and  C_17
REMARK    4  A    between atoms: C_4  and  C_6
REMARK    5  A    between atoms: N_12  and  C_13
REMARK    6  A    between atoms: C_20  and  O_21
REMARK    7  A    between atoms: O_21  and  C_22
REMARK                            x       y       z     vdW  Elec       q    Type
REMARK                         _______ _______ _______ _____ _____    ______ ____
ROOT
ATOM      1  C   UNL     1      47.716   9.525  12.630  0.00  0.00    +0.000 C 
ATOM      2  C   UNL     1      47.188   8.432  13.560  0.00  0.00    +0.000 C 
ENDROOT
BRANCH   2   3
ATOM      3  C   UNL     1      46.325   7.392  12.855  0.00  0.00    +0.000 A 
ATOM      4  C   UNL     1      46.703   6.039  12.901  0.00  0.00    +0.000 A 
ATOM      5  C   UNL     1      46.029   5.079  12.139  0.00  0.00    +0.000 A 
ATOM      6  C   UNL     1      44.937   5.446  11.349  0.00  0.00    +0.000 A 
ATOM      7  C   UNL     1      44.554   6.786  11.295  0.00  0.00    +0.000 A 
ATOM      8  C   UNL     1      45.241   7.749  12.037  0.00  0.00    +0.000 A 
BRANCH   6   9
ATOM      9  O   UNL     1      44.240   4.599  10.518  0.00  0.00    +0.000 OA
BRANCH   9  10
ATOM     10  C   UNL     1      44.896   3.894   9.544  0.00  0.00    +0.000 A 
ATOM     11  C   UNL     1      45.634   4.465   8.511  0.00  0.00    +0.000 A 
ATOM     12  C   UNL     1      46.247   3.642   7.573  0.00  0.00    +0.000 A 
ATOM     13  C   UNL     1      46.136   2.269   7.727  0.00  0.00    +0.000 A 
ATOM     14  N   UNL     1      45.475   1.678   8.747  0.00  0.00    +0.000 NA
ATOM     15  C   UNL     1      44.876   2.507   9.634  0.00  0.00    +0.000 A 
ENDBRANCH   9  10
ENDBRANCH   6   9
ENDBRANCH   2   3
BRANCH   2  16
ATOM     16  N   UNL     1      48.279   7.743  14.228  0.00  0.00    +0.000 N 
ATOM     17  C   UNL     1      48.703   8.050  15.494  0.00  0.00    +0.000 C 
ATOM     18  O   UNL     1      48.282   9.026  16.108  0.00  0.00    +0.000 OA
ATOM     19  H   UNL     1      48.551   6.852  13.824  0.00  0.00    +0.000 HD
BRANCH  17  20
ATOM     20  C   UNL     1      49.715   7.156  16.077  0.00  0.00    +0.000 A 
ATOM     21  C   UNL     1      51.018   7.602  16.251  0.00  0.00    +0.000 A 
ATOM     22  S   UNL     1      52.044   6.443  16.967  0.00  0.00    +0.000 S 
ATOM     23  C   UNL     1      50.771   5.323  17.114  0.00  0.00    +0.000 A 
ATOM     24  N   UNL     1      50.963   4.120  17.714  0.00  0.00    +0.000 NA
ATOM     25  C   UNL     1      49.897   3.392  17.809  0.00  0.00    +0.000 A 
ATOM     26  N   UNL     1      48.649   3.737  17.336  0.00  0.00    +0.000 N 
ATOM     27  C   UNL     1      47.516   2.851  17.498  0.00  0.00    +0.000 C 
ATOM     28  C   UNL     1      48.436   4.930  16.657  0.00  0.00    +0.000 A 
ATOM     29  O   UNL     1      47.363   5.210  16.134  0.00  0.00    +0.000 OA
ATOM     30  C   UNL     1      49.592   5.807  16.584  0.00  0.00    +0.000 A 
ENDBRANCH  17  20
ENDBRANCH   2  16
TORSDOF 5
ENDMDL
MODEL 4
REMARK VINA RESULT:    -7.658      2.221      2.977
REMARK INTER + INTRA:         -10.286
REMARK INTER:                  -9.213
REMARK INTRA:                  -1.073
REMARK UNBOUND:                -0.390
REMARK  Name = 
REMARK  7 active torsions:
REMARK  status: ('A' for Active; 'I' for Inactive)
REMARK    1  A    between atoms: C_1  and  C_2
REMARK    2  A    between atoms: C_2  and  N_3
REMARK    3  A    between atoms: C_2  and  C_17
REMARK    4  A    between atoms: C_4  and  C_6
REMARK    5  A    between atoms: N_12  and  C_13
REMARK    6  A    between atoms: C_20  and  O_21
REMARK    7  A    between atoms: O_21  and  C_22
REMARK                            x       y       z     vdW  Elec       q    Type
REMARK                         _______ _______ _______ _____ _____    ______ ____
ROOT
ATOM      1  C   UNL     1      49.411   8.044  13.110  0.00  0.00    +0.000 C 
ATOM      2  C   UNL     1      48.039   8.128  13.781  0.00  0.00    +0.000 C 
ENDROOT
BRANCH   2   3
ATOM      3  C   UNL     1      46.965   7.303  13.083  0.00  0.00    +0.000 A 
ATOM      4  C   UNL     1      46.939   5.910  13.269  0.00  0.00    +0.000 A 
ATOM      5  C   UNL     1      46.072   5.102  12.525  0.00  0.00    +0.000 A 
ATOM      6  C   UNL     1      45.184   5.676  11.613  0.00  0.00    +0.000 A 
ATOM      7  C   UNL     1      45.201   7.057  11.420  0.00  0.00    +0.000 A 
ATOM      8  C   UNL     1      46.084   7.862  12.144  0.00  0.00    +0.000 A 
BRANCH   6   9
ATOM      9  O   UNL     1      44.331   4.976  10.790  0.00  0.00    +0.000 OA
BRANCH   9  10
ATOM     10  C   UNL     1      44.832   4.165   9.807  0.00  0.00    +0.000 A 
ATOM     11  C   UNL     1      45.596   4.604   8.729  0.00  0.00    +0.000 A 
ATOM     12  C   UNL     1      46.039   3.683   7.786  0.00  0.00    +0.000 A 
ATOM     13  C   UNL     1      45.738   2.344   7.978  0.00  0.00    +0.000 A 
ATOM     14  N   UNL     1      45.045   1.875   9.039  0.00  0.00    +0.000 NA
ATOM     15  C   UNL     1      44.615   2.797   9.932  0.00  0.00    +0.000 A 
ENDBRANCH   9  10
ENDBRANCH   6   9
ENDBRANCH   2   3
BRANCH   2  16
ATOM     16  N   UNL     1      48.111   7.706  15.169  0.00  0.00    +0.000 N 
ATOM     17  C   UNL     1      48.536   8.520  16.185  0.00  0.00    +0.000 C 
ATOM     18  O   UNL     1      49.022   9.628  15.977  0.00  0.00    +0.000 OA
ATOM     19  H   UNL     1      47.590   6.866  15.402  0.00  0.00    +0.000 HD
BRANCH  17  20
ATOM     20  C   UNL     1      48.401   7.986  17.548  0.00  0.00    +0.000 A 
ATOM     21  C   UNL     1      47.922   8.797  18.568  0.00  0.00    +0.000 A 
ATOM     22  S   UNL     1      47.805   8.002  20.073  0.00  0.00    +0.000 S 
ATOM     23  C   UNL     1      48.343   6.533  19.403  0.00  0.00    +0.000 A 
ATOM     24  N   UNL     1      48.416   5.405  20.155  0.00  0.00    +0.000 NA
ATOM     25  C   UNL     1      48.785   4.349  19.505  0.00  0.00    +0.000 A 
ATOM     26  N   UNL     1      49.119   4.310  18.168  0.00  0.00    +0.000 N 
ATOM     27  C   UNL     1      49.516   3.072  17.531  0.00  0.00    +0.000 C 
ATOM     28  C   UNL     1      49.122   5.460  17.388  0.00  0.00    +0.000 A 
ATOM     29  O   UNL     1      49.518   5.471  16.228  0.00  0.00    +0.000 OA
ATOM     30  C   UNL     1      48.652   6.658  18.063  0.00  0.00    +0.000 A 
ENDBRANCH  17  20
ENDBRANCH   2  16
TORSDOF 5
ENDMDL
MODEL 5
REMARK VINA RESULT:    -7.445      4.321      7.557
REMARK INTER + INTRA:         -10.011
REMARK INTER:                  -9.012
REMARK INTRA:                  -0.998
REMARK UNBOUND:                -0.390
REMARK  Name = 
REMARK  7 active torsions:
REMARK  status: ('A' for Active; 'I' for Inactive)
REMARK    1  A    between atoms: C_1  and  C_2
REMARK    2  A    between atoms: C_2  and  N_3
REMARK    3  A    between atoms: C_2  and  C_17
REMARK    4  A    between atoms: C_4  and  C_6
REMARK    5  A    between atoms: N_12  and  C_13
REMARK    6  A    between atoms: C_20  and  O_21
REMARK    7  A    between atoms: O_21  and  C_22
REMARK                            x       y       z     vdW  Elec       q    Type
REMARK                         _______ _______ _______ _____ _____    ______ ____
ROOT
ATOM      1  C   UNL     1      45.612   9.000  13.145  0.00  0.00    +0.000 C 
ATOM      2  C   UNL     1      46.247   8.331  11.925  0.00  0.00    +0.000 C 
ENDROOT
BRANCH   2   3
ATOM      3  C   UNL     1      47.770   8.376  11.925  0.00  0.00    +0.000 A 
ATOM      4  C   UNL     1      48.422   9.598  11.686  0.00  0.00    +0.000 A 
ATOM      5  C   UNL     1      49.811   9.651  11.521  0.00  0.00    +0.000 A 
ATOM      6  C   UNL     1      50.578   8.489  11.637  0.00  0.00    +0.000 A 
ATOM      7  C   UNL     1      49.941   7.271  11.874  0.00  0.00    +0.000 A 
ATOM      8  C   UNL     1      48.553   7.214  12.014  0.00  0.00    +0.000 A 
BRANCH   6   9
ATOM      9  O   UNL     1      51.938   8.415  11.438  0.00  0.00    +0.000 OA
BRANCH   9  10
ATOM     10  C   UNL     1      52.439   8.147  10.192  0.00  0.00    +0.000 A 
ATOM     11  C   UNL     1      52.668   6.871   9.687  0.00  0.00    +0.000 A 
ATOM     12  C   UNL     1      53.193   6.726   8.407  0.00  0.00    +0.000 A 
ATOM     13  C   UNL     1      53.431   7.868   7.659  0.00  0.00    +0.000 A 
ATOM     14  N   UNL     1      53.170   9.121   8.095  0.00  0.00    +0.000 NA
ATOM     15  C   UNL     1      52.675   9.228   9.350  0.00  0.00    +0.000 A 
ENDBRANCH   9  10
ENDBRANCH   6   9
ENDBRANCH   2   3
BRANCH   2  16
ATOM     16  N   UNL     1      45.830   6.944  11.814  0.00  0.00    +0.000 N 
ATOM     17  C   UNL     1      44.583   6.562  11.396  0.00  0.00    +0.000 C 
ATOM     18  O   UNL     1      43.676   7.368  11.215  0.00  0.00    +0.000 OA
ATOM     19  H   UNL     1      46.578   6.257  11.811  0.00  0.00    +0.000 HD
BRANCH  17  20
ATOM     20  C   UNL     1      44.376   5.120  11.195  0.00  0.00    +0.000 A 
ATOM     21  C   UNL     1      43.582   4.402  12.078  0.00  0.00    +0.000 A 
ATOM     22  S   UNL     1      43.431   2.752  11.672  0.00  0.00    +0.000 S 
ATOM     23  C   UNL     1      44.382   2.950  10.275  0.00  0.00    +0.000 A 
ATOM     24  N   UNL     1      44.599   1.915   9.423  0.00  0.00    +0.000 NA
ATOM     25  C   UNL     1      45.290   2.221   8.372  0.00  0.00    +0.000 A 
ATOM     26  N   UNL     1      45.816   3.466   8.096  0.00  0.00    +0.000 N 
ATOM     27  C   UNL     1      46.573   3.706   6.886  0.00  0.00    +0.000 C 
ATOM     28  C   UNL     1      45.670   4.526   8.981  0.00  0.00    +0.000 A 
ATOM     29  O   UNL     1      46.218   5.610   8.810  0.00  0.00    +0.000 OA
ATOM     30  C   UNL     1      44.845   4.244  10.144  0.00  0.00    +0.000 A 
ENDBRANCH  17  20
ENDBRANCH   2  16
TORSDOF 5
ENDMDL
MODEL 6
REMARK VINA RESULT:    -7.375      3.050      3.974
REMARK INTER + INTRA:          -9.920
REMARK INTER:                  -8.824
REMARK INTRA:                  -1.096
REMARK UNBOUND:                -0.390
REMARK  Name = 
REMARK  7 active torsions:
REMARK  status: ('A' for Active; 'I' for Inactive)
REMARK    1  A    between atoms: C_1  and  C_2
REMARK    2  A    between atoms: C_2  and  N_3
REMARK    3  A    between atoms: C_2  and  C_17
REMARK    4  A    between atoms: C_4  and  C_6
REMARK    5  A    between atoms: N_12  and  C_13
REMARK    6  A    between atoms: C_20  and  O_21
REMARK    7  A    between atoms: O_21  and  C_22
REMARK                            x       y       z     vdW  Elec       q    Type
REMARK                         _______ _______ _______ _____ _____    ______ ____
ROOT
ATOM      1  C   UNL     1      47.221   4.076  16.498  0.00  0.00    +0.000 C 
ATOM      2  C   UNL     1      47.705   4.853  15.273  0.00  0.00    +0.000 C 
ENDROOT
BRANCH   2   3
ATOM      3  C   UNL     1      46.783   4.728  14.065  0.00  0.00    +0.000 A 
ATOM      4  C   UNL     1      46.381   3.452  13.636  0.00  0.00    +0.000 A 
ATOM      5  C   UNL     1      45.668   3.287  12.443  0.00  0.00    +0.000 A 
ATOM      6  C   UNL     1      45.305   4.399  11.680  0.00  0.00    +0.000 A 
ATOM      7  C   UNL     1      45.700   5.670  12.097  0.00  0.00    +0.000 A 
ATOM      8  C   UNL     1      46.433   5.833  13.274  0.00  0.00    +0.000 A 
BRANCH   6   9
ATOM      9  O   UNL     1      44.657   4.350  10.468  0.00  0.00    +0.000 OA
BRANCH   9  10
ATOM     10  C   UNL     1      45.268   3.782   9.381  0.00  0.00    +0.000 A 
ATOM     11  C   UNL     1      45.331   2.414   9.132  0.00  0.00    +0.000 A 
ATOM     12  C   UNL     1      45.993   1.956   7.997  0.00  0.00    +0.000 A 
ATOM     13  C   UNL     1      46.531   2.890   7.126  0.00  0.00    +0.000 A 
ATOM     14  N   UNL     1      46.442   4.226   7.307  0.00  0.00    +0.000 NA
ATOM     15  C   UNL     1      45.807   4.639   8.429  0.00  0.00    +0.000 A 
ENDBRANCH   9  10
ENDBRANCH   6   9
ENDBRANCH   2   3
BRANCH   2  16
ATOM     16  N   UNL     1      47.869   6.263  15.580  0.00  0.00    +0.000 N 
ATOM     17  C   UNL     1      49.087   6.887  15.637  0.00  0.00    +0.000 C 
ATOM     18  O   UNL     1      50.144   6.268  15.569  0.00  0.00    +0.000 OA
ATOM     19  H   UNL     1      47.032   6.833  15.499  0.00  0.00    +0.000 HD
BRANCH  17  20
ATOM     20  C   UNL     1      49.064   8.347  15.809  0.00  0.00    +0.000 A 
ATOM     21  C   UNL     1      49.522   9.173  14.792  0.00  0.00    +0.000 A 
ATOM     22  S   UNL     1      49.392  10.836  15.154  0.00  0.00    +0.000 S 
ATOM     23  C   UNL     1      48.673  10.509  16.662  0.00  0.00    +0.000 A 
ATOM     24  N   UNL     1      48.251  11.516  17.469  0.00  0.00    +0.000 NA
ATOM     25  C   UNL     1      47.670  11.124  18.558  0.00  0.00    +0.000 A 
ATOM     26  N   UNL     1      47.492   9.811  18.939  0.00  0.00    +0.000 N 
ATOM     27  C   UNL     1      46.823   9.476  20.179  0.00  0.00    +0.000 C 
ATOM     28  C   UNL     1      47.974   8.760  18.169  0.00  0.00    +0.000 A 
ATOM     29  O   UNL     1      47.923   7.592  18.538  0.00  0.00    +0.000 OA
ATOM     30  C   UNL     1      48.575   9.154  16.906  0.00  0.00    +0.000 A 
ENDBRANCH  17  20
ENDBRANCH   2  16
TORSDOF 5
ENDMDL
MODEL 7
REMARK VINA RESULT:    -7.297      2.823      3.992
REMARK INTER + INTRA:          -9.819
REMARK INTER:                  -8.277
REMARK INTRA:                  -1.542
REMARK UNBOUND:                -0.390
REMARK  Name = 
REMARK  7 active torsions:
REMARK  status: ('A' for Active; 'I' for Inactive)
REMARK    1  A    between atoms: C_1  and  C_2
REMARK    2  A    between atoms: C_2  and  N_3
REMARK    3  A    between atoms: C_2  and  C_17
REMARK    4  A    between atoms: C_4  and  C_6
REMARK    5  A    between atoms: N_12  and  C_13
REMARK    6  A    between atoms: C_20  and  O_21
REMARK    7  A    between atoms: O_21  and  C_22
REMARK                            x       y       z     vdW  Elec       q    Type
REMARK                         _______ _______ _______ _____ _____    ______ ____
ROOT
ATOM      1  C   UNL     1      50.410   9.066  12.826  0.00  0.00    +0.000 C 
ATOM      2  C   UNL     1      49.225   8.996  13.790  0.00  0.00    +0.000 C 
ENDROOT
BRANCH   2   3
ATOM      3  C   UNL     1      48.008   8.284  13.212  0.00  0.00    +0.000 A 
ATOM      4  C   UNL     1      48.196   7.176  12.368  0.00  0.00    +0.000 A 
ATOM      5  C   UNL     1      47.116   6.595  11.694  0.00  0.00    +0.000 A 
ATOM      6  C   UNL     1      45.822   7.083  11.885  0.00  0.00    +0.000 A 
ATOM      7  C   UNL     1      45.623   8.183  12.720  0.00  0.00    +0.000 A 
ATOM      8  C   UNL     1      46.704   8.779  13.374  0.00  0.00    +0.000 A 
BRANCH   6   9
ATOM      9  O   UNL     1      44.699   6.628  11.232  0.00  0.00    +0.000 OA
BRANCH   9  10
ATOM     10  C   UNL     1      44.258   5.347  11.432  0.00  0.00    +0.000 A 
ATOM     11  C   UNL     1      43.879   4.821  12.663  0.00  0.00    +0.000 A 
ATOM     12  C   UNL     1      43.458   3.497  12.741  0.00  0.00    +0.000 A 
ATOM     13  C   UNL     1      43.390   2.757  11.571  0.00  0.00    +0.000 A 
ATOM     14  N   UNL     1      43.698   3.249  10.351  0.00  0.00    +0.000 NA
ATOM     15  C   UNL     1      44.119   4.536  10.311  0.00  0.00    +0.000 A 
ENDBRANCH   9  10
ENDBRANCH   6   9
ENDBRANCH   2   3
BRANCH   2  16
ATOM     16  N   UNL     1      49.598   8.333  15.028  0.00  0.00    +0.000 N 
ATOM     17  C   UNL     1      49.030   8.623  16.240  0.00  0.00    +0.000 C 
ATOM     18  O   UNL     1      48.259   9.566  16.395  0.00  0.00    +0.000 OA
ATOM     19  H   UNL     1      50.112   7.463  14.925  0.00  0.00    +0.000 HD
BRANCH  17  20
ATOM     20  C   UNL     1      49.412   7.754  17.363  0.00  0.00    +0.000 A 
ATOM     21  C   UNL     1      49.980   8.303  18.504  0.00  0.00    +0.000 A 
ATOM     22  S   UNL     1      50.330   7.151  19.713  0.00  0.00    +0.000 S 
ATOM     23  C   UNL     1      49.688   5.885  18.773  0.00  0.00    +0.000 A 
ATOM     24  N   UNL     1      49.624   4.618  19.255  0.00  0.00    +0.000 NA
ATOM     25  C   UNL     1      49.060   3.768  18.458  0.00  0.00    +0.000 A 
ATOM     26  N   UNL     1      48.573   4.054  17.200  0.00  0.00    +0.000 N 
ATOM     27  C   UNL     1      47.953   3.030  16.387  0.00  0.00    +0.000 C 
ATOM     28  C   UNL     1      48.688   5.326  16.651  0.00  0.00    +0.000 A 
ATOM     29  O   UNL     1      48.361   5.578  15.497  0.00  0.00    +0.000 OA
ATOM     30  C   UNL     1      49.256   6.326  17.538  0.00  0.00    +0.000 A 
ENDBRANCH  17  20
ENDBRANCH   2  16
TORSDOF 5
ENDMDL
MODEL 8
REMARK VINA RESULT:    -7.212      2.563      4.460
REMARK INTER + INTRA:          -9.709
REMARK INTER:                  -8.449
REMARK INTRA:                  -1.260
REMARK UNBOUND:                -0.390
REMARK  Name = 
REMARK  7 active torsions:
REMARK  status: ('A' for Active; 'I' for Inactive)
REMARK    1  A    between atoms: C_1  and  C_2
REMARK    2  A    between atoms: C_2  and  N_3
REMARK    3  A    between atoms: C_2  and  C_17
REMARK    4  A    between atoms: C_4  and  C_6
REMARK    5  A    between atoms: N_12  and  C_13
REMARK    6  A    between atoms: C_20  and  O_21
REMARK    7  A    between atoms: O_21  and  C_22
REMARK                            x       y       z     vdW  Elec       q    Type
REMARK                         _______ _______ _______ _____ _____    ______ ____
ROOT
ATOM      1  C   UNL     1      47.096   4.197  16.926  0.00  0.00    +0.000 C 
ATOM      2  C   UNL     1      47.842   4.756  15.713  0.00  0.00    +0.000 C 
ENDROOT
BRANCH   2   3
ATOM      3  C   UNL     1      47.067   4.629  14.407  0.00  0.00    +0.000 A 
ATOM      4  C   UNL     1      46.517   5.781  13.819  0.00  0.00    +0.000 A 
ATOM      5  C   UNL     1      45.669   5.687  12.710  0.00  0.00    +0.000 A 
ATOM      6  C   UNL     1      45.389   4.442  12.141  0.00  0.00    +0.000 A 
ATOM      7  C   UNL     1      45.929   3.292  12.717  0.00  0.00    +0.000 A 
ATOM      8  C   UNL     1      46.756   3.384  13.839  0.00  0.00    +0.000 A 
BRANCH   6   9
ATOM      9  O   UNL     1      44.528   4.227  11.090  0.00  0.00    +0.000 OA
BRANCH   9  10
ATOM     10  C   UNL     1      45.008   3.798   9.881  0.00  0.00    +0.000 A 
ATOM     11  C   UNL     1      44.989   2.477   9.443  0.00  0.00    +0.000 A 
ATOM     12  C   UNL     1      45.520   2.163   8.196  0.00  0.00    +0.000 A 
ATOM     13  C   UNL     1      46.013   3.193   7.411  0.00  0.00    +0.000 A 
ATOM     14  N   UNL     1      45.999   4.493   7.780  0.00  0.00    +0.000 NA
ATOM     15  C   UNL     1      45.491   4.764   9.005  0.00  0.00    +0.000 A 
ENDBRANCH   9  10
ENDBRANCH   6   9
ENDBRANCH   2   3
BRANCH   2  16
ATOM     16  N   UNL     1      48.182   6.155  15.908  0.00  0.00    +0.000 N 
ATOM     17  C   UNL     1      49.451   6.591  16.183  0.00  0.00    +0.000 C 
ATOM     18  O   UNL     1      50.373   5.818  16.423  0.00  0.00    +0.000 OA
ATOM     19  H   UNL     1      47.495   6.827  15.580  0.00  0.00    +0.000 HD
BRANCH  17  20
ATOM     20  C   UNL     1      49.650   8.048  16.199  0.00  0.00    +0.000 A 
ATOM     21  C   UNL     1      49.892   8.703  17.399  0.00  0.00    +0.000 A 
ATOM     22  S   UNL     1      50.127  10.383  17.223  0.00  0.00    +0.000 S 
ATOM     23  C   UNL     1      49.963  10.287  15.532  0.00  0.00    +0.000 A 
ATOM     24  N   UNL     1      50.118  11.385  14.749  0.00  0.00    +0.000 NA
ATOM     25  C   UNL     1      50.024  11.157  13.479  0.00  0.00    +0.000 A 
ATOM     26  N   UNL     1      49.760   9.931  12.905  0.00  0.00    +0.000 N 
ATOM     27  C   UNL     1      49.679   9.780  11.467  0.00  0.00    +0.000 C 
ATOM     28  C   UNL     1      49.527   8.803  13.681  0.00  0.00    +0.000 A 
ATOM     29  O   UNL     1      49.185   7.729  13.199  0.00  0.00    +0.000 OA
ATOM     30  C   UNL     1      49.687   9.001  15.112  0.00  0.00    +0.000 A 
ENDBRANCH  17  20
ENDBRANCH   2  16
TORSDOF 5
ENDMDL
MODEL 9
REMARK VINA RESULT:    -7.013      3.652      9.268
REMARK INTER + INTRA:          -9.452
REMARK INTER:                  -9.334
REMARK INTRA:                  -0.119
REMARK UNBOUND:                -0.390
REMARK  Name = 
REMARK  7 active torsions:
REMARK  status: ('A' for Active; 'I' for Inactive)
REMARK    1  A    between atoms: C_1  and  C_2
REMARK    2  A    between atoms: C_2  and  N_3
REMARK    3  A    between atoms: C_2  and  C_17
REMARK    4  A    between atoms: C_4  and  C_6
REMARK    5  A    between atoms: N_12  and  C_13
REMARK    6  A    between atoms: C_20  and  O_21
REMARK    7  A    between atoms: O_21  and  C_22
REMARK                            x       y       z     vdW  Elec       q    Type
REMARK                         _______ _______ _______ _____ _____    ______ ____
ROOT
ATOM      1  C   UNL     1      46.771   2.938  17.394  0.00  0.00    +0.000 C 
ATOM      2  C   UNL     1      47.642   4.195  17.404  0.00  0.00    +0.000 C 
ENDROOT
BRANCH   2   3
ATOM      3  C   UNL     1      49.124   3.911  17.616  0.00  0.00    +0.000 A 
ATOM      4  C   UNL     1      50.007   4.985  17.826  0.00  0.00    +0.000 A 
ATOM      5  C   UNL     1      51.391   4.779  17.867  0.00  0.00    +0.000 A 
ATOM      6  C   UNL     1      51.915   3.491  17.743  0.00  0.00    +0.000 A 
ATOM      7  C   UNL     1      51.049   2.419  17.534  0.00  0.00    +0.000 A 
ATOM      8  C   UNL     1      49.669   2.626  17.468  0.00  0.00    +0.000 A 
BRANCH   6   9
ATOM      9  O   UNL     1      53.256   3.181  17.711  0.00  0.00    +0.000 OA
BRANCH   9  10
ATOM     10  C   UNL     1      53.885   2.727  18.840  0.00  0.00    +0.000 A 
ATOM     11  C   UNL     1      53.977   3.433  20.036  0.00  0.00    +0.000 A 
ATOM     12  C   UNL     1      54.655   2.869  21.112  0.00  0.00    +0.000 A 
ATOM     13  C   UNL     1      55.181   1.596  20.966  0.00  0.00    +0.000 A 
ATOM     14  N   UNL     1      55.065   0.859  19.839  0.00  0.00    +0.000 NA
ATOM     15  C   UNL     1      54.414   1.442  18.805  0.00  0.00    +0.000 A 
ENDBRANCH   9  10
ENDBRANCH   6   9
ENDBRANCH   2   3
BRANCH   2  16
ATOM     16  N   UNL     1      47.493   4.943  16.167  0.00  0.00    +0.000 N 
ATOM     17  C   UNL     1      47.398   4.352  14.935  0.00  0.00    +0.000 C 
ATOM     18  O   UNL     1      47.571   3.148  14.769  0.00  0.00    +0.000 OA
ATOM     19  H   UNL     1      47.202   5.911  16.268  0.00  0.00    +0.000 HD
BRANCH  17  20
ATOM     20  C   UNL     1      47.096   5.245  13.806  0.00  0.00    +0.000 A 
ATOM     21  C   UNL     1      47.702   6.491  13.726  0.00  0.00    +0.000 A 
ATOM     22  S   UNL     1      47.258   7.376  12.336  0.00  0.00    +0.000 S 
ATOM     23  C   UNL     1      46.280   6.104  11.768  0.00  0.00    +0.000 A 
ATOM     24  N   UNL     1      45.645   6.189  10.571  0.00  0.00    +0.000 NA
ATOM     25  C   UNL     1      44.984   5.127  10.238  0.00  0.00    +0.000 A 
ATOM     26  N   UNL     1      44.869   3.984  11.001  0.00  0.00    +0.000 N 
ATOM     27  C   UNL     1      44.108   2.846  10.534  0.00  0.00    +0.000 C 
ATOM     28  C   UNL     1      45.449   3.894  12.260  0.00  0.00    +0.000 A 
ATOM     29  O   UNL     1      45.272   2.933  13.001  0.00  0.00    +0.000 OA
ATOM     30  C   UNL     1      46.256   5.039  12.647  0.00  0.00    +0.000 A 
ENDBRANCH  17  20
ENDBRANCH   2  16
TORSDOF 5
ENDMDL
