MODEL 1
REMARK VINA RESULT:    -7.863      0.000      0.000
REMARK INTER + INTRA:         -12.221
REMARK INTER:                 -11.081
REMARK INTRA:                  -1.141
REMARK UNBOUND:                -1.141
REMARK  Name = 
REMARK  7 active torsions:
REMARK  status: ('A' for Active; 'I' for Inactive)
REMARK    1  A    between atoms: C_2  and  C_19
REMARK    2  A    between atoms: N_3  and  C_4
REMARK    3  A    between atoms: C_4  and  C_5
REMARK    4  A    between atoms: C_8  and  C_9
REMARK    5  A    between atoms: C_9  and  C_10
REMARK    6  A    between atoms: C_10  and  C_11
REMARK    7  A    between atoms: C_11  and  N_12
REMARK                            x       y       z     vdW  Elec       q    Type
REMARK                         _______ _______ _______ _____ _____    ______ ____
ROOT
ATOM      1  O   UNL     1      49.569   7.078  13.702  0.00  0.00    +0.000 OA
ATOM      2  C   UNL     1      48.729   6.897  14.581  0.00  0.00    +0.000 C 
ATOM      3  N   UNL     1      47.382   6.914  14.316  0.00  0.00    +0.000 N 
ATOM      4  H   UNL     1      46.722   6.996  15.083  0.00  0.00    +0.000 HD
ENDROOT
BRANCH   2   5
ATOM      5  C   UNL     1      49.124   6.609  15.960  0.00  0.00    +0.000 A 
ATOM      6  C   UNL     1      49.860   7.545  16.679  0.00  0.00    +0.000 A 
ATOM      7  S   UNL     1      50.218   7.053  18.270  0.00  0.00    +0.000 S 
ATOM      8  C   UNL     1      49.372   5.595  18.070  0.00  0.00    +0.000 A 
ATOM      9  N   UNL     1      49.247   4.708  19.092  0.00  0.00    +0.000 NA
ATOM     10  C   UNL     1      48.550   3.661  18.812  0.00  0.00    +0.000 A 
ATOM     11  N   UNL     1      47.969   3.410  17.592  0.00  0.00    +0.000 N 
ATOM     12  C   UNL     1      48.099   4.254  16.516  0.00  0.00    +0.000 A 
ATOM     13  O   UNL     1      47.630   3.968  15.418  0.00  0.00    +0.000 OA
ATOM     14  C   UNL     1      48.851   5.464  16.794  0.00  0.00    +0.000 A 
ATOM     15  H   UNL     1      47.453   2.558  17.428  0.00  0.00    +0.000 HD
ENDBRANCH   2   5
BRANCH   3  16
ATOM     16  C   UNL     1      46.916   7.279  13.002  0.00  0.00    +0.000 C 
BRANCH  16  17
ATOM     17  C   UNL     1      46.253   6.130  12.295  0.00  0.00    +0.000 A 
ATOM     18  C   UNL     1      45.917   4.978  13.008  0.00  0.00    +0.000 A 
ATOM     19  C   UNL     1      45.251   3.928  12.377  0.00  0.00    +0.000 A 
ATOM     20  C   UNL     1      44.891   3.997  11.020  0.00  0.00    +0.000 A 
ATOM     21  C   UNL     1      45.278   5.132  10.300  0.00  0.00    +0.000 A 
ATOM     22  C   UNL     1      45.954   6.187  10.928  0.00  0.00    +0.000 A 
BRANCH  20  23
ATOM     23  C   UNL     1      44.139   2.875  10.316  0.00  0.00    +0.000 C 
BRANCH  23  24
ATOM     24  C   UNL     1      44.505   2.772   8.836  0.00  0.00    +0.000 C 
BRANCH  24  25
ATOM     25  C   UNL     1      45.510   1.677   8.468  0.00  0.00    +0.000 C 
BRANCH  25  26
ATOM     26  N   UNL     1      46.753   2.304   7.986  0.00  0.00    +0.000 NA
ATOM     27  C   UNL     1      46.563   3.556   7.240  0.00  0.00    +0.000 C 
ATOM     28  C   UNL     1      46.630   3.178   5.781  0.00  0.00    +0.000 C 
ATOM     29  C   UNL     1      47.673   2.086   5.766  0.00  0.00    +0.000 C 
ATOM     30  C   UNL     1      47.547   1.411   7.128  0.00  0.00    +0.000 C 
ENDBRANCH  25  26
ENDBRANCH  24  25
ENDBRANCH  23  24
ENDBRANCH  20  23
ENDBRANCH  16  17
ENDBRANCH   3  16
TORSDOF 7
ENDMDL
MODEL 2
REMARK VINA RESULT:    -7.219      1.526      2.172
REMARK INTER + INTRA:         -11.313
REMARK INTER:                 -10.342
REMARK INTRA:                  -0.972
REMARK UNBOUND:                -1.141
REMARK  Name = 
REMARK  7 active torsions:
REMARK  status: ('A' for Active; 'I' for Inactive)
REMARK    1  A    between atoms: C_2  and  C_19
REMARK    2  A    between atoms: N_3  and  C_4
REMARK    3  A    between atoms: C_4  and  C_5
REMARK    4  A    between atoms: C_8  and  C_9
REMARK    5  A    between atoms: C_9  and  C_10
REMARK    6  A    between atoms: C_10  and  C_11
REMARK    7  A    between atoms: C_11  and  N_12
REMARK                            x       y       z     vdW  Elec       q    Type
REMARK                         _______ _______ _______ _____ _____    ______ ____
ROOT
ATOM      1  O   UNL     1      49.653   6.707  14.834  0.00  0.00    +0.000 OA
ATOM      2  C   UNL     1      48.685   6.248  15.436  0.00  0.00    +0.000 C 
ATOM      3  N   UNL     1      47.456   6.104  14.839  0.00  0.00    +0.000 N 
ATOM      4  H   UNL     1      46.636   5.948  15.416  0.00  0.00    +0.000 HD
ENDROOT
BRANCH   2   5
ATOM      5  C   UNL     1      48.802   5.787  16.820  0.00  0.00    +0.000 A 
ATOM      6  C   UNL     1      48.726   4.428  17.105  0.00  0.00    +0.000 A 
ATOM      7  S   UNL     1      48.897   4.070  18.762  0.00  0.00    +0.000 S 
ATOM      8  C   UNL     1      49.118   5.708  19.151  0.00  0.00    +0.000 A 
ATOM      9  N   UNL     1      49.366   6.101  20.429  0.00  0.00    +0.000 NA
ATOM     10  C   UNL     1      49.547   7.367  20.576  0.00  0.00    +0.000 A 
ATOM     11  N   UNL     1      49.494   8.289  19.557  0.00  0.00    +0.000 N 
ATOM     12  C   UNL     1      49.208   7.949  18.257  0.00  0.00    +0.000 A 
ATOM     13  O   UNL     1      49.096   8.804  17.383  0.00  0.00    +0.000 OA
ATOM     14  C   UNL     1      49.027   6.526  18.038  0.00  0.00    +0.000 A 
ATOM     15  H   UNL     1      49.624   9.274  19.740  0.00  0.00    +0.000 HD
ENDBRANCH   2   5
BRANCH   3  16
ATOM     16  C   UNL     1      47.242   6.617  13.510  0.00  0.00    +0.000 C 
BRANCH  16  17
ATOM     17  C   UNL     1      46.470   5.658  12.649  0.00  0.00    +0.000 A 
ATOM     18  C   UNL     1      46.115   4.405  13.152  0.00  0.00    +0.000 A 
ATOM     19  C   UNL     1      45.350   3.528  12.383  0.00  0.00    +0.000 A 
ATOM     20  C   UNL     1      44.910   3.874  11.095  0.00  0.00    +0.000 A 
ATOM     21  C   UNL     1      45.314   5.109  10.577  0.00  0.00    +0.000 A 
ATOM     22  C   UNL     1      46.089   5.991  11.343  0.00  0.00    +0.000 A 
BRANCH  20  23
ATOM     23  C   UNL     1      44.051   2.944  10.248  0.00  0.00    +0.000 C 
BRANCH  23  24
ATOM     24  C   UNL     1      44.549   2.847   8.807  0.00  0.00    +0.000 C 
BRANCH  24  25
ATOM     25  C   UNL     1      45.548   1.723   8.517  0.00  0.00    +0.000 C 
BRANCH  25  26
ATOM     26  N   UNL     1      46.803   2.309   8.012  0.00  0.00    +0.000 NA
ATOM     27  C   UNL     1      46.645   3.589   7.306  0.00  0.00    +0.000 C 
ATOM     28  C   UNL     1      46.652   3.248   5.835  0.00  0.00    +0.000 C 
ATOM     29  C   UNL     1      47.645   2.113   5.761  0.00  0.00    +0.000 C 
ATOM     30  C   UNL     1      47.531   1.407   7.108  0.00  0.00    +0.000 C 
ENDBRANCH  25  26
ENDBRANCH  24  25
ENDBRANCH  23  24
ENDBRANCH  20  23
ENDBRANCH  16  17
ENDBRANCH   3  16
TORSDOF 7
ENDMDL
MODEL 3
REMARK VINA RESULT:    -6.810      3.270      8.168
REMARK INTER + INTRA:         -10.737
REMARK INTER:                  -9.240
REMARK INTRA:                  -1.497
REMARK UNBOUND:                -1.141
REMARK  Name = 
REMARK  7 active torsions:
REMARK  status: ('A' for Active; 'I' for Inactive)
REMARK    1  A    between atoms: C_2  and  C_19
REMARK    2  A    between atoms: N_3  and  C_4
REMARK    3  A    between atoms: C_4  and  C_5
REMARK    4  A    between atoms: C_8  and  C_9
REMARK    5  A    between atoms: C_9  and  C_10
REMARK    6  A    between atoms: C_10  and  C_11
REMARK    7  A    between atoms: C_11  and  N_12
REMARK                            x       y       z     vdW  Elec       q    Type
REMARK                         _______ _______ _______ _____ _____    ______ ____
ROOT
ATOM      1  O   UNL     1      45.599   7.863  11.685  0.00  0.00    +0.000 OA
ATOM      2  C   UNL     1      46.239   6.854  11.398  0.00  0.00    +0.000 C 
ATOM      3  N   UNL     1      47.578   6.734  11.684  0.00  0.00    +0.000 N 
ATOM      4  H   UNL     1      48.122   6.005  11.234  0.00  0.00    +0.000 HD
ENDROOT
BRANCH   2   5
ATOM      5  C   UNL     1      45.596   5.700  10.769  0.00  0.00    +0.000 A 
ATOM      6  C   UNL     1      45.766   5.471   9.407  0.00  0.00    +0.000 A 
ATOM      7  S   UNL     1      44.961   4.078   8.847  0.00  0.00    +0.000 S 
ATOM      8  C   UNL     1      44.393   3.710  10.404  0.00  0.00    +0.000 A 
ATOM      9  N   UNL     1      43.658   2.590  10.639  0.00  0.00    +0.000 NA
ATOM     10  C   UNL     1      43.323   2.417  11.871  0.00  0.00    +0.000 A 
ATOM     11  N   UNL     1      43.648   3.271  12.898  0.00  0.00    +0.000 N 
ATOM     12  C   UNL     1      44.353   4.435  12.707  0.00  0.00    +0.000 A 
ATOM     13  O   UNL     1      44.565   5.213  13.633  0.00  0.00    +0.000 OA
ATOM     14  C   UNL     1      44.780   4.656  11.338  0.00  0.00    +0.000 A 
ATOM     15  H   UNL     1      43.335   3.091  13.841  0.00  0.00    +0.000 HD
ENDBRANCH   2   5
BRANCH   3  16
ATOM     16  C   UNL     1      48.298   7.861  12.220  0.00  0.00    +0.000 C 
BRANCH  16  17
ATOM     17  C   UNL     1      48.978   7.533  13.519  0.00  0.00    +0.000 A 
ATOM     18  C   UNL     1      50.285   7.968  13.748  0.00  0.00    +0.000 A 
ATOM     19  C   UNL     1      50.907   7.719  14.972  0.00  0.00    +0.000 A 
ATOM     20  C   UNL     1      50.244   7.037  16.006  0.00  0.00    +0.000 A 
ATOM     21  C   UNL     1      48.955   6.558  15.751  0.00  0.00    +0.000 A 
ATOM     22  C   UNL     1      48.329   6.799  14.521  0.00  0.00    +0.000 A 
BRANCH  20  23
ATOM     23  C   UNL     1      50.893   6.778  17.359  0.00  0.00    +0.000 C 
BRANCH  23  24
ATOM     24  C   UNL     1      50.167   5.690  18.151  0.00  0.00    +0.000 C 
BRANCH  24  25
ATOM     25  C   UNL     1      50.622   4.252  17.886  0.00  0.00    +0.000 C 
BRANCH  25  26
ATOM     26  N   UNL     1      49.495   3.335  18.134  0.00  0.00    +0.000 NA
ATOM     27  C   UNL     1      49.193   2.417  17.026  0.00  0.00    +0.000 C 
ATOM     28  C   UNL     1      48.035   3.037  16.284  0.00  0.00    +0.000 C 
ATOM     29  C   UNL     1      47.223   3.661  17.393  0.00  0.00    +0.000 C 
ATOM     30  C   UNL     1      48.246   4.039  18.458  0.00  0.00    +0.000 C 
ENDBRANCH  25  26
ENDBRANCH  24  25
ENDBRANCH  23  24
ENDBRANCH  20  23
ENDBRANCH  16  17
ENDBRANCH   3  16
TORSDOF 7
ENDMDL
MODEL 4
REMARK VINA RESULT:    -6.666      2.170      2.845
REMARK INTER + INTRA:         -10.534
REMARK INTER:                  -9.722
REMARK INTRA:                  -0.812
REMARK UNBOUND:                -1.141
REMARK  Name = 
REMARK  7 active torsions:
REMARK  status: ('A' for Active; 'I' for Inactive)
REMARK    1  A    between atoms: C_2  and  C_19
REMARK    2  A    between atoms: N_3  and  C_4
REMARK    3  A    between atoms: C_4  and  C_5
REMARK    4  A    between atoms: C_8  and  C_9
REMARK    5  A    between atoms: C_9  and  C_10
REMARK    6  A    between atoms: C_10  and  C_11
REMARK    7  A    between atoms: C_11  and  N_12
REMARK                            x       y       z     vdW  Elec       q    Type
REMARK                         _______ _______ _______ _____ _____    ______ ____
ROOT
ATOM      1  O   UNL     1      49.340   4.673  16.634  0.00  0.00    +0.000 OA
ATOM      2  C   UNL     1      48.649   5.637  16.312  0.00  0.00    +0.000 C 
ATOM      3  N   UNL     1      47.508   5.496  15.559  0.00  0.00    +0.000 N 
ATOM      4  H   UNL     1      47.097   6.313  15.118  0.00  0.00    +0.000 HD
ENDROOT
BRANCH   2   5
ATOM      5  C   UNL     1      48.983   6.992  16.752  0.00  0.00    +0.000 A 
ATOM      6  C   UNL     1      49.807   7.791  15.966  0.00  0.00    +0.000 A 
ATOM      7  S   UNL     1      50.078   9.340  16.622  0.00  0.00    +0.000 S 
ATOM      8  C   UNL     1      49.074   9.014  17.952  0.00  0.00    +0.000 A 
ATOM      9  N   UNL     1      48.830   9.961  18.897  0.00  0.00    +0.000 NA
ATOM     10  C   UNL     1      48.024   9.590  19.831  0.00  0.00    +0.000 A 
ATOM     11  N   UNL     1      47.441   8.348  19.916  0.00  0.00    +0.000 N 
ATOM     12  C   UNL     1      47.686   7.345  19.009  0.00  0.00    +0.000 A 
ATOM     13  O   UNL     1      47.208   6.224  19.152  0.00  0.00    +0.000 OA
ATOM     14  C   UNL     1      48.565   7.728  17.920  0.00  0.00    +0.000 A 
ATOM     15  H   UNL     1      46.834   8.111  20.687  0.00  0.00    +0.000 HD
ENDBRANCH   2   5
BRANCH   3  16
ATOM     16  C   UNL     1      47.165   4.207  15.014  0.00  0.00    +0.000 C 
BRANCH  16  17
ATOM     17  C   UNL     1      46.322   4.321  13.775  0.00  0.00    +0.000 A 
ATOM     18  C   UNL     1      46.038   3.181  13.021  0.00  0.00    +0.000 A 
ATOM     19  C   UNL     1      45.211   3.264  11.901  0.00  0.00    +0.000 A 
ATOM     20  C   UNL     1      44.635   4.483  11.504  0.00  0.00    +0.000 A 
ATOM     21  C   UNL     1      44.967   5.630  12.232  0.00  0.00    +0.000 A 
ATOM     22  C   UNL     1      45.804   5.552  13.354  0.00  0.00    +0.000 A 
BRANCH  20  23
ATOM     23  C   UNL     1      43.707   4.593  10.301  0.00  0.00    +0.000 C 
BRANCH  23  24
ATOM     24  C   UNL     1      44.462   4.495   8.976  0.00  0.00    +0.000 C 
BRANCH  24  25
ATOM     25  C   UNL     1      44.683   3.081   8.434  0.00  0.00    +0.000 C 
BRANCH  25  26
ATOM     26  N   UNL     1      46.128   2.851   8.256  0.00  0.00    +0.000 NA
ATOM     27  C   UNL     1      46.761   3.681   7.221  0.00  0.00    +0.000 C 
ATOM     28  C   UNL     1      46.854   2.808   5.994  0.00  0.00    +0.000 C 
ATOM     29  C   UNL     1      47.136   1.443   6.576  0.00  0.00    +0.000 C 
ATOM     30  C   UNL     1      46.450   1.452   7.938  0.00  0.00    +0.000 C 
ENDBRANCH  25  26
ENDBRANCH  24  25
ENDBRANCH  23  24
ENDBRANCH  20  23
ENDBRANCH  16  17
ENDBRANCH   3  16
TORSDOF 7
ENDMDL
MODEL 5
REMARK VINA RESULT:    -6.535      2.941      8.746
REMARK INTER + INTRA:         -10.350
REMARK INTER:                  -8.786
REMARK INTRA:                  -1.564
REMARK UNBOUND:                -1.141
REMARK  Name = 
REMARK  7 active torsions:
REMARK  status: ('A' for Active; 'I' for Inactive)
REMARK    1  A    between atoms: C_2  and  C_19
REMARK    2  A    between atoms: N_3  and  C_4
REMARK    3  A    between atoms: C_4  and  C_5
REMARK    4  A    between atoms: C_8  and  C_9
REMARK    5  A    between atoms: C_9  and  C_10
REMARK    6  A    between atoms: C_10  and  C_11
REMARK    7  A    between atoms: C_11  and  N_12
REMARK                            x       y       z     vdW  Elec       q    Type
REMARK                         _______ _______ _______ _____ _____    ______ ____
ROOT
ATOM      1  O   UNL     1      44.647   7.331  11.882  0.00  0.00    +0.000 OA
ATOM      2  C   UNL     1      45.381   6.367  11.678  0.00  0.00    +0.000 C 
ATOM      3  N   UNL     1      46.747   6.454  11.797  0.00  0.00    +0.000 N 
ATOM      4  H   UNL     1      47.331   5.723  11.402  0.00  0.00    +0.000 HD
ENDROOT
BRANCH   2   5
ATOM      5  C   UNL     1      44.834   5.053  11.337  0.00  0.00    +0.000 A 
ATOM      6  C   UNL     1      44.032   4.380  12.253  0.00  0.00    +0.000 A 
ATOM      7  S   UNL     1      43.469   2.875  11.685  0.00  0.00    +0.000 S 
ATOM      8  C   UNL     1      44.239   3.088  10.187  0.00  0.00    +0.000 A 
ATOM      9  N   UNL     1      44.119   2.164   9.197  0.00  0.00    +0.000 NA
ATOM     10  C   UNL     1      44.726   2.469   8.102  0.00  0.00    +0.000 A 
ATOM     11  N   UNL     1      45.457   3.617   7.906  0.00  0.00    +0.000 N 
ATOM     12  C   UNL     1      45.641   4.561   8.886  0.00  0.00    +0.000 A 
ATOM     13  O   UNL     1      46.359   5.540   8.703  0.00  0.00    +0.000 OA
ATOM     14  C   UNL     1      44.949   4.275  10.129  0.00  0.00    +0.000 A 
ATOM     15  H   UNL     1      45.929   3.788   7.030  0.00  0.00    +0.000 HD
ENDBRANCH   2   5
BRANCH   3  16
ATOM     16  C   UNL     1      47.364   7.733  12.041  0.00  0.00    +0.000 C 
BRANCH  16  17
ATOM     17  C   UNL     1      47.851   7.867  13.456  0.00  0.00    +0.000 A 
ATOM     18  C   UNL     1      48.298   6.740  14.147  0.00  0.00    +0.000 A 
ATOM     19  C   UNL     1      48.805   6.860  15.440  0.00  0.00    +0.000 A 
ATOM     20  C   UNL     1      48.889   8.107  16.082  0.00  0.00    +0.000 A 
ATOM     21  C   UNL     1      48.390   9.224  15.405  0.00  0.00    +0.000 A 
ATOM     22  C   UNL     1      47.873   9.107  14.108  0.00  0.00    +0.000 A 
BRANCH  20  23
ATOM     23  C   UNL     1      49.464   8.266  17.484  0.00  0.00    +0.000 C 
BRANCH  23  24
ATOM     24  C   UNL     1      48.801   7.327  18.492  0.00  0.00    +0.000 C 
BRANCH  24  25
ATOM     25  C   UNL     1      49.609   6.087  18.883  0.00  0.00    +0.000 C 
BRANCH  25  26
ATOM     26  N   UNL     1      48.695   4.938  19.016  0.00  0.00    +0.000 NA
ATOM     27  C   UNL     1      49.199   3.682  18.443  0.00  0.00    +0.000 C 
ATOM     28  C   UNL     1      48.548   3.561  17.086  0.00  0.00    +0.000 C 
ATOM     29  C   UNL     1      47.175   4.142  17.322  0.00  0.00    +0.000 C 
ATOM     30  C   UNL     1      47.376   5.184  18.416  0.00  0.00    +0.000 C 
ENDBRANCH  25  26
ENDBRANCH  24  25
ENDBRANCH  23  24
ENDBRANCH  20  23
ENDBRANCH  16  17
ENDBRANCH   3  16
TORSDOF 7
ENDMDL
MODEL 6
REMARK VINA RESULT:    -6.479      4.020      8.975
REMARK INTER + INTRA:         -10.270
REMARK INTER:                  -8.385
REMARK INTRA:                  -1.885
REMARK UNBOUND:                -1.141
REMARK  Name = 
REMARK  7 active torsions:
REMARK  status: ('A' for Active; 'I' for Inactive)
REMARK    1  A    between atoms: C_2  and  C_19
REMARK    2  A    between atoms: N_3  and  C_4
REMARK    3  A    between atoms: C_4  and  C_5
REMARK    4  A    between atoms: C_8  and  C_9
REMARK    5  A    between atoms: C_9  and  C_10
REMARK    6  A    between atoms: C_10  and  C_11
REMARK    7  A    between atoms: C_11  and  N_12
REMARK                            x       y       z     vdW  Elec       q    Type
REMARK                         _______ _______ _______ _____ _____    ______ ____
ROOT
ATOM      1  O   UNL     1      47.518   3.448  13.709  0.00  0.00    +0.000 OA
ATOM      2  C   UNL     1      46.851   4.333  14.241  0.00  0.00    +0.000 C 
ATOM      3  N   UNL     1      46.722   4.427  15.605  0.00  0.00    +0.000 N 
ATOM      4  H   UNL     1      45.990   5.010  15.999  0.00  0.00    +0.000 HD
ENDROOT
BRANCH   2   5
ATOM      5  C   UNL     1      46.188   5.367  13.445  0.00  0.00    +0.000 A 
ATOM      6  C   UNL     1      46.856   6.553  13.159  0.00  0.00    +0.000 A 
ATOM      7  S   UNL     1      45.943   7.634  12.211  0.00  0.00    +0.000 S 
ATOM      8  C   UNL     1      44.645   6.545  12.115  0.00  0.00    +0.000 A 
ATOM      9  N   UNL     1      43.531   6.838  11.392  0.00  0.00    +0.000 NA
ATOM     10  C   UNL     1      42.641   5.908  11.377  0.00  0.00    +0.000 A 
ATOM     11  N   UNL     1      42.755   4.704  12.031  0.00  0.00    +0.000 N 
ATOM     12  C   UNL     1      43.841   4.375  12.806  0.00  0.00    +0.000 A 
ATOM     13  O   UNL     1      43.881   3.322  13.435  0.00  0.00    +0.000 OA
ATOM     14  C   UNL     1      44.886   5.382  12.826  0.00  0.00    +0.000 A 
ATOM     15  H   UNL     1      42.010   4.023  11.999  0.00  0.00    +0.000 HD
ENDBRANCH   2   5
BRANCH   3  16
ATOM     16  C   UNL     1      47.270   3.395  16.449  0.00  0.00    +0.000 C 
BRANCH  16  17
ATOM     17  C   UNL     1      48.250   3.941  17.449  0.00  0.00    +0.000 A 
ATOM     18  C   UNL     1      47.838   4.906  18.369  0.00  0.00    +0.000 A 
ATOM     19  C   UNL     1      48.722   5.379  19.339  0.00  0.00    +0.000 A 
ATOM     20  C   UNL     1      50.040   4.900  19.425  0.00  0.00    +0.000 A 
ATOM     21  C   UNL     1      50.462   3.973  18.467  0.00  0.00    +0.000 A 
ATOM     22  C   UNL     1      49.579   3.500  17.487  0.00  0.00    +0.000 A 
BRANCH  20  23
ATOM     23  C   UNL     1      51.015   5.381  20.492  0.00  0.00    +0.000 C 
BRANCH  23  24
ATOM     24  C   UNL     1      52.050   6.357  19.932  0.00  0.00    +0.000 C 
BRANCH  24  25
ATOM     25  C   UNL     1      51.545   7.771  19.633  0.00  0.00    +0.000 C 
BRANCH  25  26
ATOM     26  N   UNL     1      51.870   8.115  18.237  0.00  0.00    +0.000 NA
ATOM     27  C   UNL     1      50.727   8.575  17.435  0.00  0.00    +0.000 C 
ATOM     28  C   UNL     1      50.275   7.376  16.639  0.00  0.00    +0.000 C 
ATOM     29  C   UNL     1      51.575   6.674  16.325  0.00  0.00    +0.000 C 
ATOM     30  C   UNL     1      52.487   7.000  17.503  0.00  0.00    +0.000 C 
ENDBRANCH  25  26
ENDBRANCH  24  25
ENDBRANCH  23  24
ENDBRANCH  20  23
ENDBRANCH  16  17
ENDBRANCH   3  16
TORSDOF 7
ENDMDL
MODEL 7
REMARK VINA RESULT:    -6.377      4.004      8.601
REMARK INTER + INTRA:         -10.127
REMARK INTER:                  -8.231
REMARK INTRA:                  -1.897
REMARK UNBOUND:                -1.141
REMARK  Name = 
REMARK  7 active torsions:
REMARK  status: ('A' for Active; 'I' for Inactive)
REMARK    1  A    between atoms: C_2  and  C_19
REMARK    2  A    between atoms: N_3  and  C_4
REMARK    3  A    between atoms: C_4  and  C_5
REMARK    4  A    between atoms: C_8  and  C_9
REMARK    5  A    between atoms: C_9  and  C_10
REMARK    6  A    between atoms: C_10  and  C_11
REMARK    7  A    between atoms: C_11  and  N_12
REMARK                            x       y       z     vdW  Elec       q    Type
REMARK                         _______ _______ _______ _____ _____    ______ ____
ROOT
ATOM      1  O   UNL     1      44.130   7.541  11.271  0.00  0.00    +0.000 OA
ATOM      2  C   UNL     1      44.790   6.622  11.750  0.00  0.00    +0.000 C 
ATOM      3  N   UNL     1      45.831   6.848  12.618  0.00  0.00    +0.000 N 
ATOM      4  H   UNL     1      46.494   6.103  12.808  0.00  0.00    +0.000 HD
ENDROOT
BRANCH   2   5
ATOM      5  C   UNL     1      44.474   5.224  11.453  0.00  0.00    +0.000 A 
ATOM      6  C   UNL     1      43.679   4.494  12.331  0.00  0.00    +0.000 A 
ATOM      7  S   UNL     1      43.400   2.893  11.822  0.00  0.00    +0.000 S 
ATOM      8  C   UNL     1      44.292   3.129  10.397  0.00  0.00    +0.000 A 
ATOM      9  N   UNL     1      44.412   2.142   9.470  0.00  0.00    +0.000 NA
ATOM     10  C   UNL     1      45.086   2.469   8.422  0.00  0.00    +0.000 A 
ATOM     11  N   UNL     1      45.665   3.699   8.216  0.00  0.00    +0.000 N 
ATOM     12  C   UNL     1      45.607   4.716   9.138  0.00  0.00    +0.000 A 
ATOM     13  O   UNL     1      46.196   5.777   8.957  0.00  0.00    +0.000 OA
ATOM     14  C   UNL     1      44.829   4.403  10.323  0.00  0.00    +0.000 A 
ATOM     15  H   UNL     1      46.202   3.887   7.381  0.00  0.00    +0.000 HD
ENDBRANCH   2   5
BRANCH   3  16
ATOM     16  C   UNL     1      46.258   8.198  12.886  0.00  0.00    +0.000 C 
BRANCH  16  17
ATOM     17  C   UNL     1      47.627   8.480  12.333  0.00  0.00    +0.000 A 
ATOM     18  C   UNL     1      48.057   9.799  12.184  0.00  0.00    +0.000 A 
ATOM     19  C   UNL     1      49.346  10.073  11.725  0.00  0.00    +0.000 A 
ATOM     20  C   UNL     1      50.247   9.042  11.410  0.00  0.00    +0.000 A 
ATOM     21  C   UNL     1      49.791   7.724  11.511  0.00  0.00    +0.000 A 
ATOM     22  C   UNL     1      48.495   7.444  11.964  0.00  0.00    +0.000 A 
BRANCH  20  23
ATOM     23  C   UNL     1      51.667   9.317  10.934  0.00  0.00    +0.000 C 
BRANCH  23  24
ATOM     24  C   UNL     1      52.563   9.839  12.056  0.00  0.00    +0.000 C 
BRANCH  24  25
ATOM     25  C   UNL     1      53.260   8.774  12.907  0.00  0.00    +0.000 C 
BRANCH  25  26
ATOM     26  N   UNL     1      52.897   8.971  14.322  0.00  0.00    +0.000 NA
ATOM     27  C   UNL     1      52.368   7.776  14.994  0.00  0.00    +0.000 C 
ATOM     28  C   UNL     1      50.866   7.927  14.978  0.00  0.00    +0.000 C 
ATOM     29  C   UNL     1      50.679   9.415  15.160  0.00  0.00    +0.000 C 
ATOM     30  C   UNL     1      51.909  10.043  14.514  0.00  0.00    +0.000 C 
ENDBRANCH  25  26
ENDBRANCH  24  25
ENDBRANCH  23  24
ENDBRANCH  20  23
ENDBRANCH  16  17
ENDBRANCH   3  16
TORSDOF 7
ENDMDL
MODEL 8
REMARK VINA RESULT:    -6.364      4.918      7.745
REMARK INTER + INTRA:         -10.109
REMARK INTER:                  -9.058
REMARK INTRA:                  -1.050
REMARK UNBOUND:                -1.141
REMARK  Name = 
REMARK  7 active torsions:
REMARK  status: ('A' for Active; 'I' for Inactive)
REMARK    1  A    between atoms: C_2  and  C_19
REMARK    2  A    between atoms: N_3  and  C_4
REMARK    3  A    between atoms: C_4  and  C_5
REMARK    4  A    between atoms: C_8  and  C_9
REMARK    5  A    between atoms: C_9  and  C_10
REMARK    6  A    between atoms: C_10  and  C_11
REMARK    7  A    between atoms: C_11  and  N_12
REMARK                            x       y       z     vdW  Elec       q    Type
REMARK                         _______ _______ _______ _____ _____    ______ ____
ROOT
ATOM      1  O   UNL     1      44.355   7.589  11.240  0.00  0.00    +0.000 OA
ATOM      2  C   UNL     1      44.933   6.657  11.795  0.00  0.00    +0.000 C 
ATOM      3  N   UNL     1      45.912   6.864  12.737  0.00  0.00    +0.000 N 
ATOM      4  H   UNL     1      46.523   6.098  12.999  0.00  0.00    +0.000 HD
ENDROOT
BRANCH   2   5
ATOM      5  C   UNL     1      44.577   5.267  11.512  0.00  0.00    +0.000 A 
ATOM      6  C   UNL     1      43.806   4.551  12.422  0.00  0.00    +0.000 A 
ATOM      7  S   UNL     1      43.474   2.956  11.925  0.00  0.00    +0.000 S 
ATOM      8  C   UNL     1      44.311   3.176  10.464  0.00  0.00    +0.000 A 
ATOM      9  N   UNL     1      44.374   2.187   9.533  0.00  0.00    +0.000 NA
ATOM     10  C   UNL     1      45.010   2.502   8.459  0.00  0.00    +0.000 A 
ATOM     11  N   UNL     1      45.604   3.720   8.228  0.00  0.00    +0.000 N 
ATOM     12  C   UNL     1      45.604   4.737   9.152  0.00  0.00    +0.000 A 
ATOM     13  O   UNL     1      46.205   5.787   8.946  0.00  0.00    +0.000 OA
ATOM     14  C   UNL     1      44.870   4.439  10.368  0.00  0.00    +0.000 A 
ATOM     15  H   UNL     1      46.110   3.898   7.372  0.00  0.00    +0.000 HD
ENDBRANCH   2   5
BRANCH   3  16
ATOM     16  C   UNL     1      46.378   8.202  13.002  0.00  0.00    +0.000 C 
BRANCH  16  17
ATOM     17  C   UNL     1      47.716   8.471  12.373  0.00  0.00    +0.000 A 
ATOM     18  C   UNL     1      48.077   9.778  12.042  0.00  0.00    +0.000 A 
ATOM     19  C   UNL     1      49.338  10.049  11.510  0.00  0.00    +0.000 A 
ATOM     20  C   UNL     1      50.279   9.027  11.299  0.00  0.00    +0.000 A 
ATOM     21  C   UNL     1      49.891   7.714  11.583  0.00  0.00    +0.000 A 
ATOM     22  C   UNL     1      48.623   7.437  12.111  0.00  0.00    +0.000 A 
BRANCH  20  23
ATOM     23  C   UNL     1      51.671   9.301  10.746  0.00  0.00    +0.000 C 
BRANCH  23  24
ATOM     24  C   UNL     1      52.464   8.016  10.508  0.00  0.00    +0.000 C 
BRANCH  24  25
ATOM     25  C   UNL     1      53.906   8.197  10.026  0.00  0.00    +0.000 C 
BRANCH  25  26
ATOM     26  N   UNL     1      54.125   7.362   8.832  0.00  0.00    +0.000 NA
ATOM     27  C   UNL     1      54.209   8.106   7.567  0.00  0.00    +0.000 C 
ATOM     28  C   UNL     1      52.844   7.993   6.933  0.00  0.00    +0.000 C 
ATOM     29  C   UNL     1      52.415   6.596   7.314  0.00  0.00    +0.000 C 
ATOM     30  C   UNL     1      53.090   6.333   8.656  0.00  0.00    +0.000 C 
ENDBRANCH  25  26
ENDBRANCH  24  25
ENDBRANCH  23  24
ENDBRANCH  20  23
ENDBRANCH  16  17
ENDBRANCH   3  16
TORSDOF 7
ENDMDL
MODEL 9
REMARK VINA RESULT:    -6.310      1.584      2.268
REMARK INTER + INTRA:         -10.032
REMARK INTER:                  -9.437
REMARK INTRA:                  -0.596
REMARK UNBOUND:                -1.141
REMARK  Name = 
REMARK  7 active torsions:
REMARK  status: ('A' for Active; 'I' for Inactive)
REMARK    1  A    between atoms: C_2  and  C_19
REMARK    2  A    between atoms: N_3  and  C_4
REMARK    3  A    between atoms: C_4  and  C_5
REMARK    4  A    between atoms: C_8  and  C_9
REMARK    5  A    between atoms: C_9  and  C_10
REMARK    6  A    between atoms: C_10  and  C_11
REMARK    7  A    between atoms: C_11  and  N_12
REMARK                            x       y       z     vdW  Elec       q    Type
REMARK                         _______ _______ _______ _____ _____    ______ ____
ROOT
ATOM      1  O   UNL     1      48.240   8.895  15.058  0.00  0.00    +0.000 OA
ATOM      2  C   UNL     1      48.862   7.916  15.465  0.00  0.00    +0.000 C 
ATOM      3  N   UNL     1      49.345   6.953  14.613  0.00  0.00    +0.000 N 
ATOM      4  H   UNL     1      49.641   6.057  14.987  0.00  0.00    +0.000 HD
ENDROOT
BRANCH   2   5
ATOM      5  C   UNL     1      49.162   7.745  16.887  0.00  0.00    +0.000 A 
ATOM      6  C   UNL     1      49.524   8.847  17.655  0.00  0.00    +0.000 A 
ATOM      7  S   UNL     1      49.821   8.469  19.289  0.00  0.00    +0.000 S 
ATOM      8  C   UNL     1      49.438   6.834  19.040  0.00  0.00    +0.000 A 
ATOM      9  N   UNL     1      49.447   5.944  20.068  0.00  0.00    +0.000 NA
ATOM     10  C   UNL     1      49.102   4.746  19.743  0.00  0.00    +0.000 A 
ATOM     11  N   UNL     1      48.756   4.347  18.474  0.00  0.00    +0.000 N 
ATOM     12  C   UNL     1      48.769   5.197  17.395  0.00  0.00    +0.000 A 
ATOM     13  O   UNL     1      48.525   4.795  16.261  0.00  0.00    +0.000 OA
ATOM     14  C   UNL     1      49.121   6.567  17.719  0.00  0.00    +0.000 A 
ATOM     15  H   UNL     1      48.516   3.386  18.279  0.00  0.00    +0.000 HD
ENDBRANCH   2   5
BRANCH   3  16
ATOM     16  C   UNL     1      49.013   7.006  13.211  0.00  0.00    +0.000 C 
BRANCH  16  17
ATOM     17  C   UNL     1      47.626   6.495  12.937  0.00  0.00    +0.000 A 
ATOM     18  C   UNL     1      47.080   5.501  13.751  0.00  0.00    +0.000 A 
ATOM     19  C   UNL     1      45.774   5.058  13.542  0.00  0.00    +0.000 A 
ATOM     20  C   UNL     1      44.971   5.597  12.523  0.00  0.00    +0.000 A 
ATOM     21  C   UNL     1      45.543   6.554  11.678  0.00  0.00    +0.000 A 
ATOM     22  C   UNL     1      46.857   6.997  11.880  0.00  0.00    +0.000 A 
BRANCH  20  23
ATOM     23  C   UNL     1      43.533   5.149  12.293  0.00  0.00    +0.000 C 
BRANCH  23  24
ATOM     24  C   UNL     1      43.447   3.699  11.818  0.00  0.00    +0.000 C 
BRANCH  24  25
ATOM     25  C   UNL     1      44.647   3.184  11.018  0.00  0.00    +0.000 C 
BRANCH  25  26
ATOM     26  N   UNL     1      44.281   3.106   9.593  0.00  0.00    +0.000 NA
ATOM     27  C   UNL     1      44.734   1.888   8.906  0.00  0.00    +0.000 C 
ATOM     28  C   UNL     1      45.995   2.275   8.173  0.00  0.00    +0.000 C 
ATOM     29  C   UNL     1      45.706   3.691   7.737  0.00  0.00    +0.000 C 
ATOM     30  C   UNL     1      44.779   4.248   8.811  0.00  0.00    +0.000 C 
ENDBRANCH  25  26
ENDBRANCH  24  25
ENDBRANCH  23  24
ENDBRANCH  20  23
ENDBRANCH  16  17
ENDBRANCH   3  16
TORSDOF 7
ENDMDL
