MODEL 1
REMARK VINA RESULT:    -6.391      0.000      0.000
REMARK INTER + INTRA:          -9.723
REMARK INTER:                  -9.006
REMARK INTRA:                  -0.717
REMARK UNBOUND:                -0.717
REMARK  Name = 
REMARK  10 active torsions:
REMARK  status: ('A' for Active; 'I' for Inactive)
REMARK    1  A    between atoms: C_1  and  C_2
REMARK    2  A    between atoms: C_2  and  C_3
REMARK    3  A    between atoms: C_3  and  N_4
REMARK    4  A    between atoms: C_5  and  C_7
REMARK    5  A    between atoms: C_10  and  O_11
REMARK    6  A    between atoms: O_11  and  C_12
REMARK    7  A    between atoms: C_12  and  C_13
REMARK    8  A    between atoms: C_13  and  C_14
REMARK    9  A    between atoms: C_13  and  C_15
REMARK   10  A    between atoms: C_13  and  C_16
REMARK                            x       y       z     vdW  Elec       q    Type
REMARK                         _______ _______ _______ _____ _____    ______ ____
ROOT
ATOM      1  C   UNL     1      47.377   5.693  13.952  0.00  0.00    +0.000 A 
ATOM      2  C   UNL     1      46.344   4.754  13.994  0.00  0.00    +0.000 A 
ATOM      3  C   UNL     1      45.522   4.598  12.873  0.00  0.00    +0.000 A 
ATOM      4  C   UNL     1      45.781   5.369  11.749  0.00  0.00    +0.000 A 
ATOM      5  N   UNL     1      46.762   6.293  11.689  0.00  0.00    +0.000 NA
ATOM      6  C   UNL     1      47.530   6.444  12.795  0.00  0.00    +0.000 A 
ENDROOT
BRANCH   1   8
ATOM      7  N   UNL     1      47.984   5.385  16.289  0.00  0.00    +0.000 N 
ATOM      8  C   UNL     1      48.296   5.964  15.079  0.00  0.00    +0.000 C 
ATOM      9  O   UNL     1      49.291   6.652  14.891  0.00  0.00    +0.000 OA
ATOM     10  H   UNL     1      47.191   4.765  16.371  0.00  0.00    +0.000 HD
BRANCH   7  11
ATOM     11  C   UNL     1      48.809   5.595  17.464  0.00  0.00    +0.000 C 
BRANCH  11  13
ATOM     12  C   UNL     1      48.579   3.071  17.482  0.00  0.00    +0.000 C 
ATOM     13  C   UNL     1      49.281   4.282  18.082  0.00  0.00    +0.000 C 
ENDBRANCH  11  13
ENDBRANCH   7  11
ENDBRANCH   1   8
BRANCH   4  14
ATOM     14  O   UNL     1      44.948   5.200  10.659  0.00  0.00    +0.000 OA
BRANCH  14  15
ATOM     15  C   UNL     1      45.663   4.726   9.507  0.00  0.00    +0.000 C 
BRANCH  15  16
ATOM     16  C   UNL     1      44.995   3.471   8.890  0.00  0.00    +0.000 C 
ATOM     17  C   UNL     1      44.366   2.618  10.015  0.00  0.00    +0.000 C 
ATOM     18  C   UNL     1      43.855   3.886   7.935  0.00  0.00    +0.000 C 
BRANCH  16  19
ATOM     19  C   UNL     1      46.057   2.678   8.111  0.00  0.00    +0.000 A 
ATOM     20  C   UNL     1      46.924   3.308   7.228  0.00  0.00    +0.000 A 
ATOM     21  C   UNL     1      47.856   2.517   6.592  0.00  0.00    +0.000 A 
ATOM     22  N   UNL     1      47.957   1.193   6.780  0.00  0.00    +0.000 NA
ATOM     23  C   UNL     1      47.077   0.670   7.644  0.00  0.00    +0.000 A 
ATOM     24  N   UNL     1      46.133   1.346   8.320  0.00  0.00    +0.000 NA
ENDBRANCH  16  19
ENDBRANCH  15  16
ENDBRANCH  14  15
ENDBRANCH   4  14
TORSDOF 7
ENDMDL
MODEL 2
REMARK VINA RESULT:    -6.207      1.894      8.551
REMARK INTER + INTRA:          -9.464
REMARK INTER:                  -8.874
REMARK INTRA:                  -0.590
REMARK UNBOUND:                -0.717
REMARK  Name = 
REMARK  10 active torsions:
REMARK  status: ('A' for Active; 'I' for Inactive)
REMARK    1  A    between atoms: C_1  and  C_2
REMARK    2  A    between atoms: C_2  and  C_3
REMARK    3  A    between atoms: C_3  and  N_4
REMARK    4  A    between atoms: C_5  and  C_7
REMARK    5  A    between atoms: C_10  and  O_11
REMARK    6  A    between atoms: O_11  and  C_12
REMARK    7  A    between atoms: C_12  and  C_13
REMARK    8  A    between atoms: C_13  and  C_14
REMARK    9  A    between atoms: C_13  and  C_15
REMARK   10  A    between atoms: C_13  and  C_16
REMARK                            x       y       z     vdW  Elec       q    Type
REMARK                         _______ _______ _______ _____ _____    ______ ____
ROOT
ATOM      1  C   UNL     1      45.293   4.436  11.240  0.00  0.00    +0.000 A 
ATOM      2  C   UNL     1      45.757   5.627  11.806  0.00  0.00    +0.000 A 
ATOM      3  C   UNL     1      46.235   5.613  13.120  0.00  0.00    +0.000 A 
ATOM      4  C   UNL     1      46.252   4.408  13.807  0.00  0.00    +0.000 A 
ATOM      5  N   UNL     1      45.796   3.249  13.288  0.00  0.00    +0.000 NA
ATOM      6  C   UNL     1      45.316   3.291  12.022  0.00  0.00    +0.000 A 
ENDROOT
BRANCH   1   8
ATOM      7  N   UNL     1      45.564   3.770   8.915  0.00  0.00    +0.000 N 
ATOM      8  C   UNL     1      44.745   4.329   9.871  0.00  0.00    +0.000 C 
ATOM      9  O   UNL     1      43.601   4.705   9.650  0.00  0.00    +0.000 OA
ATOM     10  H   UNL     1      46.473   3.408   9.166  0.00  0.00    +0.000 HD
BRANCH   7  11
ATOM     11  C   UNL     1      45.132   3.630   7.537  0.00  0.00    +0.000 C 
BRANCH  11  13
ATOM     12  C   UNL     1      47.048   2.057   7.002  0.00  0.00    +0.000 C 
ATOM     13  C   UNL     1      46.292   3.315   6.596  0.00  0.00    +0.000 C 
ENDBRANCH  11  13
ENDBRANCH   7  11
ENDBRANCH   1   8
BRANCH   4  14
ATOM     14  O   UNL     1      46.721   4.425  15.106  0.00  0.00    +0.000 OA
BRANCH  14  15
ATOM     15  C   UNL     1      47.773   3.468  15.308  0.00  0.00    +0.000 C 
BRANCH  15  16
ATOM     16  C   UNL     1      48.257   3.445  16.781  0.00  0.00    +0.000 C 
ATOM     17  C   UNL     1      47.108   2.951  17.691  0.00  0.00    +0.000 C 
ATOM     18  C   UNL     1      49.431   2.457  16.944  0.00  0.00    +0.000 C 
BRANCH  16  19
ATOM     19  C   UNL     1      48.715   4.860  17.172  0.00  0.00    +0.000 A 
ATOM     20  C   UNL     1      48.219   5.491  18.305  0.00  0.00    +0.000 A 
ATOM     21  C   UNL     1      48.706   6.749  18.585  0.00  0.00    +0.000 A 
ATOM     22  N   UNL     1      49.614   7.380  17.824  0.00  0.00    +0.000 NA
ATOM     23  C   UNL     1      50.031   6.699  16.750  0.00  0.00    +0.000 A 
ATOM     24  N   UNL     1      49.629   5.469  16.386  0.00  0.00    +0.000 NA
ENDBRANCH  16  19
ENDBRANCH  15  16
ENDBRANCH  14  15
ENDBRANCH   4  14
TORSDOF 7
ENDMDL
MODEL 3
REMARK VINA RESULT:    -6.152      2.212      8.382
REMARK INTER + INTRA:          -9.386
REMARK INTER:                  -8.589
REMARK INTRA:                  -0.797
REMARK UNBOUND:                -0.717
REMARK  Name = 
REMARK  10 active torsions:
REMARK  status: ('A' for Active; 'I' for Inactive)
REMARK    1  A    between atoms: C_1  and  C_2
REMARK    2  A    between atoms: C_2  and  C_3
REMARK    3  A    between atoms: C_3  and  N_4
REMARK    4  A    between atoms: C_5  and  C_7
REMARK    5  A    between atoms: C_10  and  O_11
REMARK    6  A    between atoms: O_11  and  C_12
REMARK    7  A    between atoms: C_12  and  C_13
REMARK    8  A    between atoms: C_13  and  C_14
REMARK    9  A    between atoms: C_13  and  C_15
REMARK   10  A    between atoms: C_13  and  C_16
REMARK                            x       y       z     vdW  Elec       q    Type
REMARK                         _______ _______ _______ _____ _____    ______ ____
ROOT
ATOM      1  C   UNL     1      46.104   4.860  12.762  0.00  0.00    +0.000 A 
ATOM      2  C   UNL     1      46.541   6.184  12.681  0.00  0.00    +0.000 A 
ATOM      3  C   UNL     1      47.471   6.651  13.614  0.00  0.00    +0.000 A 
ATOM      4  C   UNL     1      47.944   5.769  14.576  0.00  0.00    +0.000 A 
ATOM      5  N   UNL     1      47.526   4.491  14.685  0.00  0.00    +0.000 NA
ATOM      6  C   UNL     1      46.607   4.068  13.784  0.00  0.00    +0.000 A 
ENDROOT
BRANCH   1   8
ATOM      7  N   UNL     1      45.108   4.709  10.546  0.00  0.00    +0.000 N 
ATOM      8  C   UNL     1      45.108   4.259  11.848  0.00  0.00    +0.000 C 
ATOM      9  O   UNL     1      44.360   3.384  12.264  0.00  0.00    +0.000 OA
ATOM     10  H   UNL     1      45.797   5.379  10.235  0.00  0.00    +0.000 HD
BRANCH   7  11
ATOM     11  C   UNL     1      44.166   4.197   9.569  0.00  0.00    +0.000 C 
BRANCH  11  13
ATOM     12  C   UNL     1      45.296   2.059   8.808  0.00  0.00    +0.000 C 
ATOM     13  C   UNL     1      44.860   3.466   8.422  0.00  0.00    +0.000 C 
ENDBRANCH  11  13
ENDBRANCH   7  11
ENDBRANCH   1   8
BRANCH   4  14
ATOM     14  O   UNL     1      48.856   6.260  15.491  0.00  0.00    +0.000 OA
BRANCH  14  15
ATOM     15  C   UNL     1      48.786   5.561  16.744  0.00  0.00    +0.000 C 
BRANCH  15  16
ATOM     16  C   UNL     1      50.179   5.437  17.414  0.00  0.00    +0.000 C 
ATOM     17  C   UNL     1      51.192   6.328  16.660  0.00  0.00    +0.000 C 
ATOM     18  C   UNL     1      50.118   5.939  18.872  0.00  0.00    +0.000 C 
BRANCH  16  19
ATOM     19  C   UNL     1      50.606   3.960  17.394  0.00  0.00    +0.000 A 
ATOM     20  C   UNL     1      51.867   3.568  17.824  0.00  0.00    +0.000 A 
ATOM     21  C   UNL     1      52.150   2.220  17.790  0.00  0.00    +0.000 A 
ATOM     22  N   UNL     1      51.283   1.290  17.362  0.00  0.00    +0.000 NA
ATOM     23  C   UNL     1      50.095   1.759  16.961  0.00  0.00    +0.000 A 
ATOM     24  N   UNL     1      49.711   3.047  16.957  0.00  0.00    +0.000 NA
ENDBRANCH  16  19
ENDBRANCH  15  16
ENDBRANCH  14  15
ENDBRANCH   4  14
TORSDOF 7
ENDMDL
MODEL 4
REMARK VINA RESULT:    -6.093      2.214      8.363
REMARK INTER + INTRA:          -9.303
REMARK INTER:                  -8.684
REMARK INTRA:                  -0.619
REMARK UNBOUND:                -0.717
REMARK  Name = 
REMARK  10 active torsions:
REMARK  status: ('A' for Active; 'I' for Inactive)
REMARK    1  A    between atoms: C_1  and  C_2
REMARK    2  A    between atoms: C_2  and  C_3
REMARK    3  A    between atoms: C_3  and  N_4
REMARK    4  A    between atoms: C_5  and  C_7
REMARK    5  A    between atoms: C_10  and  O_11
REMARK    6  A    between atoms: O_11  and  C_12
REMARK    7  A    between atoms: C_12  and  C_13
REMARK    8  A    between atoms: C_13  and  C_14
REMARK    9  A    between atoms: C_13  and  C_15
REMARK   10  A    between atoms: C_13  and  C_16
REMARK                            x       y       z     vdW  Elec       q    Type
REMARK                         _______ _______ _______ _____ _____    ______ ____
ROOT
ATOM      1  C   UNL     1      45.242   4.489  11.611  0.00  0.00    +0.000 A 
ATOM      2  C   UNL     1      45.461   5.757  12.156  0.00  0.00    +0.000 A 
ATOM      3  C   UNL     1      46.058   5.862  13.416  0.00  0.00    +0.000 A 
ATOM      4  C   UNL     1      46.432   4.697  14.070  0.00  0.00    +0.000 A 
ATOM      5  N   UNL     1      46.218   3.461  13.573  0.00  0.00    +0.000 NA
ATOM      6  C   UNL     1      45.617   3.384  12.362  0.00  0.00    +0.000 A 
ENDROOT
BRANCH   1   8
ATOM      7  N   UNL     1      45.209   3.337   9.467  0.00  0.00    +0.000 N 
ATOM      8  C   UNL     1      44.601   4.251  10.300  0.00  0.00    +0.000 C 
ATOM      9  O   UNL     1      43.563   4.837  10.023  0.00  0.00    +0.000 OA
ATOM     10  H   UNL     1      46.024   2.825   9.776  0.00  0.00    +0.000 HD
BRANCH   7  11
ATOM     11  C   UNL     1      44.672   3.038   8.153  0.00  0.00    +0.000 C 
BRANCH  11  13
ATOM     12  C   UNL     1      46.822   4.007   7.222  0.00  0.00    +0.000 C 
ATOM     13  C   UNL     1      45.767   2.917   7.095  0.00  0.00    +0.000 C 
ENDBRANCH  11  13
ENDBRANCH   7  11
ENDBRANCH   1   8
BRANCH   4  14
ATOM     14  O   UNL     1      47.012   4.830  15.318  0.00  0.00    +0.000 OA
BRANCH  14  15
ATOM     15  C   UNL     1      47.865   3.718  15.633  0.00  0.00    +0.000 C 
BRANCH  15  16
ATOM     16  C   UNL     1      48.166   3.634  17.151  0.00  0.00    +0.000 C 
ATOM     17  C   UNL     1      47.938   5.020  17.797  0.00  0.00    +0.000 C 
ATOM     18  C   UNL     1      47.199   2.643  17.834  0.00  0.00    +0.000 C 
BRANCH  16  19
ATOM     19  C   UNL     1      49.614   3.155  17.342  0.00  0.00    +0.000 A 
ATOM     20  C   UNL     1      50.595   4.004  17.838  0.00  0.00    +0.000 A 
ATOM     21  C   UNL     1      51.859   3.478  17.995  0.00  0.00    +0.000 A 
ATOM     22  N   UNL     1      52.179   2.212  17.689  0.00  0.00    +0.000 NA
ATOM     23  C   UNL     1      51.173   1.468  17.212  0.00  0.00    +0.000 A 
ATOM     24  N   UNL     1      49.906   1.875  17.025  0.00  0.00    +0.000 NA
ENDBRANCH  16  19
ENDBRANCH  15  16
ENDBRANCH  14  15
ENDBRANCH   4  14
TORSDOF 7
ENDMDL
MODEL 5
REMARK VINA RESULT:    -6.043      2.061      3.243
REMARK INTER + INTRA:          -9.233
REMARK INTER:                  -8.507
REMARK INTRA:                  -0.726
REMARK UNBOUND:                -0.717
REMARK  Name = 
REMARK  10 active torsions:
REMARK  status: ('A' for Active; 'I' for Inactive)
REMARK    1  A    between atoms: C_1  and  C_2
REMARK    2  A    between atoms: C_2  and  C_3
REMARK    3  A    between atoms: C_3  and  N_4
REMARK    4  A    between atoms: C_5  and  C_7
REMARK    5  A    between atoms: C_10  and  O_11
REMARK    6  A    between atoms: O_11  and  C_12
REMARK    7  A    between atoms: C_12  and  C_13
REMARK    8  A    between atoms: C_13  and  C_14
REMARK    9  A    between atoms: C_13  and  C_15
REMARK   10  A    between atoms: C_13  and  C_16
REMARK                            x       y       z     vdW  Elec       q    Type
REMARK                         _______ _______ _______ _____ _____    ______ ____
ROOT
ATOM      1  C   UNL     1      48.245   5.617  15.945  0.00  0.00    +0.000 A 
ATOM      2  C   UNL     1      48.240   6.303  14.728  0.00  0.00    +0.000 A 
ATOM      3  C   UNL     1      47.486   5.796  13.666  0.00  0.00    +0.000 A 
ATOM      4  C   UNL     1      46.750   4.637  13.869  0.00  0.00    +0.000 A 
ATOM      5  N   UNL     1      46.751   3.948  15.029  0.00  0.00    +0.000 NA
ATOM      6  C   UNL     1      47.508   4.445  16.037  0.00  0.00    +0.000 A 
ENDROOT
BRANCH   1   8
ATOM      7  N   UNL     1      48.425   6.964  17.965  0.00  0.00    +0.000 N 
ATOM      8  C   UNL     1      49.019   6.041  17.132  0.00  0.00    +0.000 C 
ATOM      9  O   UNL     1      50.120   5.547  17.341  0.00  0.00    +0.000 OA
ATOM     10  H   UNL     1      47.484   7.284  17.786  0.00  0.00    +0.000 HD
BRANCH   7  11
ATOM     11  C   UNL     1      49.101   7.459  19.149  0.00  0.00    +0.000 C 
BRANCH  11  13
ATOM     12  C   UNL     1      47.343   6.132  20.405  0.00  0.00    +0.000 C 
ATOM     13  C   UNL     1      48.221   7.376  20.394  0.00  0.00    +0.000 C 
ENDBRANCH  11  13
ENDBRANCH   7  11
ENDBRANCH   1   8
BRANCH   4  14
ATOM     14  O   UNL     1      46.021   4.153  12.799  0.00  0.00    +0.000 OA
BRANCH  14  15
ATOM     15  C   UNL     1      44.634   4.515  12.890  0.00  0.00    +0.000 C 
BRANCH  15  16
ATOM     16  C   UNL     1      44.129   5.190  11.589  0.00  0.00    +0.000 C 
ATOM     17  C   UNL     1      42.590   5.329  11.647  0.00  0.00    +0.000 C 
ATOM     18  C   UNL     1      44.715   6.613  11.463  0.00  0.00    +0.000 C 
BRANCH  16  19
ATOM     19  C   UNL     1      44.572   4.341  10.387  0.00  0.00    +0.000 A 
ATOM     20  C   UNL     1      45.321   4.888   9.354  0.00  0.00    +0.000 A 
ATOM     21  C   UNL     1      45.690   4.042   8.330  0.00  0.00    +0.000 A 
ATOM     22  N   UNL     1      45.357   2.743   8.285  0.00  0.00    +0.000 NA
ATOM     23  C   UNL     1      44.629   2.304   9.319  0.00  0.00    +0.000 A 
ATOM     24  N   UNL     1      44.221   3.036  10.369  0.00  0.00    +0.000 NA
ENDBRANCH  16  19
ENDBRANCH  15  16
ENDBRANCH  14  15
ENDBRANCH   4  14
TORSDOF 7
ENDMDL
MODEL 6
REMARK VINA RESULT:    -6.014      2.935      4.355
REMARK INTER + INTRA:          -9.191
REMARK INTER:                  -8.247
REMARK INTRA:                  -0.944
REMARK UNBOUND:                -0.717
REMARK  Name = 
REMARK  10 active torsions:
REMARK  status: ('A' for Active; 'I' for Inactive)
REMARK    1  A    between atoms: C_1  and  C_2
REMARK    2  A    between atoms: C_2  and  C_3
REMARK    3  A    between atoms: C_3  and  N_4
REMARK    4  A    between atoms: C_5  and  C_7
REMARK    5  A    between atoms: C_10  and  O_11
REMARK    6  A    between atoms: O_11  and  C_12
REMARK    7  A    between atoms: C_12  and  C_13
REMARK    8  A    between atoms: C_13  and  C_14
REMARK    9  A    between atoms: C_13  and  C_15
REMARK   10  A    between atoms: C_13  and  C_16
REMARK                            x       y       z     vdW  Elec       q    Type
REMARK                         _______ _______ _______ _____ _____    ______ ____
ROOT
ATOM      1  C   UNL     1      48.494   7.495  12.149  0.00  0.00    +0.000 A 
ATOM      2  C   UNL     1      47.222   7.874  11.714  0.00  0.00    +0.000 A 
ATOM      3  C   UNL     1      46.121   7.086  12.064  0.00  0.00    +0.000 A 
ATOM      4  C   UNL     1      46.334   5.965  12.853  0.00  0.00    +0.000 A 
ATOM      5  N   UNL     1      47.554   5.570  13.273  0.00  0.00    +0.000 NA
ATOM      6  C   UNL     1      48.607   6.335  12.902  0.00  0.00    +0.000 A 
ENDROOT
BRANCH   1   8
ATOM      7  N   UNL     1      50.886   7.490  11.697  0.00  0.00    +0.000 N 
ATOM      8  C   UNL     1      49.734   8.234  11.825  0.00  0.00    +0.000 C 
ATOM      9  O   UNL     1      49.685   9.446  11.658  0.00  0.00    +0.000 OA
ATOM     10  H   UNL     1      50.857   6.484  11.771  0.00  0.00    +0.000 HD
BRANCH   7  11
ATOM     11  C   UNL     1      52.160   8.116  11.394  0.00  0.00    +0.000 C 
BRANCH  11  13
ATOM     12  C   UNL     1      53.119   6.668   9.547  0.00  0.00    +0.000 C 
ATOM     13  C   UNL     1      52.515   8.017   9.913  0.00  0.00    +0.000 C 
ENDBRANCH  11  13
ENDBRANCH   7  11
ENDBRANCH   1   8
BRANCH   4  14
ATOM     14  O   UNL     1      45.230   5.199  13.177  0.00  0.00    +0.000 OA
BRANCH  14  15
ATOM     15  C   UNL     1      45.291   3.893  12.582  0.00  0.00    +0.000 C 
BRANCH  15  16
ATOM     16  C   UNL     1      44.178   3.691  11.521  0.00  0.00    +0.000 C 
ATOM     17  C   UNL     1      43.339   2.446  11.889  0.00  0.00    +0.000 C 
ATOM     18  C   UNL     1      43.223   4.903  11.509  0.00  0.00    +0.000 C 
BRANCH  16  19
ATOM     19  C   UNL     1      44.835   3.538  10.139  0.00  0.00    +0.000 A 
ATOM     20  C   UNL     1      45.264   4.644   9.418  0.00  0.00    +0.000 A 
ATOM     21  C   UNL     1      45.861   4.405   8.199  0.00  0.00    +0.000 A 
ATOM     22  N   UNL     1      46.035   3.178   7.687  0.00  0.00    +0.000 NA
ATOM     23  C   UNL     1      45.586   2.172   8.448  0.00  0.00    +0.000 A 
ATOM     24  N   UNL     1      44.996   2.289   9.650  0.00  0.00    +0.000 NA
ENDBRANCH  16  19
ENDBRANCH  15  16
ENDBRANCH  14  15
ENDBRANCH   4  14
TORSDOF 7
ENDMDL
MODEL 7
REMARK VINA RESULT:    -5.928      1.997      2.801
REMARK INTER + INTRA:          -9.070
REMARK INTER:                  -8.376
REMARK INTRA:                  -0.693
REMARK UNBOUND:                -0.717
REMARK  Name = 
REMARK  10 active torsions:
REMARK  status: ('A' for Active; 'I' for Inactive)
REMARK    1  A    between atoms: C_1  and  C_2
REMARK    2  A    between atoms: C_2  and  C_3
REMARK    3  A    between atoms: C_3  and  N_4
REMARK    4  A    between atoms: C_5  and  C_7
REMARK    5  A    between atoms: C_10  and  O_11
REMARK    6  A    between atoms: O_11  and  C_12
REMARK    7  A    between atoms: C_12  and  C_13
REMARK    8  A    between atoms: C_13  and  C_14
REMARK    9  A    between atoms: C_13  and  C_15
REMARK   10  A    between atoms: C_13  and  C_16
REMARK                            x       y       z     vdW  Elec       q    Type
REMARK                         _______ _______ _______ _____ _____    ______ ____
ROOT
ATOM      1  C   UNL     1      48.377   5.759  15.683  0.00  0.00    +0.000 A 
ATOM      2  C   UNL     1      48.080   6.358  14.456  0.00  0.00    +0.000 A 
ATOM      3  C   UNL     1      47.099   5.785  13.640  0.00  0.00    +0.000 A 
ATOM      4  C   UNL     1      46.439   4.652  14.093  0.00  0.00    +0.000 A 
ATOM      5  N   UNL     1      46.718   4.046  15.266  0.00  0.00    +0.000 NA
ATOM      6  C   UNL     1      47.688   4.605  16.029  0.00  0.00    +0.000 A 
ENDROOT
BRANCH   1   8
ATOM      7  N   UNL     1      50.244   5.319  17.181  0.00  0.00    +0.000 N 
ATOM      8  C   UNL     1      49.406   6.258  16.620  0.00  0.00    +0.000 C 
ATOM      9  O   UNL     1      49.493   7.460  16.834  0.00  0.00    +0.000 OA
ATOM     10  H   UNL     1      50.178   4.348  16.913  0.00  0.00    +0.000 HD
BRANCH   7  11
ATOM     11  C   UNL     1      51.280   5.698  18.124  0.00  0.00    +0.000 C 
BRANCH  11  13
ATOM     12  C   UNL     1      53.038   6.299  16.398  0.00  0.00    +0.000 C 
ATOM     13  C   UNL     1      52.681   5.416  17.587  0.00  0.00    +0.000 C 
ENDBRANCH  11  13
ENDBRANCH   7  11
ENDBRANCH   1   8
BRANCH   4  14
ATOM     14  O   UNL     1      45.481   4.102  13.263  0.00  0.00    +0.000 OA
BRANCH  14  15
ATOM     15  C   UNL     1      45.493   4.705  11.959  0.00  0.00    +0.000 C 
BRANCH  15  16
ATOM     16  C   UNL     1      44.381   4.127  11.046  0.00  0.00    +0.000 C 
ATOM     17  C   UNL     1      43.629   3.007  11.801  0.00  0.00    +0.000 C 
ATOM     18  C   UNL     1      43.350   5.223  10.700  0.00  0.00    +0.000 C 
BRANCH  16  19
ATOM     19  C   UNL     1      45.026   3.599   9.755  0.00  0.00    +0.000 A 
ATOM     20  C   UNL     1      45.482   4.465   8.770  0.00  0.00    +0.000 A 
ATOM     21  C   UNL     1      46.066   3.898   7.658  0.00  0.00    +0.000 A 
ATOM     22  N   UNL     1      46.204   2.575   7.485  0.00  0.00    +0.000 NA
ATOM     23  C   UNL     1      45.730   1.817   8.482  0.00  0.00    +0.000 A 
ATOM     24  N   UNL     1      45.150   2.262   9.609  0.00  0.00    +0.000 NA
ENDBRANCH  16  19
ENDBRANCH  15  16
ENDBRANCH  14  15
ENDBRANCH   4  14
TORSDOF 7
ENDMDL
MODEL 8
REMARK VINA RESULT:    -5.874      1.661      8.117
REMARK INTER + INTRA:          -8.994
REMARK INTER:                  -8.286
REMARK INTRA:                  -0.708
REMARK UNBOUND:                -0.717
REMARK  Name = 
REMARK  10 active torsions:
REMARK  status: ('A' for Active; 'I' for Inactive)
REMARK    1  A    between atoms: C_1  and  C_2
REMARK    2  A    between atoms: C_2  and  C_3
REMARK    3  A    between atoms: C_3  and  N_4
REMARK    4  A    between atoms: C_5  and  C_7
REMARK    5  A    between atoms: C_10  and  O_11
REMARK    6  A    between atoms: O_11  and  C_12
REMARK    7  A    between atoms: C_12  and  C_13
REMARK    8  A    between atoms: C_13  and  C_14
REMARK    9  A    between atoms: C_13  and  C_15
REMARK   10  A    between atoms: C_13  and  C_16
REMARK                            x       y       z     vdW  Elec       q    Type
REMARK                         _______ _______ _______ _____ _____    ______ ____
ROOT
ATOM      1  C   UNL     1      45.465   5.216  11.069  0.00  0.00    +0.000 A 
ATOM      2  C   UNL     1      45.348   4.833  12.408  0.00  0.00    +0.000 A 
ATOM      3  C   UNL     1      46.017   5.575  13.386  0.00  0.00    +0.000 A 
ATOM      4  C   UNL     1      46.756   6.681  12.990  0.00  0.00    +0.000 A 
ATOM      5  N   UNL     1      46.896   7.061  11.703  0.00  0.00    +0.000 NA
ATOM      6  C   UNL     1      46.258   6.314  10.771  0.00  0.00    +0.000 A 
ENDROOT
BRANCH   1   8
ATOM      7  N   UNL     1      45.647   4.078   8.925  0.00  0.00    +0.000 N 
ATOM      8  C   UNL     1      44.824   4.499   9.945  0.00  0.00    +0.000 C 
ATOM      9  O   UNL     1      43.618   4.287   9.976  0.00  0.00    +0.000 OA
ATOM     10  H   UNL     1      46.647   4.213   8.984  0.00  0.00    +0.000 HD
BRANCH   7  11
ATOM     11  C   UNL     1      45.121   3.378   7.768  0.00  0.00    +0.000 C 
BRANCH  11  13
ATOM     12  C   UNL     1      47.159   2.071   7.013  0.00  0.00    +0.000 C 
ATOM     13  C   UNL     1      46.175   3.185   6.680  0.00  0.00    +0.000 C 
ENDBRANCH  11  13
ENDBRANCH   7  11
ENDBRANCH   1   8
BRANCH   4  14
ATOM     14  O   UNL     1      47.413   7.390  13.977  0.00  0.00    +0.000 OA
BRANCH  14  15
ATOM     15  C   UNL     1      48.744   6.895  14.196  0.00  0.00    +0.000 C 
BRANCH  15  16
ATOM     16  C   UNL     1      49.127   6.917  15.698  0.00  0.00    +0.000 C 
ATOM     17  C   UNL     1      50.664   6.821  15.837  0.00  0.00    +0.000 C 
ATOM     18  C   UNL     1      48.688   8.249  16.343  0.00  0.00    +0.000 C 
BRANCH  16  19
ATOM     19  C   UNL     1      48.425   5.746  16.405  0.00  0.00    +0.000 A 
ATOM     20  C   UNL     1      47.983   5.856  17.716  0.00  0.00    +0.000 A 
ATOM     21  C   UNL     1      47.345   4.760  18.257  0.00  0.00    +0.000 A 
ATOM     22  N   UNL     1      47.143   3.614  17.588  0.00  0.00    +0.000 NA
ATOM     23  C   UNL     1      47.608   3.597  16.332  0.00  0.00    +0.000 A 
ATOM     24  N   UNL     1      48.237   4.605  15.706  0.00  0.00    +0.000 NA
ENDBRANCH  16  19
ENDBRANCH  15  16
ENDBRANCH  14  15
ENDBRANCH   4  14
TORSDOF 7
ENDMDL
MODEL 9
REMARK VINA RESULT:    -5.616      2.454      8.188
REMARK INTER + INTRA:          -8.631
REMARK INTER:                  -7.722
REMARK INTRA:                  -0.909
REMARK UNBOUND:                -0.717
REMARK  Name = 
REMARK  10 active torsions:
REMARK  status: ('A' for Active; 'I' for Inactive)
REMARK    1  A    between atoms: C_1  and  C_2
REMARK    2  A    between atoms: C_2  and  C_3
REMARK    3  A    between atoms: C_3  and  N_4
REMARK    4  A    between atoms: C_5  and  C_7
REMARK    5  A    between atoms: C_10  and  O_11
REMARK    6  A    between atoms: O_11  and  C_12
REMARK    7  A    between atoms: C_12  and  C_13
REMARK    8  A    between atoms: C_13  and  C_14
REMARK    9  A    between atoms: C_13  and  C_15
REMARK   10  A    between atoms: C_13  and  C_16
REMARK                            x       y       z     vdW  Elec       q    Type
REMARK                         _______ _______ _______ _____ _____    ______ ____
ROOT
ATOM      1  C   UNL     1      46.559   6.502  12.451  0.00  0.00    +0.000 A 
ATOM      2  C   UNL     1      47.051   7.800  12.607  0.00  0.00    +0.000 A 
ATOM      3  C   UNL     1      48.145   8.015  13.451  0.00  0.00    +0.000 A 
ATOM      4  C   UNL     1      48.717   6.922  14.086  0.00  0.00    +0.000 A 
ATOM      5  N   UNL     1      48.251   5.662  13.963  0.00  0.00    +0.000 NA
ATOM      6  C   UNL     1      47.176   5.481  13.159  0.00  0.00    +0.000 A 
ENDROOT
BRANCH   1   8
ATOM      7  N   UNL     1      45.118   4.813  11.452  0.00  0.00    +0.000 N 
ATOM      8  C   UNL     1      45.397   6.153  11.605  0.00  0.00    +0.000 C 
ATOM      9  O   UNL     1      44.725   7.048  11.109  0.00  0.00    +0.000 OA
ATOM     10  H   UNL     1      45.660   4.118  11.945  0.00  0.00    +0.000 HD
BRANCH   7  11
ATOM     11  C   UNL     1      44.010   4.360  10.633  0.00  0.00    +0.000 C 
BRANCH  11  13
ATOM     12  C   UNL     1      44.581   2.549   8.953  0.00  0.00    +0.000 C 
ATOM     13  C   UNL     1      44.439   4.045   9.202  0.00  0.00    +0.000 C 
ENDBRANCH  11  13
ENDBRANCH   7  11
ENDBRANCH   1   8
BRANCH   4  14
ATOM     14  O   UNL     1      49.791   7.164  14.921  0.00  0.00    +0.000 OA
BRANCH  14  15
ATOM     15  C   UNL     1      49.377   7.366  16.281  0.00  0.00    +0.000 C 
BRANCH  15  16
ATOM     16  C   UNL     1      50.055   6.360  17.246  0.00  0.00    +0.000 C 
ATOM     17  C   UNL     1      51.489   6.062  16.751  0.00  0.00    +0.000 C 
ATOM     18  C   UNL     1      50.172   6.969  18.660  0.00  0.00    +0.000 C 
BRANCH  16  19
ATOM     19  C   UNL     1      49.204   5.081  17.304  0.00  0.00    +0.000 A 
ATOM     20  C   UNL     1      47.835   5.135  17.526  0.00  0.00    +0.000 A 
ATOM     21  C   UNL     1      47.154   3.937  17.539  0.00  0.00    +0.000 A 
ATOM     22  N   UNL     1      47.744   2.746  17.358  0.00  0.00    +0.000 NA
ATOM     23  C   UNL     1      49.067   2.789  17.157  0.00  0.00    +0.000 A 
ATOM     24  N   UNL     1      49.827   3.896  17.119  0.00  0.00    +0.000 NA
ENDBRANCH  16  19
ENDBRANCH  15  16
ENDBRANCH  14  15
ENDBRANCH   4  14
TORSDOF 7
ENDMDL
