MODEL 1
REMARK VINA RESULT:    -8.411      0.000      0.000
REMARK INTER + INTRA:         -11.949
REMARK INTER:                 -10.869
REMARK INTRA:                  -1.080
REMARK UNBOUND:                -1.080
REMARK  Name = 
REMARK  9 active torsions:
REMARK  status: ('A' for Active; 'I' for Inactive)
REMARK    1  A    between atoms: C_1  and  C_2
REMARK    2  A    between atoms: N_4  and  C_5
REMARK    3  A    between atoms: C_9  and  C_10
REMARK    4  A    between atoms: C_10  and  C_11
REMARK    5  A    between atoms: C_10  and  C_12
REMARK    6  A    between atoms: C_10  and  C_13
REMARK    7  A    between atoms: C_13  and  N_14
REMARK    8  A    between atoms: C_18  and  C_19
REMARK    9  A    between atoms: C_26  and  C_27
REMARK                            x       y       z     vdW  Elec       q    Type
REMARK                         _______ _______ _______ _____ _____    ______ ____
ROOT
ATOM      1  C   UNL     1      43.579   5.434  11.991  0.00  0.00    +0.000 C 
ATOM      2  C   UNL     1      42.673   5.124  13.207  0.00  0.00    +0.000 C 
ATOM      3  C   UNL     1      43.127   6.795  11.406  0.00  0.00    +0.000 C 
ENDROOT
BRANCH   1   8
ATOM      4  C   UNL     1      47.155   6.899  12.409  0.00  0.00    +0.000 A 
ATOM      5  C   UNL     1      47.721   5.955  13.272  0.00  0.00    +0.000 A 
ATOM      6  C   UNL     1      47.010   4.831  13.686  0.00  0.00    +0.000 A 
ATOM      7  C   UNL     1      45.697   4.636  13.260  0.00  0.00    +0.000 A 
ATOM      8  C   UNL     1      45.069   5.553  12.406  0.00  0.00    +0.000 A 
ATOM      9  C   UNL     1      45.842   6.652  11.967  0.00  0.00    +0.000 A 
BRANCH   4  13
ATOM     10  C   UNL     1      48.739   9.354  14.770  0.00  0.00    +0.000 C 
ATOM     11  C   UNL     1      48.707   9.938  13.359  0.00  0.00    +0.000 C 
ATOM     12  C   UNL     1      47.572   9.370  12.484  0.00  0.00    +0.000 C 
ATOM     13  N   UNL     1      47.875   8.011  12.020  0.00  0.00    +0.000 N 
ATOM     14  C   UNL     1      49.207   7.864  11.406  0.00  0.00    +0.000 C 
ATOM     15  C   UNL     1      50.295   8.464  12.326  0.00  0.00    +0.000 C 
ATOM     16  C   UNL     1      51.644   8.490  11.617  0.00  0.00    +0.000 C 
ATOM     17  O   UNL     1      49.988   9.817  12.712  0.00  0.00    +0.000 OA
ENDBRANCH   4  13
ENDBRANCH   1   8
BRANCH   1  18
ATOM     18  C   UNL     1      43.405   4.303  10.927  0.00  0.00    +0.000 C 
BRANCH  18  19
ATOM     19  N   UNL     1      43.866   4.692   9.589  0.00  0.00    +0.000 N 
ATOM     20  C   UNL     1      44.850   3.959   8.952  0.00  0.00    +0.000 A 
ATOM     21  C   UNL     1      45.029   2.581   9.100  0.00  0.00    +0.000 A 
ATOM     22  N   UNL     1      45.963   1.849   8.430  0.00  0.00    +0.000 NA
ATOM     23  C   UNL     1      46.715   2.567   7.557  0.00  0.00    +0.000 A 
ATOM     24  C   UNL     1      46.548   3.932   7.385  0.00  0.00    +0.000 A 
ATOM     25  N   UNL     1      45.624   4.652   8.082  0.00  0.00    +0.000 NA
ATOM     26  H   UNL     1      44.069   5.676   9.437  0.00  0.00    +0.000 HD
BRANCH  23  27
ATOM     27  C   UNL     1      47.735   1.832   6.764  0.00  0.00    +0.000 C 
ATOM     28  N   UNL     1      48.777   2.587   6.286  0.00  0.00    +0.000 N 
ATOM     29  O   UNL     1      47.660   0.633   6.549  0.00  0.00    +0.000 OA
ATOM     30  H   UNL     1      48.818   3.580   6.483  0.00  0.00    +0.000 HD
ATOM     31  H   UNL     1      49.509   2.143   5.750  0.00  0.00    +0.000 HD
ENDBRANCH  23  27
ENDBRANCH  18  19
ENDBRANCH   1  18
TORSDOF 5
ENDMDL
MODEL 2
REMARK VINA RESULT:    -7.989      1.905      2.907
REMARK INTER + INTRA:         -11.404
REMARK INTER:                 -10.488
REMARK INTRA:                  -0.916
REMARK UNBOUND:                -1.080
REMARK  Name = 
REMARK  9 active torsions:
REMARK  status: ('A' for Active; 'I' for Inactive)
REMARK    1  A    between atoms: C_1  and  C_2
REMARK    2  A    between atoms: N_4  and  C_5
REMARK    3  A    between atoms: C_9  and  C_10
REMARK    4  A    between atoms: C_10  and  C_11
REMARK    5  A    between atoms: C_10  and  C_12
REMARK    6  A    between atoms: C_10  and  C_13
REMARK    7  A    between atoms: C_13  and  N_14
REMARK    8  A    between atoms: C_18  and  C_19
REMARK    9  A    between atoms: C_26  and  C_27
REMARK                            x       y       z     vdW  Elec       q    Type
REMARK                         _______ _______ _______ _____ _____    ______ ____
ROOT
ATOM      1  C   UNL     1      43.395   5.168  12.242  0.00  0.00    +0.000 C 
ATOM      2  C   UNL     1      42.973   4.483  13.564  0.00  0.00    +0.000 C 
ATOM      3  C   UNL     1      42.201   6.029  11.759  0.00  0.00    +0.000 C 
ENDROOT
BRANCH   1   8
ATOM      4  C   UNL     1      46.868   6.440  13.435  0.00  0.00    +0.000 A 
ATOM      5  C   UNL     1      46.962   7.640  12.723  0.00  0.00    +0.000 A 
ATOM      6  C   UNL     1      45.923   8.085  11.909  0.00  0.00    +0.000 A 
ATOM      7  C   UNL     1      44.765   7.321  11.771  0.00  0.00    +0.000 A 
ATOM      8  C   UNL     1      44.616   6.102  12.447  0.00  0.00    +0.000 A 
ATOM      9  C   UNL     1      45.671   5.711  13.303  0.00  0.00    +0.000 A 
BRANCH   4  13
ATOM     10  C   UNL     1      48.324   8.393  16.294  0.00  0.00    +0.000 C 
ATOM     11  C   UNL     1      49.260   7.246  15.920  0.00  0.00    +0.000 C 
ATOM     12  C   UNL     1      49.133   6.802  14.449  0.00  0.00    +0.000 C 
ATOM     13  N   UNL     1      47.916   6.012  14.227  0.00  0.00    +0.000 N 
ATOM     14  C   UNL     1      47.729   4.906  15.182  0.00  0.00    +0.000 C 
ATOM     15  C   UNL     1      47.883   5.414  16.634  0.00  0.00    +0.000 C 
ATOM     16  C   UNL     1      47.883   4.248  17.615  0.00  0.00    +0.000 C 
ATOM     17  O   UNL     1      49.115   6.135  16.825  0.00  0.00    +0.000 OA
ENDBRANCH   4  13
ENDBRANCH   1   8
BRANCH   1  18
ATOM     18  C   UNL     1      43.730   4.067  11.185  0.00  0.00    +0.000 C 
BRANCH  18  19
ATOM     19  N   UNL     1      44.063   4.615   9.864  0.00  0.00    +0.000 N 
ATOM     20  C   UNL     1      45.002   3.987   9.067  0.00  0.00    +0.000 A 
ATOM     21  C   UNL     1      45.221   2.607   9.043  0.00  0.00    +0.000 A 
ATOM     22  N   UNL     1      46.107   1.983   8.217  0.00  0.00    +0.000 NA
ATOM     23  C   UNL     1      46.764   2.816   7.369  0.00  0.00    +0.000 A 
ATOM     24  C   UNL     1      46.555   4.186   7.368  0.00  0.00    +0.000 A 
ATOM     25  N   UNL     1      45.681   4.795   8.218  0.00  0.00    +0.000 NA
ATOM     26  H   UNL     1      44.231   5.616   9.808  0.00  0.00    +0.000 HD
BRANCH  23  27
ATOM     27  C   UNL     1      47.725   2.204   6.415  0.00  0.00    +0.000 C 
ATOM     28  N   UNL     1      48.005   2.943   5.292  0.00  0.00    +0.000 N 
ATOM     29  O   UNL     1      48.239   1.114   6.609  0.00  0.00    +0.000 OA
ATOM     30  H   UNL     1      47.568   3.847   5.158  0.00  0.00    +0.000 HD
ATOM     31  H   UNL     1      48.659   2.587   4.611  0.00  0.00    +0.000 HD
ENDBRANCH  23  27
ENDBRANCH  18  19
ENDBRANCH   1  18
TORSDOF 5
ENDMDL
MODEL 3
REMARK VINA RESULT:    -7.220      3.579      7.827
REMARK INTER + INTRA:         -10.409
REMARK INTER:                  -9.420
REMARK INTRA:                  -0.990
REMARK UNBOUND:                -1.080
REMARK  Name = 
REMARK  9 active torsions:
REMARK  status: ('A' for Active; 'I' for Inactive)
REMARK    1  A    between atoms: C_1  and  C_2
REMARK    2  A    between atoms: N_4  and  C_5
REMARK    3  A    between atoms: C_9  and  C_10
REMARK    4  A    between atoms: C_10  and  C_11
REMARK    5  A    between atoms: C_10  and  C_12
REMARK    6  A    between atoms: C_10  and  C_13
REMARK    7  A    between atoms: C_13  and  N_14
REMARK    8  A    between atoms: C_18  and  C_19
REMARK    9  A    between atoms: C_26  and  C_27
REMARK                            x       y       z     vdW  Elec       q    Type
REMARK                         _______ _______ _______ _____ _____    ______ ____
ROOT
ATOM      1  C   UNL     1      49.149   8.574  12.593  0.00  0.00    +0.000 C 
ATOM      2  C   UNL     1      50.059   7.467  12.008  0.00  0.00    +0.000 C 
ATOM      3  C   UNL     1      49.539   9.909  11.913  0.00  0.00    +0.000 C 
ENDROOT
BRANCH   1   8
ATOM      4  C   UNL     1      45.857   6.629  11.890  0.00  0.00    +0.000 A 
ATOM      5  C   UNL     1      44.925   7.671  11.951  0.00  0.00    +0.000 A 
ATOM      6  C   UNL     1      45.321   8.990  12.158  0.00  0.00    +0.000 A 
ATOM      7  C   UNL     1      46.670   9.297  12.334  0.00  0.00    +0.000 A 
ATOM      8  C   UNL     1      47.651   8.296  12.298  0.00  0.00    +0.000 A 
ATOM      9  C   UNL     1      47.213   6.979  12.034  0.00  0.00    +0.000 A 
BRANCH   4  13
ATOM     10  C   UNL     1      42.268   5.529  11.761  0.00  0.00    +0.000 C 
ATOM     11  C   UNL     1      43.179   4.312  11.915  0.00  0.00    +0.000 C 
ATOM     12  C   UNL     1      44.521   4.631  12.602  0.00  0.00    +0.000 C 
ATOM     13  N   UNL     1      45.440   5.327  11.695  0.00  0.00    +0.000 N 
ATOM     14  C   UNL     1      45.603   4.679  10.382  0.00  0.00    +0.000 C 
ATOM     15  C   UNL     1      44.224   4.374   9.755  0.00  0.00    +0.000 C 
ATOM     16  C   UNL     1      44.380   3.534   8.493  0.00  0.00    +0.000 C 
ATOM     17  O   UNL     1      43.373   3.641  10.656  0.00  0.00    +0.000 OA
ENDBRANCH   4  13
ENDBRANCH   1   8
BRANCH   1  18
ATOM     18  C   UNL     1      49.386   8.663  14.136  0.00  0.00    +0.000 C 
BRANCH  18  19
ATOM     19  N   UNL     1      50.143   7.525  14.671  0.00  0.00    +0.000 N 
ATOM     20  C   UNL     1      49.517   6.588  15.472  0.00  0.00    +0.000 A 
ATOM     21  C   UNL     1      48.179   6.208  15.343  0.00  0.00    +0.000 A 
ATOM     22  N   UNL     1      47.577   5.244  16.095  0.00  0.00    +0.000 NA
ATOM     23  C   UNL     1      48.400   4.635  16.987  0.00  0.00    +0.000 A 
ATOM     24  C   UNL     1      49.733   4.987  17.123  0.00  0.00    +0.000 A 
ATOM     25  N   UNL     1      50.312   5.971  16.379  0.00  0.00    +0.000 NA
ATOM     26  H   UNL     1      51.049   7.727  15.085  0.00  0.00    +0.000 HD
BRANCH  23  27
ATOM     27  C   UNL     1      47.822   3.549  17.822  0.00  0.00    +0.000 C 
ATOM     28  N   UNL     1      48.455   3.316  19.018  0.00  0.00    +0.000 N 
ATOM     29  O   UNL     1      46.848   2.902  17.474  0.00  0.00    +0.000 OA
ATOM     30  H   UNL     1      49.259   3.871  19.284  0.00  0.00    +0.000 HD
ATOM     31  H   UNL     1      48.103   2.598  19.635  0.00  0.00    +0.000 HD
ENDBRANCH  23  27
ENDBRANCH  18  19
ENDBRANCH   1  18
TORSDOF 5
ENDMDL
MODEL 4
REMARK VINA RESULT:    -6.861      3.791      6.127
REMARK INTER + INTRA:          -9.946
REMARK INTER:                  -8.908
REMARK INTRA:                  -1.037
REMARK UNBOUND:                -1.080
REMARK  Name = 
REMARK  9 active torsions:
REMARK  status: ('A' for Active; 'I' for Inactive)
REMARK    1  A    between atoms: C_1  and  C_2
REMARK    2  A    between atoms: N_4  and  C_5
REMARK    3  A    between atoms: C_9  and  C_10
REMARK    4  A    between atoms: C_10  and  C_11
REMARK    5  A    between atoms: C_10  and  C_12
REMARK    6  A    between atoms: C_10  and  C_13
REMARK    7  A    between atoms: C_13  and  N_14
REMARK    8  A    between atoms: C_18  and  C_19
REMARK    9  A    between atoms: C_26  and  C_27
REMARK                            x       y       z     vdW  Elec       q    Type
REMARK                         _______ _______ _______ _____ _____    ______ ____
ROOT
ATOM      1  C   UNL     1      48.883   8.306  13.370  0.00  0.00    +0.000 C 
ATOM      2  C   UNL     1      48.719   9.846  13.353  0.00  0.00    +0.000 C 
ATOM      3  C   UNL     1      49.399   7.876  11.975  0.00  0.00    +0.000 C 
ENDROOT
BRANCH   1   8
ATOM      4  C   UNL     1      50.456   6.387  16.362  0.00  0.00    +0.000 A 
ATOM      5  C   UNL     1      51.781   6.826  16.281  0.00  0.00    +0.000 A 
ATOM      6  C   UNL     1      52.181   7.761  15.329  0.00  0.00    +0.000 A 
ATOM      7  C   UNL     1      51.259   8.265  14.413  0.00  0.00    +0.000 A 
ATOM      8  C   UNL     1      49.918   7.855  14.433  0.00  0.00    +0.000 A 
ATOM      9  C   UNL     1      49.543   6.945  15.447  0.00  0.00    +0.000 A 
BRANCH   4  13
ATOM     10  C   UNL     1      47.465   4.132  16.081  0.00  0.00    +0.000 C 
ATOM     11  C   UNL     1      47.997   4.112  17.513  0.00  0.00    +0.000 C 
ATOM     12  C   UNL     1      48.748   5.399  17.909  0.00  0.00    +0.000 C 
ATOM     13  N   UNL     1      50.085   5.451  17.307  0.00  0.00    +0.000 N 
ATOM     14  C   UNL     1      50.887   4.231  17.506  0.00  0.00    +0.000 C 
ATOM     15  C   UNL     1      50.074   2.979  17.105  0.00  0.00    +0.000 C 
ATOM     16  C   UNL     1      50.821   1.707  17.487  0.00  0.00    +0.000 C 
ATOM     17  O   UNL     1      48.792   2.936  17.760  0.00  0.00    +0.000 OA
ENDBRANCH   4  13
ENDBRANCH   1   8
BRANCH   1  18
ATOM     18  C   UNL     1      47.494   7.651  13.659  0.00  0.00    +0.000 C 
BRANCH  18  19
ATOM     19  N   UNL     1      46.642   7.552  12.468  0.00  0.00    +0.000 N 
ATOM     20  C   UNL     1      46.030   6.354  12.149  0.00  0.00    +0.000 A 
ATOM     21  C   UNL     1      45.590   5.418  13.089  0.00  0.00    +0.000 A 
ATOM     22  N   UNL     1      44.937   4.263  12.776  0.00  0.00    +0.000 NA
ATOM     23  C   UNL     1      44.706   4.092  11.450  0.00  0.00    +0.000 A 
ATOM     24  C   UNL     1      45.122   5.013  10.501  0.00  0.00    +0.000 A 
ATOM     25  N   UNL     1      45.796   6.151  10.830  0.00  0.00    +0.000 NA
ATOM     26  H   UNL     1      47.003   7.952  11.606  0.00  0.00    +0.000 HD
BRANCH  23  27
ATOM     27  C   UNL     1      43.968   2.870  11.034  0.00  0.00    +0.000 C 
ATOM     28  N   UNL     1      44.480   2.205   9.947  0.00  0.00    +0.000 N 
ATOM     29  O   UNL     1      42.971   2.475  11.617  0.00  0.00    +0.000 OA
ATOM     30  H   UNL     1      45.311   2.552   9.484  0.00  0.00    +0.000 HD
ATOM     31  H   UNL     1      44.030   1.361   9.622  0.00  0.00    +0.000 HD
ENDBRANCH  23  27
ENDBRANCH  18  19
ENDBRANCH   1  18
TORSDOF 5
ENDMDL
MODEL 5
REMARK VINA RESULT:    -6.823      3.240      5.425
REMARK INTER + INTRA:          -9.897
REMARK INTER:                  -8.578
REMARK INTRA:                  -1.319
REMARK UNBOUND:                -1.080
REMARK  Name = 
REMARK  9 active torsions:
REMARK  status: ('A' for Active; 'I' for Inactive)
REMARK    1  A    between atoms: C_1  and  C_2
REMARK    2  A    between atoms: N_4  and  C_5
REMARK    3  A    between atoms: C_9  and  C_10
REMARK    4  A    between atoms: C_10  and  C_11
REMARK    5  A    between atoms: C_10  and  C_12
REMARK    6  A    between atoms: C_10  and  C_13
REMARK    7  A    between atoms: C_13  and  N_14
REMARK    8  A    between atoms: C_18  and  C_19
REMARK    9  A    between atoms: C_26  and  C_27
REMARK                            x       y       z     vdW  Elec       q    Type
REMARK                         _______ _______ _______ _____ _____    ______ ____
ROOT
ATOM      1  C   UNL     1      48.464   4.430  17.168  0.00  0.00    +0.000 C 
ATOM      2  C   UNL     1      49.031   2.991  17.100  0.00  0.00    +0.000 C 
ATOM      3  C   UNL     1      48.164   4.744  18.655  0.00  0.00    +0.000 C 
ENDROOT
BRANCH   1   8
ATOM      4  C   UNL     1      49.904   7.579  15.404  0.00  0.00    +0.000 A 
ATOM      5  C   UNL     1      51.239   7.519  15.819  0.00  0.00    +0.000 A 
ATOM      6  C   UNL     1      51.709   6.471  16.606  0.00  0.00    +0.000 A 
ATOM      7  C   UNL     1      50.841   5.461  17.018  0.00  0.00    +0.000 A 
ATOM      8  C   UNL     1      49.489   5.472  16.647  0.00  0.00    +0.000 A 
ATOM      9  C   UNL     1      49.064   6.524  15.806  0.00  0.00    +0.000 A 
BRANCH   4  13
ATOM     10  C   UNL     1      50.101   7.724  11.656  0.00  0.00    +0.000 C 
ATOM     11  C   UNL     1      49.787   9.112  12.212  0.00  0.00    +0.000 C 
ATOM     12  C   UNL     1      50.299   9.328  13.651  0.00  0.00    +0.000 C 
ATOM     13  N   UNL     1      49.458   8.635  14.633  0.00  0.00    +0.000 N 
ATOM     14  C   UNL     1      48.015   8.897  14.488  0.00  0.00    +0.000 C 
ATOM     15  C   UNL     1      47.570   8.677  13.024  0.00  0.00    +0.000 C 
ATOM     16  C   UNL     1      46.129   9.130  12.826  0.00  0.00    +0.000 C 
ATOM     17  O   UNL     1      48.384   9.418  12.096  0.00  0.00    +0.000 OA
ENDBRANCH   4  13
ENDBRANCH   1   8
BRANCH   1  18
ATOM     18  C   UNL     1      47.151   4.498  16.325  0.00  0.00    +0.000 C 
BRANCH  18  19
ATOM     19  N   UNL     1      47.184   3.645  15.131  0.00  0.00    +0.000 N 
ATOM     20  C   UNL     1      46.480   4.006  13.998  0.00  0.00    +0.000 A 
ATOM     21  C   UNL     1      46.258   5.326  13.594  0.00  0.00    +0.000 A 
ATOM     22  N   UNL     1      45.612   5.681  12.448  0.00  0.00    +0.000 NA
ATOM     23  C   UNL     1      45.213   4.634  11.683  0.00  0.00    +0.000 A 
ATOM     24  C   UNL     1      45.432   3.317  12.057  0.00  0.00    +0.000 A 
ATOM     25  N   UNL     1      46.059   2.981  13.219  0.00  0.00    +0.000 NA
ATOM     26  H   UNL     1      47.050   2.647  15.271  0.00  0.00    +0.000 HD
BRANCH  23  27
ATOM     27  C   UNL     1      44.528   4.943  10.400  0.00  0.00    +0.000 C 
ATOM     28  N   UNL     1      45.351   5.168   9.324  0.00  0.00    +0.000 N 
ATOM     29  O   UNL     1      43.313   4.994  10.300  0.00  0.00    +0.000 OA
ATOM     30  H   UNL     1      46.356   5.115   9.433  0.00  0.00    +0.000 HD
ATOM     31  H   UNL     1      44.946   5.372   8.421  0.00  0.00    +0.000 HD
ENDBRANCH  23  27
ENDBRANCH  18  19
ENDBRANCH   1  18
TORSDOF 5
ENDMDL
MODEL 6
REMARK VINA RESULT:    -6.815      3.881      6.495
REMARK INTER + INTRA:          -9.886
REMARK INTER:                  -8.666
REMARK INTRA:                  -1.221
REMARK UNBOUND:                -1.080
REMARK  Name = 
REMARK  9 active torsions:
REMARK  status: ('A' for Active; 'I' for Inactive)
REMARK    1  A    between atoms: C_1  and  C_2
REMARK    2  A    between atoms: N_4  and  C_5
REMARK    3  A    between atoms: C_9  and  C_10
REMARK    4  A    between atoms: C_10  and  C_11
REMARK    5  A    between atoms: C_10  and  C_12
REMARK    6  A    between atoms: C_10  and  C_13
REMARK    7  A    between atoms: C_13  and  N_14
REMARK    8  A    between atoms: C_18  and  C_19
REMARK    9  A    between atoms: C_26  and  C_27
REMARK                            x       y       z     vdW  Elec       q    Type
REMARK                         _______ _______ _______ _____ _____    ______ ____
ROOT
ATOM      1  C   UNL     1      49.355   8.440  14.031  0.00  0.00    +0.000 C 
ATOM      2  C   UNL     1      48.705   9.658  13.330  0.00  0.00    +0.000 C 
ATOM      3  C   UNL     1      50.887   8.667  14.040  0.00  0.00    +0.000 C 
ENDROOT
BRANCH   1   8
ATOM      4  C   UNL     1      48.713   6.905  17.544  0.00  0.00    +0.000 A 
ATOM      5  C   UNL     1      48.214   8.020  18.225  0.00  0.00    +0.000 A 
ATOM      6  C   UNL     1      48.025   9.241  17.581  0.00  0.00    +0.000 A 
ATOM      7  C   UNL     1      48.356   9.380  16.234  0.00  0.00    +0.000 A 
ATOM      8  C   UNL     1      48.874   8.304  15.499  0.00  0.00    +0.000 A 
ATOM      9  C   UNL     1      49.001   7.070  16.176  0.00  0.00    +0.000 A 
BRANCH   4  13
ATOM     10  C   UNL     1      47.526   3.564  16.305  0.00  0.00    +0.000 C 
ATOM     11  C   UNL     1      47.928   3.459  17.775  0.00  0.00    +0.000 C 
ATOM     12  C   UNL     1      47.808   4.791  18.542  0.00  0.00    +0.000 C 
ATOM     13  N   UNL     1      48.903   5.708  18.206  0.00  0.00    +0.000 N 
ATOM     14  C   UNL     1      50.246   5.108  18.296  0.00  0.00    +0.000 C 
ATOM     15  C   UNL     1      50.294   3.772  17.520  0.00  0.00    +0.000 C 
ATOM     16  C   UNL     1      51.615   3.053  17.768  0.00  0.00    +0.000 C 
ATOM     17  O   UNL     1      49.238   2.878  17.919  0.00  0.00    +0.000 OA
ENDBRANCH   4  13
ENDBRANCH   1   8
BRANCH   1  18
ATOM     18  C   UNL     1      49.005   7.146  13.228  0.00  0.00    +0.000 C 
BRANCH  18  19
ATOM     19  N   UNL     1      47.849   7.312  12.338  0.00  0.00    +0.000 N 
ATOM     20  C   UNL     1      46.906   6.308  12.228  0.00  0.00    +0.000 A 
ATOM     21  C   UNL     1      46.544   5.448  13.269  0.00  0.00    +0.000 A 
ATOM     22  N   UNL     1      45.575   4.494  13.177  0.00  0.00    +0.000 NA
ATOM     23  C   UNL     1      44.940   4.455  11.978  0.00  0.00    +0.000 A 
ATOM     24  C   UNL     1      45.274   5.306  10.936  0.00  0.00    +0.000 A 
ATOM     25  N   UNL     1      46.263   6.237  11.038  0.00  0.00    +0.000 NA
ATOM     26  H   UNL     1      48.033   7.665  11.403  0.00  0.00    +0.000 HD
BRANCH  23  27
ATOM     27  C   UNL     1      43.847   3.461  11.812  0.00  0.00    +0.000 C 
ATOM     28  N   UNL     1      43.832   2.434  12.723  0.00  0.00    +0.000 N 
ATOM     29  O   UNL     1      43.011   3.546  10.927  0.00  0.00    +0.000 OA
ATOM     30  H   UNL     1      44.534   2.389  13.451  0.00  0.00    +0.000 HD
ATOM     31  H   UNL     1      43.107   1.732  12.670  0.00  0.00    +0.000 HD
ENDBRANCH  23  27
ENDBRANCH  18  19
ENDBRANCH   1  18
TORSDOF 5
ENDMDL
MODEL 7
REMARK VINA RESULT:    -6.624      6.042      9.026
REMARK INTER + INTRA:          -9.640
REMARK INTER:                  -8.901
REMARK INTRA:                  -0.739
REMARK UNBOUND:                -1.080
REMARK  Name = 
REMARK  9 active torsions:
REMARK  status: ('A' for Active; 'I' for Inactive)
REMARK    1  A    between atoms: C_1  and  C_2
REMARK    2  A    between atoms: N_4  and  C_5
REMARK    3  A    between atoms: C_9  and  C_10
REMARK    4  A    between atoms: C_10  and  C_11
REMARK    5  A    between atoms: C_10  and  C_12
REMARK    6  A    between atoms: C_10  and  C_13
REMARK    7  A    between atoms: C_13  and  N_14
REMARK    8  A    between atoms: C_18  and  C_19
REMARK    9  A    between atoms: C_26  and  C_27
REMARK                            x       y       z     vdW  Elec       q    Type
REMARK                         _______ _______ _______ _____ _____    ______ ____
ROOT
ATOM      1  C   UNL     1      48.017   4.694  16.924  0.00  0.00    +0.000 C 
ATOM      2  C   UNL     1      47.767   5.862  17.910  0.00  0.00    +0.000 C 
ATOM      3  C   UNL     1      47.151   3.497  17.388  0.00  0.00    +0.000 C 
ENDROOT
BRANCH   1   8
ATOM      4  C   UNL     1      46.014   4.750  13.594  0.00  0.00    +0.000 A 
ATOM      5  C   UNL     1      46.639   5.814  12.936  0.00  0.00    +0.000 A 
ATOM      6  C   UNL     1      47.720   6.485  13.502  0.00  0.00    +0.000 A 
ATOM      7  C   UNL     1      48.190   6.118  14.762  0.00  0.00    +0.000 A 
ATOM      8  C   UNL     1      47.598   5.069  15.479  0.00  0.00    +0.000 A 
ATOM      9  C   UNL     1      46.538   4.380  14.847  0.00  0.00    +0.000 A 
BRANCH   4  13
ATOM     10  C   UNL     1      43.474   6.400  11.373  0.00  0.00    +0.000 C 
ATOM     11  C   UNL     1      42.961   5.033  11.821  0.00  0.00    +0.000 C 
ATOM     12  C   UNL     1      43.551   4.565  13.166  0.00  0.00    +0.000 C 
ATOM     13  N   UNL     1      44.936   4.107  13.018  0.00  0.00    +0.000 N 
ATOM     14  C   UNL     1      45.140   3.135  11.929  0.00  0.00    +0.000 C 
ATOM     15  C   UNL     1      44.515   3.657  10.615  0.00  0.00    +0.000 C 
ATOM     16  C   UNL     1      44.551   2.580   9.537  0.00  0.00    +0.000 C 
ATOM     17  O   UNL     1      43.139   4.043  10.790  0.00  0.00    +0.000 OA
ENDBRANCH   4  13
ENDBRANCH   1   8
BRANCH   1  18
ATOM     18  C   UNL     1      49.533   4.314  16.964  0.00  0.00    +0.000 C 
BRANCH  18  19
ATOM     19  N   UNL     1      49.766   2.900  17.286  0.00  0.00    +0.000 N 
ATOM     20  C   UNL     1      51.037   2.461  17.605  0.00  0.00    +0.000 A 
ATOM     21  C   UNL     1      51.994   3.231  18.271  0.00  0.00    +0.000 A 
ATOM     22  N   UNL     1      53.227   2.779  18.636  0.00  0.00    +0.000 NA
ATOM     23  C   UNL     1      53.460   1.478  18.328  0.00  0.00    +0.000 A 
ATOM     24  C   UNL     1      52.521   0.692  17.679  0.00  0.00    +0.000 A 
ATOM     25  N   UNL     1      51.302   1.168  17.299  0.00  0.00    +0.000 NA
ATOM     26  H   UNL     1      49.348   2.211  16.667  0.00  0.00    +0.000 HD
BRANCH  23  27
ATOM     27  C   UNL     1      54.773   0.904  18.724  0.00  0.00    +0.000 C 
ATOM     28  N   UNL     1      55.758   0.952  17.769  0.00  0.00    +0.000 N 
ATOM     29  O   UNL     1      54.971   0.419  19.827  0.00  0.00    +0.000 OA
ATOM     30  H   UNL     1      55.568   1.365  16.864  0.00  0.00    +0.000 HD
ATOM     31  H   UNL     1      56.675   0.588  17.982  0.00  0.00    +0.000 HD
ENDBRANCH  23  27
ENDBRANCH  18  19
ENDBRANCH   1  18
TORSDOF 5
ENDMDL
MODEL 8
REMARK VINA RESULT:    -6.615      4.061      6.665
REMARK INTER + INTRA:          -9.629
REMARK INTER:                  -8.478
REMARK INTRA:                  -1.151
REMARK UNBOUND:                -1.080
REMARK  Name = 
REMARK  9 active torsions:
REMARK  status: ('A' for Active; 'I' for Inactive)
REMARK    1  A    between atoms: C_1  and  C_2
REMARK    2  A    between atoms: N_4  and  C_5
REMARK    3  A    between atoms: C_9  and  C_10
REMARK    4  A    between atoms: C_10  and  C_11
REMARK    5  A    between atoms: C_10  and  C_12
REMARK    6  A    between atoms: C_10  and  C_13
REMARK    7  A    between atoms: C_13  and  N_14
REMARK    8  A    between atoms: C_18  and  C_19
REMARK    9  A    between atoms: C_26  and  C_27
REMARK                            x       y       z     vdW  Elec       q    Type
REMARK                         _______ _______ _______ _____ _____    ______ ____
ROOT
ATOM      1  C   UNL     1      49.557   8.651  13.388  0.00  0.00    +0.000 C 
ATOM      2  C   UNL     1      48.517   9.721  13.801  0.00  0.00    +0.000 C 
ATOM      3  C   UNL     1      50.762   9.388  12.755  0.00  0.00    +0.000 C 
ENDROOT
BRANCH   1   8
ATOM      4  C   UNL     1      49.562   6.251  16.446  0.00  0.00    +0.000 A 
ATOM      5  C   UNL     1      50.930   6.204  16.733  0.00  0.00    +0.000 A 
ATOM      6  C   UNL     1      51.851   6.959  16.012  0.00  0.00    +0.000 A 
ATOM      7  C   UNL     1      51.423   7.768  14.961  0.00  0.00    +0.000 A 
ATOM      8  C   UNL     1      50.066   7.848  14.614  0.00  0.00    +0.000 A 
ATOM      9  C   UNL     1      49.159   7.107  15.404  0.00  0.00    +0.000 A 
BRANCH   4  13
ATOM     10  C   UNL     1      49.988   2.592  17.183  0.00  0.00    +0.000 C 
ATOM     11  C   UNL     1      48.552   3.019  17.486  0.00  0.00    +0.000 C 
ATOM     12  C   UNL     1      48.085   4.236  16.663  0.00  0.00    +0.000 C 
ATOM     13  N   UNL     1      48.668   5.485  17.167  0.00  0.00    +0.000 N 
ATOM     14  C   UNL     1      48.519   5.679  18.621  0.00  0.00    +0.000 C 
ATOM     15  C   UNL     1      48.990   4.421  19.385  0.00  0.00    +0.000 C 
ATOM     16  C   UNL     1      48.662   4.538  20.868  0.00  0.00    +0.000 C 
ATOM     17  O   UNL     1      48.354   3.224  18.898  0.00  0.00    +0.000 OA
ENDBRANCH   4  13
ENDBRANCH   1   8
BRANCH   1  18
ATOM     18  C   UNL     1      48.905   7.685  12.346  0.00  0.00    +0.000 C 
BRANCH  18  19
ATOM     19  N   UNL     1      47.460   7.892  12.191  0.00  0.00    +0.000 N 
ATOM     20  C   UNL     1      46.609   6.807  12.094  0.00  0.00    +0.000 A 
ATOM     21  C   UNL     1      46.815   5.582  12.734  0.00  0.00    +0.000 A 
ATOM     22  N   UNL     1      45.948   4.532  12.683  0.00  0.00    +0.000 NA
ATOM     23  C   UNL     1      44.818   4.773  11.972  0.00  0.00    +0.000 A 
ATOM     24  C   UNL     1      44.586   5.984  11.338  0.00  0.00    +0.000 A 
ATOM     25  N   UNL     1      45.476   7.015  11.380  0.00  0.00    +0.000 NA
ATOM     26  H   UNL     1      47.162   8.579  11.503  0.00  0.00    +0.000 HD
BRANCH  23  27
ATOM     27  C   UNL     1      43.808   3.684  11.898  0.00  0.00    +0.000 C 
ATOM     28  N   UNL     1      44.167   2.497  12.486  0.00  0.00    +0.000 N 
ATOM     29  O   UNL     1      42.726   3.829  11.352  0.00  0.00    +0.000 OA
ATOM     30  H   UNL     1      45.069   2.405  12.937  0.00  0.00    +0.000 HD
ATOM     31  H   UNL     1      43.519   1.722  12.479  0.00  0.00    +0.000 HD
ENDBRANCH  23  27
ENDBRANCH  18  19
ENDBRANCH   1  18
TORSDOF 5
ENDMDL
MODEL 9
REMARK VINA RESULT:    -6.353      3.784      5.950
REMARK INTER + INTRA:          -9.290
REMARK INTER:                  -8.265
REMARK INTRA:                  -1.025
REMARK UNBOUND:                -1.080
REMARK  Name = 
REMARK  9 active torsions:
REMARK  status: ('A' for Active; 'I' for Inactive)
REMARK    1  A    between atoms: C_1  and  C_2
REMARK    2  A    between atoms: N_4  and  C_5
REMARK    3  A    between atoms: C_9  and  C_10
REMARK    4  A    between atoms: C_10  and  C_11
REMARK    5  A    between atoms: C_10  and  C_12
REMARK    6  A    between atoms: C_10  and  C_13
REMARK    7  A    between atoms: C_13  and  N_14
REMARK    8  A    between atoms: C_18  and  C_19
REMARK    9  A    between atoms: C_26  and  C_27
REMARK                            x       y       z     vdW  Elec       q    Type
REMARK                         _______ _______ _______ _____ _____    ______ ____
ROOT
ATOM      1  C   UNL     1      48.331   3.803  17.020  0.00  0.00    +0.000 C 
ATOM      2  C   UNL     1      48.677   2.354  16.598  0.00  0.00    +0.000 C 
ATOM      3  C   UNL     1      47.763   3.748  18.460  0.00  0.00    +0.000 C 
ENDROOT
BRANCH   1   8
ATOM      4  C   UNL     1      50.538   6.998  16.859  0.00  0.00    +0.000 A 
ATOM      5  C   UNL     1      51.783   6.469  17.213  0.00  0.00    +0.000 A 
ATOM      6  C   UNL     1      51.953   5.108  17.452  0.00  0.00    +0.000 A 
ATOM      7  C   UNL     1      50.865   4.240  17.364  0.00  0.00    +0.000 A 
ATOM      8  C   UNL     1      49.589   4.711  17.027  0.00  0.00    +0.000 A 
ATOM      9  C   UNL     1      49.469   6.090  16.741  0.00  0.00    +0.000 A 
BRANCH   4  13
ATOM     10  C   UNL     1      48.221   8.512  14.319  0.00  0.00    +0.000 C 
ATOM     11  C   UNL     1      49.208   9.567  14.814  0.00  0.00    +0.000 C 
ATOM     12  C   UNL     1      50.541   8.975  15.317  0.00  0.00    +0.000 C 
ATOM     13  N   UNL     1      50.391   8.354  16.637  0.00  0.00    +0.000 N 
ATOM     14  C   UNL     1      49.724   9.207  17.637  0.00  0.00    +0.000 C 
ATOM     15  C   UNL     1      48.406   9.778  17.066  0.00  0.00    +0.000 C 
ATOM     16  C   UNL     1      47.810  10.810  18.017  0.00  0.00    +0.000 C 
ATOM     17  O   UNL     1      48.605  10.429  15.797  0.00  0.00    +0.000 OA
ENDBRANCH   4  13
ENDBRANCH   1   8
BRANCH   1  18
ATOM     18  C   UNL     1      47.259   4.376  16.038  0.00  0.00    +0.000 C 
BRANCH  18  19
ATOM     19  N   UNL     1      47.205   3.659  14.758  0.00  0.00    +0.000 N 
ATOM     20  C   UNL     1      46.288   4.029  13.792  0.00  0.00    +0.000 A 
ATOM     21  C   UNL     1      45.841   5.337  13.587  0.00  0.00    +0.000 A 
ATOM     22  N   UNL     1      44.979   5.710  12.600  0.00  0.00    +0.000 NA
ATOM     23  C   UNL     1      44.595   4.698  11.781  0.00  0.00    +0.000 A 
ATOM     24  C   UNL     1      45.034   3.395  11.957  0.00  0.00    +0.000 A 
ATOM     25  N   UNL     1      45.878   3.036  12.966  0.00  0.00    +0.000 NA
ATOM     26  H   UNL     1      47.220   2.644  14.796  0.00  0.00    +0.000 HD
BRANCH  23  27
ATOM     27  C   UNL     1      43.680   5.033  10.658  0.00  0.00    +0.000 C 
ATOM     28  N   UNL     1      44.078   4.607   9.415  0.00  0.00    +0.000 N 
ATOM     29  O   UNL     1      42.638   5.648  10.823  0.00  0.00    +0.000 OA
ATOM     30  H   UNL     1      44.945   4.094   9.307  0.00  0.00    +0.000 HD
ATOM     31  H   UNL     1      43.493   4.794   8.614  0.00  0.00    +0.000 HD
ENDBRANCH  23  27
ENDBRANCH  18  19
ENDBRANCH   1  18
TORSDOF 5
ENDMDL
