MODEL 1
REMARK VINA RESULT:    -8.750      0.000      0.000
REMARK INTER + INTRA:         -11.292
REMARK INTER:                 -11.307
REMARK INTRA:                   0.015
REMARK UNBOUND:                 0.015
REMARK  Name = 
REMARK  5 active torsions:
REMARK  status: ('A' for Active; 'I' for Inactive)
REMARK    1  A    between atoms: C_2  and  C_3
REMARK    2  A    between atoms: C_6  and  N_7
REMARK    3  A    between atoms: N_7  and  C_8
REMARK    4  A    between atoms: C_8  and  C_9
REMARK    5  A    between atoms: C_13  and  C_14
REMARK                            x       y       z     vdW  Elec       q    Type
REMARK                         _______ _______ _______ _____ _____    ______ ____
ROOT
ATOM      1  C   UNL     1      43.948   4.884  11.551  0.00  0.00    +0.000 C 
ATOM      2  C   UNL     1      43.383   3.713  12.346  0.00  0.00    +0.000 C 
ATOM      3  C   UNL     1      42.806   5.077  12.523  0.00  0.00    +0.000 C 
ENDROOT
BRANCH   1   4
ATOM      4  C   UNL     1      45.345   5.394  11.890  0.00  0.00    +0.000 A 
ATOM      5  C   UNL     1      45.984   6.333  11.065  0.00  0.00    +0.000 A 
ATOM      6  C   UNL     1      47.122   7.009  11.495  0.00  0.00    +0.000 A 
ATOM      7  C   UNL     1      47.661   6.737  12.753  0.00  0.00    +0.000 A 
ATOM      8  C   UNL     1      47.102   5.759  13.586  0.00  0.00    +0.000 A 
ATOM      9  C   UNL     1      45.947   5.095  13.126  0.00  0.00    +0.000 A 
BRANCH   8  10
ATOM     10  C   UNL     1      47.678   5.456  14.922  0.00  0.00    +0.000 A 
ATOM     11  C   UNL     1      48.653   6.287  15.503  0.00  0.00    +0.000 A 
ATOM     12  C   UNL     1      49.212   5.993  16.755  0.00  0.00    +0.000 A 
ATOM     13  C   UNL     1      48.799   4.865  17.450  0.00  0.00    +0.000 A 
ATOM     14  C   UNL     1      47.828   4.036  16.901  0.00  0.00    +0.000 A 
ATOM     15 CL   UNL     1      47.300   2.646  17.765  0.00  0.00    +0.000 Cl
ATOM     16  C   UNL     1      47.277   4.322  15.649  0.00  0.00    +0.000 A 
ENDBRANCH   8  10
ENDBRANCH   1   4
BRANCH   1  17
ATOM     17  N   UNL     1      43.777   4.749  10.097  0.00  0.00    +0.000 N 
ATOM     18  H   UNL     1      42.812   4.649   9.784  0.00  0.00    +0.000 HD
BRANCH  17  22
ATOM     19  C   UNL     1      46.316   2.538   7.780  0.00  0.00    +0.000 A 
ATOM     20  C   UNL     1      46.111   3.892   7.578  0.00  0.00    +0.000 A 
ATOM     21  N   UNL     1      45.220   4.605   8.304  0.00  0.00    +0.000 NA
ATOM     22  C   UNL     1      44.524   3.936   9.252  0.00  0.00    +0.000 A 
ATOM     23  C   UNL     1      44.703   2.561   9.404  0.00  0.00    +0.000 A 
ATOM     24  N   UNL     1      45.599   1.833   8.682  0.00  0.00    +0.000 NA
BRANCH  19  26
ATOM     25  N   UNL     1      48.192   1.332   6.447  0.00  0.00    +0.000 NA
ATOM     26  C   UNL     1      47.355   1.846   7.066  0.00  0.00    +0.000 C 
ENDBRANCH  19  26
ENDBRANCH  17  22
ENDBRANCH   1  17
TORSDOF 5
ENDMDL
MODEL 2
REMARK VINA RESULT:    -8.371      2.620      3.940
REMARK INTER + INTRA:         -10.803
REMARK INTER:                  -9.858
REMARK INTRA:                  -0.946
REMARK UNBOUND:                 0.015
REMARK  Name = 
REMARK  5 active torsions:
REMARK  status: ('A' for Active; 'I' for Inactive)
REMARK    1  A    between atoms: C_2  and  C_3
REMARK    2  A    between atoms: C_6  and  N_7
REMARK    3  A    between atoms: N_7  and  C_8
REMARK    4  A    between atoms: C_8  and  C_9
REMARK    5  A    between atoms: C_13  and  C_14
REMARK                            x       y       z     vdW  Elec       q    Type
REMARK                         _______ _______ _______ _____ _____    ______ ____
ROOT
ATOM      1  C   UNL     1      43.866   5.078  11.394  0.00  0.00    +0.000 C 
ATOM      2  C   UNL     1      42.501   5.248  12.049  0.00  0.00    +0.000 C 
ATOM      3  C   UNL     1      42.944   6.210  10.999  0.00  0.00    +0.000 C 
ENDROOT
BRANCH   1   4
ATOM      4  C   UNL     1      45.117   5.356  12.222  0.00  0.00    +0.000 A 
ATOM      5  C   UNL     1      45.576   4.418  13.161  0.00  0.00    +0.000 A 
ATOM      6  C   UNL     1      46.846   4.525  13.719  0.00  0.00    +0.000 A 
ATOM      7  C   UNL     1      47.675   5.591  13.367  0.00  0.00    +0.000 A 
ATOM      8  C   UNL     1      47.238   6.591  12.488  0.00  0.00    +0.000 A 
ATOM      9  C   UNL     1      45.949   6.453  11.935  0.00  0.00    +0.000 A 
BRANCH   8  10
ATOM     10  C   UNL     1      48.110   7.735  12.119  0.00  0.00    +0.000 A 
ATOM     11  C   UNL     1      47.621   9.055  12.107  0.00  0.00    +0.000 A 
ATOM     12  C   UNL     1      48.437  10.134  11.740  0.00  0.00    +0.000 A 
ATOM     13  C   UNL     1      49.761   9.912  11.386  0.00  0.00    +0.000 A 
ATOM     14  C   UNL     1      50.270   8.619  11.402  0.00  0.00    +0.000 A 
ATOM     15 CL   UNL     1      51.913   8.340  10.979  0.00  0.00    +0.000 Cl
ATOM     16  C   UNL     1      49.454   7.541  11.757  0.00  0.00    +0.000 A 
ENDBRANCH   8  10
ENDBRANCH   1   4
BRANCH   1  17
ATOM     17  N   UNL     1      44.007   3.829  10.633  0.00  0.00    +0.000 N 
ATOM     18  H   UNL     1      43.962   2.976  11.192  0.00  0.00    +0.000 HD
BRANCH  17  22
ATOM     19  C   UNL     1      46.461   2.868   7.509  0.00  0.00    +0.000 A 
ATOM     20  C   UNL     1      46.003   1.926   8.414  0.00  0.00    +0.000 A 
ATOM     21  N   UNL     1      45.245   2.259   9.484  0.00  0.00    +0.000 NA
ATOM     22  C   UNL     1      44.947   3.569   9.642  0.00  0.00    +0.000 A 
ATOM     23  C   UNL     1      45.464   4.512   8.753  0.00  0.00    +0.000 A 
ATOM     24  N   UNL     1      46.224   4.189   7.670  0.00  0.00    +0.000 NA
BRANCH  19  26
ATOM     25  N   UNL     1      47.767   2.089   5.403  0.00  0.00    +0.000 NA
ATOM     26  C   UNL     1      47.164   2.456   6.324  0.00  0.00    +0.000 C 
ENDBRANCH  19  26
ENDBRANCH  17  22
ENDBRANCH   1  17
TORSDOF 5
ENDMDL
MODEL 3
REMARK VINA RESULT:    -8.217      3.653      7.390
REMARK INTER + INTRA:         -10.603
REMARK INTER:                  -9.959
REMARK INTRA:                  -0.645
REMARK UNBOUND:                 0.015
REMARK  Name = 
REMARK  5 active torsions:
REMARK  status: ('A' for Active; 'I' for Inactive)
REMARK    1  A    between atoms: C_2  and  C_3
REMARK    2  A    between atoms: C_6  and  N_7
REMARK    3  A    between atoms: N_7  and  C_8
REMARK    4  A    between atoms: C_8  and  C_9
REMARK    5  A    between atoms: C_13  and  C_14
REMARK                            x       y       z     vdW  Elec       q    Type
REMARK                         _______ _______ _______ _____ _____    ______ ____
ROOT
ATOM      1  C   UNL     1      46.019   7.029  12.306  0.00  0.00    +0.000 C 
ATOM      2  C   UNL     1      46.044   8.395  11.633  0.00  0.00    +0.000 C 
ATOM      3  C   UNL     1      45.271   8.204  12.894  0.00  0.00    +0.000 C 
ENDROOT
BRANCH   1   4
ATOM      4  C   UNL     1      45.259   5.891  11.630  0.00  0.00    +0.000 A 
ATOM      5  C   UNL     1      43.890   5.700  11.875  0.00  0.00    +0.000 A 
ATOM      6  C   UNL     1      43.129   4.856  11.071  0.00  0.00    +0.000 A 
ATOM      7  C   UNL     1      43.732   4.164  10.020  0.00  0.00    +0.000 A 
ATOM      8  C   UNL     1      45.108   4.267   9.777  0.00  0.00    +0.000 A 
ATOM      9  C   UNL     1      45.852   5.133  10.604  0.00  0.00    +0.000 A 
BRANCH   8  10
ATOM     10  C   UNL     1      45.758   3.523   8.667  0.00  0.00    +0.000 A 
ATOM     11  C   UNL     1      46.285   4.194   7.548  0.00  0.00    +0.000 A 
ATOM     12  C   UNL     1      46.882   3.493   6.490  0.00  0.00    +0.000 A 
ATOM     13  C   UNL     1      46.968   2.109   6.538  0.00  0.00    +0.000 A 
ATOM     14  C   UNL     1      46.465   1.425   7.639  0.00  0.00    +0.000 A 
ATOM     15 CL   UNL     1      46.583  -0.288   7.711  0.00  0.00    +0.000 Cl
ATOM     16  C   UNL     1      45.860   2.122   8.689  0.00  0.00    +0.000 A 
ENDBRANCH   8  10
ENDBRANCH   1   4
BRANCH   1  17
ATOM     17  N   UNL     1      47.336   6.575  12.775  0.00  0.00    +0.000 N 
ATOM     18  H   UNL     1      47.977   6.277  12.039  0.00  0.00    +0.000 HD
BRANCH  17  22
ATOM     19  C   UNL     1      47.807   4.309  16.144  0.00  0.00    +0.000 A 
ATOM     20  C   UNL     1      48.390   5.555  15.996  0.00  0.00    +0.000 A 
ATOM     21  N   UNL     1      48.287   6.272  14.853  0.00  0.00    +0.000 NA
ATOM     22  C   UNL     1      47.580   5.718  13.842  0.00  0.00    +0.000 A 
ATOM     23  C   UNL     1      47.045   4.437  13.988  0.00  0.00    +0.000 A 
ATOM     24  N   UNL     1      47.140   3.707  15.135  0.00  0.00    +0.000 NA
BRANCH  19  26
ATOM     25  N   UNL     1      47.922   3.060  18.419  0.00  0.00    +0.000 NA
ATOM     26  C   UNL     1      47.844   3.635  17.414  0.00  0.00    +0.000 C 
ENDBRANCH  19  26
ENDBRANCH  17  22
ENDBRANCH   1  17
TORSDOF 5
ENDMDL
MODEL 4
REMARK VINA RESULT:    -7.723      2.281      2.912
REMARK INTER + INTRA:          -9.965
REMARK INTER:                 -10.015
REMARK INTRA:                   0.050
REMARK UNBOUND:                 0.015
REMARK  Name = 
REMARK  5 active torsions:
REMARK  status: ('A' for Active; 'I' for Inactive)
REMARK    1  A    between atoms: C_2  and  C_3
REMARK    2  A    between atoms: C_6  and  N_7
REMARK    3  A    between atoms: N_7  and  C_8
REMARK    4  A    between atoms: C_8  and  C_9
REMARK    5  A    between atoms: C_13  and  C_14
REMARK                            x       y       z     vdW  Elec       q    Type
REMARK                         _______ _______ _______ _____ _____    ______ ____
ROOT
ATOM      1  C   UNL     1      44.235   5.057  11.450  0.00  0.00    +0.000 C 
ATOM      2  C   UNL     1      44.874   3.929  12.250  0.00  0.00    +0.000 C 
ATOM      3  C   UNL     1      43.579   4.517  12.701  0.00  0.00    +0.000 C 
ENDROOT
BRANCH   1   4
ATOM      4  C   UNL     1      44.899   6.431  11.458  0.00  0.00    +0.000 A 
ATOM      5  C   UNL     1      44.129   7.598  11.328  0.00  0.00    +0.000 A 
ATOM      6  C   UNL     1      44.672   8.849  11.606  0.00  0.00    +0.000 A 
ATOM      7  C   UNL     1      46.008   8.959  11.994  0.00  0.00    +0.000 A 
ATOM      8  C   UNL     1      46.837   7.831  12.071  0.00  0.00    +0.000 A 
ATOM      9  C   UNL     1      46.258   6.578  11.789  0.00  0.00    +0.000 A 
BRANCH   8  10
ATOM     10  C   UNL     1      48.263   7.943  12.472  0.00  0.00    +0.000 A 
ATOM     11  C   UNL     1      49.227   8.484  11.602  0.00  0.00    +0.000 A 
ATOM     12  C   UNL     1      50.577   8.572  11.970  0.00  0.00    +0.000 A 
ATOM     13  C   UNL     1      50.984   8.128  13.220  0.00  0.00    +0.000 A 
ATOM     14  C   UNL     1      50.047   7.601  14.102  0.00  0.00    +0.000 A 
ATOM     15 CL   UNL     1      50.543   7.063  15.658  0.00  0.00    +0.000 Cl
ATOM     16  C   UNL     1      48.703   7.502  13.731  0.00  0.00    +0.000 A 
ENDBRANCH   8  10
ENDBRANCH   1   4
BRANCH   1  17
ATOM     17  N   UNL     1      43.848   4.669  10.086  0.00  0.00    +0.000 N 
ATOM     18  H   UNL     1      42.897   4.312   9.992  0.00  0.00    +0.000 HD
BRANCH  17  22
ATOM     19  C   UNL     1      46.430   2.620   7.669  0.00  0.00    +0.000 A 
ATOM     20  C   UNL     1      46.281   3.995   7.605  0.00  0.00    +0.000 A 
ATOM     21  N   UNL     1      45.377   4.661   8.360  0.00  0.00    +0.000 NA
ATOM     22  C   UNL     1      44.611   3.922   9.195  0.00  0.00    +0.000 A 
ATOM     23  C   UNL     1      44.735   2.533   9.206  0.00  0.00    +0.000 A 
ATOM     24  N   UNL     1      45.644   1.851   8.453  0.00  0.00    +0.000 NA
BRANCH  19  26
ATOM     25  N   UNL     1      48.325   1.486   6.300  0.00  0.00    +0.000 NA
ATOM     26  C   UNL     1      47.482   1.968   6.935  0.00  0.00    +0.000 C 
ENDBRANCH  19  26
ENDBRANCH  17  22
ENDBRANCH   1  17
TORSDOF 5
ENDMDL
MODEL 5
REMARK VINA RESULT:    -7.484      4.319      7.956
REMARK INTER + INTRA:          -9.657
REMARK INTER:                  -8.772
REMARK INTRA:                  -0.885
REMARK UNBOUND:                 0.015
REMARK  Name = 
REMARK  5 active torsions:
REMARK  status: ('A' for Active; 'I' for Inactive)
REMARK    1  A    between atoms: C_2  and  C_3
REMARK    2  A    between atoms: C_6  and  N_7
REMARK    3  A    between atoms: N_7  and  C_8
REMARK    4  A    between atoms: C_8  and  C_9
REMARK    5  A    between atoms: C_13  and  C_14
REMARK                            x       y       z     vdW  Elec       q    Type
REMARK                         _______ _______ _______ _____ _____    ______ ____
ROOT
ATOM      1  C   UNL     1      48.677   7.999  12.620  0.00  0.00    +0.000 C 
ATOM      2  C   UNL     1      49.567   8.381  11.444  0.00  0.00    +0.000 C 
ATOM      3  C   UNL     1      49.183   9.414  12.449  0.00  0.00    +0.000 C 
ENDROOT
BRANCH   1   4
ATOM      4  C   UNL     1      47.213   7.665  12.354  0.00  0.00    +0.000 A 
ATOM      5  C   UNL     1      46.210   8.623  12.571  0.00  0.00    +0.000 A 
ATOM      6  C   UNL     1      44.921   8.436  12.080  0.00  0.00    +0.000 A 
ATOM      7  C   UNL     1      44.602   7.269  11.384  0.00  0.00    +0.000 A 
ATOM      8  C   UNL     1      45.549   6.252  11.202  0.00  0.00    +0.000 A 
ATOM      9  C   UNL     1      46.847   6.472  11.705  0.00  0.00    +0.000 A 
BRANCH   8  10
ATOM     10  C   UNL     1      45.213   5.002  10.472  0.00  0.00    +0.000 A 
ATOM     11  C   UNL     1      44.447   3.987  11.074  0.00  0.00    +0.000 A 
ATOM     12  C   UNL     1      44.145   2.798  10.394  0.00  0.00    +0.000 A 
ATOM     13  C   UNL     1      44.598   2.608   9.097  0.00  0.00    +0.000 A 
ATOM     14  C   UNL     1      45.347   3.602   8.477  0.00  0.00    +0.000 A 
ATOM     15 CL   UNL     1      45.897   3.379   6.864  0.00  0.00    +0.000 Cl
ATOM     16  C   UNL     1      45.657   4.783   9.157  0.00  0.00    +0.000 A 
ENDBRANCH   8  10
ENDBRANCH   1   4
BRANCH   1  17
ATOM     17  N   UNL     1      49.284   7.013  13.526  0.00  0.00    +0.000 N 
ATOM     18  H   UNL     1      49.446   6.093  13.116  0.00  0.00    +0.000 HD
BRANCH  17  22
ATOM     19  C   UNL     1      48.481   5.982  17.398  0.00  0.00    +0.000 A 
ATOM     20  C   UNL     1      48.112   5.190  16.325  0.00  0.00    +0.000 A 
ATOM     21  N   UNL     1      48.320   5.567  15.042  0.00  0.00    +0.000 NA
ATOM     22  C   UNL     1      48.913   6.767  14.843  0.00  0.00    +0.000 A 
ATOM     23  C   UNL     1      49.227   7.577  15.935  0.00  0.00    +0.000 A 
ATOM     24  N   UNL     1      49.026   7.207  17.230  0.00  0.00    +0.000 NA
BRANCH  19  26
ATOM     25  N   UNL     1      48.288   5.128  19.844  0.00  0.00    +0.000 NA
ATOM     26  C   UNL     1      48.347   5.490  18.743  0.00  0.00    +0.000 C 
ENDBRANCH  19  26
ENDBRANCH  17  22
ENDBRANCH   1  17
TORSDOF 5
ENDMDL
MODEL 6
REMARK VINA RESULT:    -7.069      3.760      7.222
REMARK INTER + INTRA:          -9.120
REMARK INTER:                  -8.259
REMARK INTRA:                  -0.861
REMARK UNBOUND:                 0.015
REMARK  Name = 
REMARK  5 active torsions:
REMARK  status: ('A' for Active; 'I' for Inactive)
REMARK    1  A    between atoms: C_2  and  C_3
REMARK    2  A    between atoms: C_6  and  N_7
REMARK    3  A    between atoms: N_7  and  C_8
REMARK    4  A    between atoms: C_8  and  C_9
REMARK    5  A    between atoms: C_13  and  C_14
REMARK                            x       y       z     vdW  Elec       q    Type
REMARK                         _______ _______ _______ _____ _____    ______ ____
ROOT
ATOM      1  C   UNL     1      46.086   5.143  13.446  0.00  0.00    +0.000 C 
ATOM      2  C   UNL     1      45.949   4.394  14.766  0.00  0.00    +0.000 C 
ATOM      3  C   UNL     1      47.176   4.218  13.937  0.00  0.00    +0.000 C 
ENDROOT
BRANCH   1   4
ATOM      4  C   UNL     1      45.197   4.734  12.275  0.00  0.00    +0.000 A 
ATOM      5  C   UNL     1      43.865   5.174  12.200  0.00  0.00    +0.000 A 
ATOM      6  C   UNL     1      43.133   5.045  11.024  0.00  0.00    +0.000 A 
ATOM      7  C   UNL     1      43.711   4.446   9.904  0.00  0.00    +0.000 A 
ATOM      8  C   UNL     1      45.013   3.928   9.949  0.00  0.00    +0.000 A 
ATOM      9  C   UNL     1      45.732   4.078  11.152  0.00  0.00    +0.000 A 
BRANCH   8  10
ATOM     10  C   UNL     1      45.630   3.279   8.764  0.00  0.00    +0.000 A 
ATOM     11  C   UNL     1      46.010   4.027   7.635  0.00  0.00    +0.000 A 
ATOM     12  C   UNL     1      46.576   3.414   6.508  0.00  0.00    +0.000 A 
ATOM     13  C   UNL     1      46.778   2.041   6.495  0.00  0.00    +0.000 A 
ATOM     14  C   UNL     1      46.422   1.282   7.604  0.00  0.00    +0.000 A 
ATOM     15 CL   UNL     1      46.686  -0.416   7.600  0.00  0.00    +0.000 Cl
ATOM     16  C   UNL     1      45.849   1.891   8.724  0.00  0.00    +0.000 A 
ENDBRANCH   8  10
ENDBRANCH   1   4
BRANCH   1  17
ATOM     17  N   UNL     1      46.118   6.605  13.595  0.00  0.00    +0.000 N 
ATOM     18  H   UNL     1      45.208   7.064  13.550  0.00  0.00    +0.000 HD
BRANCH  17  22
ATOM     19  C   UNL     1      48.964   9.119  12.082  0.00  0.00    +0.000 A 
ATOM     20  C   UNL     1      48.161   9.462  13.156  0.00  0.00    +0.000 A 
ATOM     21  N   UNL     1      47.176   8.653  13.611  0.00  0.00    +0.000 NA
ATOM     22  C   UNL     1      47.000   7.477  12.966  0.00  0.00    +0.000 A 
ATOM     23  C   UNL     1      47.781   7.172  11.851  0.00  0.00    +0.000 A 
ATOM     24  N   UNL     1      48.778   7.975  11.386  0.00  0.00    +0.000 NA
BRANCH  19  26
ATOM     25  N   UNL     1      51.006  10.583  11.422  0.00  0.00    +0.000 NA
ATOM     26  C   UNL     1      50.073   9.954  11.708  0.00  0.00    +0.000 C 
ENDBRANCH  19  26
ENDBRANCH  17  22
ENDBRANCH   1  17
TORSDOF 5
ENDMDL
MODEL 7
REMARK VINA RESULT:    -7.023      4.036      7.578
REMARK INTER + INTRA:          -9.060
REMARK INTER:                  -8.252
REMARK INTRA:                  -0.809
REMARK UNBOUND:                 0.015
REMARK  Name = 
REMARK  5 active torsions:
REMARK  status: ('A' for Active; 'I' for Inactive)
REMARK    1  A    between atoms: C_2  and  C_3
REMARK    2  A    between atoms: C_6  and  N_7
REMARK    3  A    between atoms: N_7  and  C_8
REMARK    4  A    between atoms: C_8  and  C_9
REMARK    5  A    between atoms: C_13  and  C_14
REMARK                            x       y       z     vdW  Elec       q    Type
REMARK                         _______ _______ _______ _____ _____    ______ ____
ROOT
ATOM      1  C   UNL     1      45.579   7.839  11.839  0.00  0.00    +0.000 C 
ATOM      2  C   UNL     1      45.089   9.082  11.106  0.00  0.00    +0.000 C 
ATOM      3  C   UNL     1      44.852   8.943  12.572  0.00  0.00    +0.000 C 
ENDROOT
BRANCH   1   4
ATOM      4  C   UNL     1      44.888   6.507  11.567  0.00  0.00    +0.000 A 
ATOM      5  C   UNL     1      43.608   6.247  12.082  0.00  0.00    +0.000 A 
ATOM      6  C   UNL     1      42.856   5.168  11.625  0.00  0.00    +0.000 A 
ATOM      7  C   UNL     1      43.384   4.310  10.661  0.00  0.00    +0.000 A 
ATOM      8  C   UNL     1      44.684   4.484  10.166  0.00  0.00    +0.000 A 
ATOM      9  C   UNL     1      45.419   5.588  10.643  0.00  0.00    +0.000 A 
BRANCH   8  10
ATOM     10  C   UNL     1      45.256   3.567   9.147  0.00  0.00    +0.000 A 
ATOM     11  C   UNL     1      45.278   2.174   9.347  0.00  0.00    +0.000 A 
ATOM     12  C   UNL     1      45.835   1.308   8.396  0.00  0.00    +0.000 A 
ATOM     13  C   UNL     1      46.374   1.820   7.224  0.00  0.00    +0.000 A 
ATOM     14  C   UNL     1      46.353   3.191   6.999  0.00  0.00    +0.000 A 
ATOM     15 CL   UNL     1      47.004   3.830   5.542  0.00  0.00    +0.000 Cl
ATOM     16  C   UNL     1      45.807   4.057   7.951  0.00  0.00    +0.000 A 
ENDBRANCH   8  10
ENDBRANCH   1   4
BRANCH   1  17
ATOM     17  N   UNL     1      47.041   7.683  11.828  0.00  0.00    +0.000 N 
ATOM     18  H   UNL     1      47.414   7.169  11.030  0.00  0.00    +0.000 HD
BRANCH  17  22
ATOM     19  C   UNL     1      49.157   6.876  15.230  0.00  0.00    +0.000 A 
ATOM     20  C   UNL     1      49.277   8.072  14.544  0.00  0.00    +0.000 A 
ATOM     21  N   UNL     1      48.625   8.309  13.382  0.00  0.00    +0.000 NA
ATOM     22  C   UNL     1      47.838   7.317  12.907  0.00  0.00    +0.000 A 
ATOM     23  C   UNL     1      47.773   6.097  13.581  0.00  0.00    +0.000 A 
ATOM     24  N   UNL     1      48.421   5.849  14.753  0.00  0.00    +0.000 NA
BRANCH  19  26
ATOM     25  N   UNL     1      50.217   6.577  17.583  0.00  0.00    +0.000 NA
ATOM     26  C   UNL     1      49.775   6.713  16.519  0.00  0.00    +0.000 C 
ENDBRANCH  19  26
ENDBRANCH  17  22
ENDBRANCH   1  17
TORSDOF 5
ENDMDL
MODEL 8
REMARK VINA RESULT:    -6.962      5.062      8.029
REMARK INTER + INTRA:          -8.982
REMARK INTER:                  -8.430
REMARK INTRA:                  -0.552
REMARK UNBOUND:                 0.015
REMARK  Name = 
REMARK  5 active torsions:
REMARK  status: ('A' for Active; 'I' for Inactive)
REMARK    1  A    between atoms: C_2  and  C_3
REMARK    2  A    between atoms: C_6  and  N_7
REMARK    3  A    between atoms: N_7  and  C_8
REMARK    4  A    between atoms: C_8  and  C_9
REMARK    5  A    between atoms: C_13  and  C_14
REMARK                            x       y       z     vdW  Elec       q    Type
REMARK                         _______ _______ _______ _____ _____    ______ ____
ROOT
ATOM      1  C   UNL     1      48.287   4.736  17.056  0.00  0.00    +0.000 C 
ATOM      2  C   UNL     1      47.276   4.918  18.182  0.00  0.00    +0.000 C 
ATOM      3  C   UNL     1      47.264   3.668  17.369  0.00  0.00    +0.000 C 
ENDROOT
BRANCH   1   4
ATOM      4  C   UNL     1      48.151   5.593  15.802  0.00  0.00    +0.000 A 
ATOM      5  C   UNL     1      49.070   6.619  15.532  0.00  0.00    +0.000 A 
ATOM      6  C   UNL     1      49.126   7.220  14.278  0.00  0.00    +0.000 A 
ATOM      7  C   UNL     1      48.242   6.824  13.275  0.00  0.00    +0.000 A 
ATOM      8  C   UNL     1      47.260   5.854  13.514  0.00  0.00    +0.000 A 
ATOM      9  C   UNL     1      47.231   5.259  14.791  0.00  0.00    +0.000 A 
BRANCH   8  10
ATOM     10  C   UNL     1      46.307   5.436  12.453  0.00  0.00    +0.000 A 
ATOM     11  C   UNL     1      46.272   6.085  11.205  0.00  0.00    +0.000 A 
ATOM     12  C   UNL     1      45.361   5.704  10.210  0.00  0.00    +0.000 A 
ATOM     13  C   UNL     1      44.474   4.662  10.443  0.00  0.00    +0.000 A 
ATOM     14  C   UNL     1      44.499   3.998  11.664  0.00  0.00    +0.000 A 
ATOM     15 CL   UNL     1      43.415   2.696  11.953  0.00  0.00    +0.000 Cl
ATOM     16  C   UNL     1      45.400   4.383  12.661  0.00  0.00    +0.000 A 
ENDBRANCH   8  10
ENDBRANCH   1   4
BRANCH   1  17
ATOM     17  N   UNL     1      49.683   4.697  17.515  0.00  0.00    +0.000 N 
ATOM     18  H   UNL     1      50.250   5.500  17.243  0.00  0.00    +0.000 HD
BRANCH  17  22
ATOM     19  C   UNL     1      52.199   1.484  17.747  0.00  0.00    +0.000 A 
ATOM     20  C   UNL     1      52.595   2.766  18.083  0.00  0.00    +0.000 A 
ATOM     21  N   UNL     1      51.780   3.837  17.941  0.00  0.00    +0.000 NA
ATOM     22  C   UNL     1      50.541   3.604  17.450  0.00  0.00    +0.000 A 
ATOM     23  C   UNL     1      50.177   2.314  17.065  0.00  0.00    +0.000 A 
ATOM     24  N   UNL     1      50.987   1.228  17.206  0.00  0.00    +0.000 NA
BRANCH  19  26
ATOM     25  N   UNL     1      53.754  -0.521  18.305  0.00  0.00    +0.000 NA
ATOM     26  C   UNL     1      53.056   0.362  18.024  0.00  0.00    +0.000 C 
ENDBRANCH  19  26
ENDBRANCH  17  22
ENDBRANCH   1  17
TORSDOF 5
ENDMDL
MODEL 9
REMARK VINA RESULT:    -6.746      2.809      4.774
REMARK INTER + INTRA:          -8.703
REMARK INTER:                  -8.010
REMARK INTRA:                  -0.692
REMARK UNBOUND:                 0.015
REMARK  Name = 
REMARK  5 active torsions:
REMARK  status: ('A' for Active; 'I' for Inactive)
REMARK    1  A    between atoms: C_2  and  C_3
REMARK    2  A    between atoms: C_6  and  N_7
REMARK    3  A    between atoms: N_7  and  C_8
REMARK    4  A    between atoms: C_8  and  C_9
REMARK    5  A    between atoms: C_13  and  C_14
REMARK                            x       y       z     vdW  Elec       q    Type
REMARK                         _______ _______ _______ _____ _____    ______ ____
ROOT
ATOM      1  C   UNL     1      48.093   8.109  12.578  0.00  0.00    +0.000 C 
ATOM      2  C   UNL     1      48.610   9.263  11.729  0.00  0.00    +0.000 C 
ATOM      3  C   UNL     1      49.145   7.888  11.515  0.00  0.00    +0.000 C 
ENDROOT
BRANCH   1   4
ATOM      4  C   UNL     1      48.468   8.060  14.056  0.00  0.00    +0.000 A 
ATOM      5  C   UNL     1      48.352   9.204  14.862  0.00  0.00    +0.000 A 
ATOM      6  C   UNL     1      48.422   9.114  16.249  0.00  0.00    +0.000 A 
ATOM      7  C   UNL     1      48.639   7.877  16.857  0.00  0.00    +0.000 A 
ATOM      8  C   UNL     1      48.831   6.717  16.096  0.00  0.00    +0.000 A 
ATOM      9  C   UNL     1      48.749   6.838  14.694  0.00  0.00    +0.000 A 
BRANCH   8  10
ATOM     10  C   UNL     1      49.074   5.399  16.737  0.00  0.00    +0.000 A 
ATOM     11  C   UNL     1      48.031   4.475  16.927  0.00  0.00    +0.000 A 
ATOM     12  C   UNL     1      48.254   3.238  17.549  0.00  0.00    +0.000 A 
ATOM     13  C   UNL     1      49.527   2.902  17.985  0.00  0.00    +0.000 A 
ATOM     14  C   UNL     1      50.577   3.794  17.797  0.00  0.00    +0.000 A 
ATOM     15 CL   UNL     1      52.160   3.377  18.321  0.00  0.00    +0.000 Cl
ATOM     16  C   UNL     1      50.354   5.032  17.187  0.00  0.00    +0.000 A 
ENDBRANCH   8  10
ENDBRANCH   1   4
BRANCH   1  17
ATOM     17  N   UNL     1      46.663   7.829  12.390  0.00  0.00    +0.000 N 
ATOM     18  H   UNL     1      46.041   8.290  13.055  0.00  0.00    +0.000 HD
BRANCH  17  22
ATOM     19  C   UNL     1      44.619   4.331  11.845  0.00  0.00    +0.000 A 
ATOM     20  C   UNL     1      44.938   4.820  13.100  0.00  0.00    +0.000 A 
ATOM     21  N   UNL     1      45.673   5.944  13.274  0.00  0.00    +0.000 NA
ATOM     22  C   UNL     1      46.091   6.583  12.157  0.00  0.00    +0.000 A 
ATOM     23  C   UNL     1      45.808   6.046  10.902  0.00  0.00    +0.000 A 
ATOM     24  N   UNL     1      45.067   4.918  10.713  0.00  0.00    +0.000 NA
BRANCH  19  26
ATOM     25  N   UNL     1      43.049   2.285  11.539  0.00  0.00    +0.000 NA
ATOM     26  C   UNL     1      43.739   3.202  11.708  0.00  0.00    +0.000 C 
ENDBRANCH  19  26
ENDBRANCH  17  22
ENDBRANCH   1  17
TORSDOF 5
ENDMDL
