MODEL 1
REMARK VINA RESULT:    -9.359      0.000      0.000
REMARK INTER + INTRA:         -12.813
REMARK INTER:                 -12.094
REMARK INTRA:                  -0.719
REMARK UNBOUND:                -0.719
REMARK  Name = 
REMARK  6 active torsions:
REMARK  status: ('A' for Active; 'I' for Inactive)
REMARK    1  A    between atoms: C_1  and  C_2
REMARK    2  A    between atoms: N_6  and  C_7
REMARK    3  A    between atoms: C_7  and  C_8
REMARK    4  A    between atoms: C_8  and  C_11
REMARK    5  A    between atoms: C_15  and  N_16
REMARK    6  A    between atoms: N_16  and  C_17
REMARK                            x       y       z     vdW  Elec       q    Type
REMARK                         _______ _______ _______ _____ _____    ______ ____
ROOT
ATOM      1  C   UNL     1      44.965   5.534  12.352  0.00  0.00    +0.000 A 
ATOM      2  C   UNL     1      45.857   6.442  11.762  0.00  0.00    +0.000 A 
ATOM      3  C   UNL     1      47.159   6.584  12.247  0.00  0.00    +0.000 A 
ATOM      4  C   UNL     1      47.597   5.813  13.325  0.00  0.00    +0.000 A 
ATOM      5  C   UNL     1      46.734   4.902  13.930  0.00  0.00    +0.000 A 
ATOM      6  C   UNL     1      45.425   4.774  13.439  0.00  0.00    +0.000 A 
ENDROOT
BRANCH   1   7
ATOM      7  C   UNL     1      43.549   5.446  11.799  0.00  0.00    +0.000 C 
ATOM      8  F   UNL     1      43.183   6.630  11.211  0.00  0.00    +0.000 F 
ATOM      9  F   UNL     1      42.655   5.275  12.824  0.00  0.00    +0.000 F 
BRANCH   7  10
ATOM     10  C   UNL     1      43.308   4.324  10.757  0.00  0.00    +0.000 C 
BRANCH  10  16
ATOM     11  C   UNL     1      47.536   1.366   6.952  0.00  0.00    +0.000 C 
ATOM     12  C   UNL     1      46.558   2.240   7.654  0.00  0.00    +0.000 A 
ATOM     13  C   UNL     1      45.678   1.775   8.603  0.00  0.00    +0.000 A 
ATOM     14  N   UNL     1      44.764   2.549   9.222  0.00  0.00    +0.000 NA
ATOM     15  C   UNL     1      44.721   3.842   8.869  0.00  0.00    +0.000 A 
ATOM     16  N   UNL     1      43.765   4.680   9.412  0.00  0.00    +0.000 N 
ATOM     17  N   UNL     1      45.554   4.400   7.983  0.00  0.00    +0.000 NA
ATOM     18  C   UNL     1      46.451   3.588   7.391  0.00  0.00    +0.000 A 
ATOM     19  H   UNL     1      44.065   5.639   9.275  0.00  0.00    +0.000 HD
ENDBRANCH  10  16
ENDBRANCH   7  10
ENDBRANCH   1   7
BRANCH   5  20
ATOM     20  N   UNL     1      47.087   4.106  15.042  0.00  0.00    +0.000 N 
ATOM     21  H   UNL     1      46.718   3.166  14.896  0.00  0.00    +0.000 HD
BRANCH  20  22
ATOM     22  C   UNL     1      47.007   4.501  16.426  0.00  0.00    +0.000 C 
ATOM     23  C   UNL     1      48.281   5.193  16.956  0.00  0.00    +0.000 C 
ATOM     24  N   UNL     1      48.255   4.222  18.036  0.00  0.00    +0.000 N 
ATOM     25  C   UNL     1      48.717   4.322  19.304  0.00  0.00    +0.000 C 
ATOM     26  N   UNL     1      48.437   3.257  20.098  0.00  0.00    +0.000 N 
ATOM     27  O   UNL     1      49.334   5.282  19.743  0.00  0.00    +0.000 OA
ATOM     28  C   UNL     1      47.337   3.323  17.373  0.00  0.00    +0.000 C 
ATOM     29  H   UNL     1      48.423   2.350  19.657  0.00  0.00    +0.000 HD
ATOM     30  H   UNL     1      48.899   3.296  20.998  0.00  0.00    +0.000 HD
ENDBRANCH  20  22
ENDBRANCH   5  20
TORSDOF 5
ENDMDL
MODEL 2
REMARK VINA RESULT:    -8.744      3.354      8.428
REMARK INTER + INTRA:         -12.019
REMARK INTER:                 -11.523
REMARK INTRA:                  -0.495
REMARK UNBOUND:                -0.719
REMARK  Name = 
REMARK  6 active torsions:
REMARK  status: ('A' for Active; 'I' for Inactive)
REMARK    1  A    between atoms: C_1  and  C_2
REMARK    2  A    between atoms: N_6  and  C_7
REMARK    3  A    between atoms: C_7  and  C_8
REMARK    4  A    between atoms: C_8  and  C_11
REMARK    5  A    between atoms: C_15  and  N_16
REMARK    6  A    between atoms: N_16  and  C_17
REMARK                            x       y       z     vdW  Elec       q    Type
REMARK                         _______ _______ _______ _____ _____    ______ ____
ROOT
ATOM      1  C   UNL     1      45.468   4.588  12.594  0.00  0.00    +0.000 A 
ATOM      2  C   UNL     1      44.244   4.662  13.277  0.00  0.00    +0.000 A 
ATOM      3  C   UNL     1      43.041   4.772  12.579  0.00  0.00    +0.000 A 
ATOM      4  C   UNL     1      43.036   4.801  11.182  0.00  0.00    +0.000 A 
ATOM      5  C   UNL     1      44.235   4.727  10.477  0.00  0.00    +0.000 A 
ATOM      6  C   UNL     1      45.440   4.624  11.191  0.00  0.00    +0.000 A 
ENDROOT
BRANCH   1   7
ATOM      7  C   UNL     1      46.750   4.500  13.411  0.00  0.00    +0.000 C 
ATOM      8  F   UNL     1      47.686   5.386  12.943  0.00  0.00    +0.000 F 
ATOM      9  F   UNL     1      47.325   3.266  13.250  0.00  0.00    +0.000 F 
BRANCH   7  10
ATOM     10  C   UNL     1      46.591   4.763  14.931  0.00  0.00    +0.000 C 
BRANCH  10  16
ATOM     11  C   UNL     1      51.883   3.608  18.361  0.00  0.00    +0.000 C 
ATOM     12  C   UNL     1      50.590   3.631  17.625  0.00  0.00    +0.000 A 
ATOM     13  C   UNL     1      49.928   4.791  17.299  0.00  0.00    +0.000 A 
ATOM     14  N   UNL     1      48.741   4.826  16.663  0.00  0.00    +0.000 NA
ATOM     15  C   UNL     1      48.185   3.646  16.347  0.00  0.00    +0.000 A 
ATOM     16  N   UNL     1      46.937   3.602  15.755  0.00  0.00    +0.000 N 
ATOM     17  N   UNL     1      48.761   2.463  16.588  0.00  0.00    +0.000 NA
ATOM     18  C   UNL     1      49.948   2.479  17.225  0.00  0.00    +0.000 A 
ATOM     19  H   UNL     1      46.818   2.691  15.325  0.00  0.00    +0.000 HD
ENDBRANCH  10  16
ENDBRANCH   7  10
ENDBRANCH   1   7
BRANCH   5  20
ATOM     20  N   UNL     1      44.322   4.780   9.069  0.00  0.00    +0.000 N 
ATOM     21  H   UNL     1      43.554   5.355   8.721  0.00  0.00    +0.000 HD
BRANCH  20  22
ATOM     22  C   UNL     1      44.594   3.667   8.195  0.00  0.00    +0.000 C 
ATOM     23  C   UNL     1      44.966   2.363   8.934  0.00  0.00    +0.000 C 
ATOM     24  N   UNL     1      46.143   2.319   8.085  0.00  0.00    +0.000 N 
ATOM     25  C   UNL     1      46.860   1.257   7.651  0.00  0.00    +0.000 C 
ATOM     26  N   UNL     1      47.852   1.558   6.775  0.00  0.00    +0.000 N 
ATOM     27  O   UNL     1      46.657   0.099   7.988  0.00  0.00    +0.000 OA
ATOM     28  C   UNL     1      46.049   3.700   7.668  0.00  0.00    +0.000 C 
ATOM     29  H   UNL     1      48.323   2.441   6.904  0.00  0.00    +0.000 HD
ATOM     30  H   UNL     1      48.454   0.772   6.563  0.00  0.00    +0.000 HD
ENDBRANCH  20  22
ENDBRANCH   5  20
TORSDOF 5
ENDMDL
MODEL 3
REMARK VINA RESULT:    -8.429      3.229      8.635
REMARK INTER + INTRA:         -11.611
REMARK INTER:                 -11.096
REMARK INTRA:                  -0.515
REMARK UNBOUND:                -0.719
REMARK  Name = 
REMARK  6 active torsions:
REMARK  status: ('A' for Active; 'I' for Inactive)
REMARK    1  A    between atoms: C_1  and  C_2
REMARK    2  A    between atoms: N_6  and  C_7
REMARK    3  A    between atoms: C_7  and  C_8
REMARK    4  A    between atoms: C_8  and  C_11
REMARK    5  A    between atoms: C_15  and  N_16
REMARK    6  A    between atoms: N_16  and  C_17
REMARK                            x       y       z     vdW  Elec       q    Type
REMARK                         _______ _______ _______ _____ _____    ______ ____
ROOT
ATOM      1  C   UNL     1      45.492   5.253  12.163  0.00  0.00    +0.000 A 
ATOM      2  C   UNL     1      44.628   4.510  12.983  0.00  0.00    +0.000 A 
ATOM      3  C   UNL     1      43.617   3.723  12.428  0.00  0.00    +0.000 A 
ATOM      4  C   UNL     1      43.456   3.656  11.043  0.00  0.00    +0.000 A 
ATOM      5  C   UNL     1      44.300   4.381  10.204  0.00  0.00    +0.000 A 
ATOM      6  C   UNL     1      45.308   5.175  10.774  0.00  0.00    +0.000 A 
ENDROOT
BRANCH   1   7
ATOM      7  C   UNL     1      46.556   6.116  12.827  0.00  0.00    +0.000 C 
ATOM      8  F   UNL     1      46.010   7.282  13.301  0.00  0.00    +0.000 F 
ATOM      9  F   UNL     1      47.482   6.516  11.899  0.00  0.00    +0.000 F 
BRANCH   7  10
ATOM     10  C   UNL     1      47.313   5.453  14.008  0.00  0.00    +0.000 C 
BRANCH  10  16
ATOM     11  C   UNL     1      49.908   4.828  19.837  0.00  0.00    +0.000 C 
ATOM     12  C   UNL     1      49.385   5.221  18.500  0.00  0.00    +0.000 A 
ATOM     13  C   UNL     1      49.118   4.316  17.500  0.00  0.00    +0.000 A 
ATOM     14  N   UNL     1      48.677   4.660  16.274  0.00  0.00    +0.000 NA
ATOM     15  C   UNL     1      48.505   5.969  16.033  0.00  0.00    +0.000 A 
ATOM     16  N   UNL     1      48.121   6.400  14.778  0.00  0.00    +0.000 N 
ATOM     17  N   UNL     1      48.704   6.926  16.946  0.00  0.00    +0.000 NA
ATOM     18  C   UNL     1      49.143   6.533  18.158  0.00  0.00    +0.000 A 
ATOM     19  H   UNL     1      47.756   7.343  14.861  0.00  0.00    +0.000 HD
ENDBRANCH  10  16
ENDBRANCH   7  10
ENDBRANCH   1   7
BRANCH   5  20
ATOM     20  N   UNL     1      44.187   4.393   8.797  0.00  0.00    +0.000 N 
ATOM     21  H   UNL     1      43.245   4.698   8.552  0.00  0.00    +0.000 HD
BRANCH  20  22
ATOM     22  C   UNL     1      44.666   3.372   7.900  0.00  0.00    +0.000 C 
ATOM     23  C   UNL     1      45.258   2.137   8.612  0.00  0.00    +0.000 C 
ATOM     24  N   UNL     1      46.434   2.329   7.783  0.00  0.00    +0.000 N 
ATOM     25  C   UNL     1      47.337   1.425   7.335  0.00  0.00    +0.000 C 
ATOM     26  N   UNL     1      48.269   1.925   6.483  0.00  0.00    +0.000 N 
ATOM     27  O   UNL     1      47.342   0.241   7.639  0.00  0.00    +0.000 OA
ATOM     28  C   UNL     1      46.097   3.682   7.399  0.00  0.00    +0.000 C 
ATOM     29  H   UNL     1      48.571   2.874   6.643  0.00  0.00    +0.000 HD
ATOM     30  H   UNL     1      49.005   1.266   6.262  0.00  0.00    +0.000 HD
ENDBRANCH  20  22
ENDBRANCH   5  20
TORSDOF 5
ENDMDL
MODEL 4
REMARK VINA RESULT:    -8.405      3.327      8.375
REMARK INTER + INTRA:         -11.580
REMARK INTER:                 -11.065
REMARK INTRA:                  -0.515
REMARK UNBOUND:                -0.719
REMARK  Name = 
REMARK  6 active torsions:
REMARK  status: ('A' for Active; 'I' for Inactive)
REMARK    1  A    between atoms: C_1  and  C_2
REMARK    2  A    between atoms: N_6  and  C_7
REMARK    3  A    between atoms: C_7  and  C_8
REMARK    4  A    between atoms: C_8  and  C_11
REMARK    5  A    between atoms: C_15  and  N_16
REMARK    6  A    between atoms: N_16  and  C_17
REMARK                            x       y       z     vdW  Elec       q    Type
REMARK                         _______ _______ _______ _____ _____    ______ ____
ROOT
ATOM      1  C   UNL     1      45.431   5.739  11.773  0.00  0.00    +0.000 A 
ATOM      2  C   UNL     1      44.187   6.386  11.840  0.00  0.00    +0.000 A 
ATOM      3  C   UNL     1      43.032   5.766  11.361  0.00  0.00    +0.000 A 
ATOM      4  C   UNL     1      43.095   4.483  10.815  0.00  0.00    +0.000 A 
ATOM      5  C   UNL     1      44.316   3.816  10.736  0.00  0.00    +0.000 A 
ATOM      6  C   UNL     1      45.472   4.452  11.214  0.00  0.00    +0.000 A 
ENDROOT
BRANCH   1   7
ATOM      7  C   UNL     1      46.660   6.478  12.283  0.00  0.00    +0.000 C 
ATOM      8  F   UNL     1      46.309   7.687  12.829  0.00  0.00    +0.000 F 
ATOM      9  F   UNL     1      47.485   6.795  11.236  0.00  0.00    +0.000 F 
BRANCH   7  10
ATOM     10  C   UNL     1      47.500   5.723  13.346  0.00  0.00    +0.000 C 
BRANCH  10  16
ATOM     11  C   UNL     1      49.015   3.840  19.285  0.00  0.00    +0.000 C 
ATOM     12  C   UNL     1      48.441   4.147  17.947  0.00  0.00    +0.000 A 
ATOM     13  C   UNL     1      48.862   5.201  17.170  0.00  0.00    +0.000 A 
ATOM     14  N   UNL     1      48.329   5.511  15.972  0.00  0.00    +0.000 NA
ATOM     15  C   UNL     1      47.321   4.740  15.536  0.00  0.00    +0.000 A 
ATOM     16  N   UNL     1      46.680   5.040  14.349  0.00  0.00    +0.000 N 
ATOM     17  N   UNL     1      46.859   3.674  16.198  0.00  0.00    +0.000 NA
ATOM     18  C   UNL     1      47.425   3.402  17.391  0.00  0.00    +0.000 A 
ATOM     19  H   UNL     1      46.179   4.214  14.038  0.00  0.00    +0.000 HD
ENDBRANCH  10  16
ENDBRANCH   7  10
ENDBRANCH   1   7
BRANCH   5  20
ATOM     20  N   UNL     1      44.473   2.531  10.172  0.00  0.00    +0.000 N 
ATOM     21  H   UNL     1      45.072   1.980  10.786  0.00  0.00    +0.000 HD
BRANCH  20  22
ATOM     22  C   UNL     1      44.722   2.241   8.783  0.00  0.00    +0.000 C 
ATOM     23  C   UNL     1      46.011   1.430   8.531  0.00  0.00    +0.000 C 
ATOM     24  N   UNL     1      46.374   2.465   7.580  0.00  0.00    +0.000 N 
ATOM     25  C   UNL     1      47.143   2.390   6.468  0.00  0.00    +0.000 C 
ATOM     26  N   UNL     1      47.196   3.531   5.735  0.00  0.00    +0.000 N 
ATOM     27  O   UNL     1      47.750   1.391   6.111  0.00  0.00    +0.000 OA
ATOM     28  C   UNL     1      45.412   3.427   8.068  0.00  0.00    +0.000 C 
ATOM     29  H   UNL     1      47.161   4.402   6.243  0.00  0.00    +0.000 HD
ATOM     30  H   UNL     1      47.873   3.494   4.983  0.00  0.00    +0.000 HD
ENDBRANCH  20  22
ENDBRANCH   5  20
TORSDOF 5
ENDMDL
MODEL 5
REMARK VINA RESULT:    -8.220      3.385      4.397
REMARK INTER + INTRA:         -11.341
REMARK INTER:                 -10.590
REMARK INTRA:                  -0.751
REMARK UNBOUND:                -0.719
REMARK  Name = 
REMARK  6 active torsions:
REMARK  status: ('A' for Active; 'I' for Inactive)
REMARK    1  A    between atoms: C_1  and  C_2
REMARK    2  A    between atoms: N_6  and  C_7
REMARK    3  A    between atoms: C_7  and  C_8
REMARK    4  A    between atoms: C_8  and  C_11
REMARK    5  A    between atoms: C_15  and  N_16
REMARK    6  A    between atoms: N_16  and  C_17
REMARK                            x       y       z     vdW  Elec       q    Type
REMARK                         _______ _______ _______ _____ _____    ______ ____
ROOT
ATOM      1  C   UNL     1      44.857   5.541  12.569  0.00  0.00    +0.000 A 
ATOM      2  C   UNL     1      45.485   4.374  13.031  0.00  0.00    +0.000 A 
ATOM      3  C   UNL     1      46.743   4.430  13.636  0.00  0.00    +0.000 A 
ATOM      4  C   UNL     1      47.393   5.655  13.798  0.00  0.00    +0.000 A 
ATOM      5  C   UNL     1      46.793   6.830  13.350  0.00  0.00    +0.000 A 
ATOM      6  C   UNL     1      45.532   6.761  12.737  0.00  0.00    +0.000 A 
ENDROOT
BRANCH   1   7
ATOM      7  C   UNL     1      43.500   5.413  11.891  0.00  0.00    +0.000 C 
ATOM      8  F   UNL     1      43.167   6.577  11.246  0.00  0.00    +0.000 F 
ATOM      9  F   UNL     1      42.519   5.243  12.833  0.00  0.00    +0.000 F 
BRANCH   7  10
ATOM     10  C   UNL     1      43.378   4.265  10.855  0.00  0.00    +0.000 C 
BRANCH  10  16
ATOM     11  C   UNL     1      47.543   1.437   6.885  0.00  0.00    +0.000 C 
ATOM     12  C   UNL     1      46.573   2.286   7.630  0.00  0.00    +0.000 A 
ATOM     13  C   UNL     1      45.719   1.791   8.588  0.00  0.00    +0.000 A 
ATOM     14  N   UNL     1      44.813   2.540   9.246  0.00  0.00    +0.000 NA
ATOM     15  C   UNL     1      44.751   3.842   8.925  0.00  0.00    +0.000 A 
ATOM     16  N   UNL     1      43.800   4.657   9.509  0.00  0.00    +0.000 N 
ATOM     17  N   UNL     1      45.558   4.428   8.033  0.00  0.00    +0.000 NA
ATOM     18  C   UNL     1      46.448   3.638   7.402  0.00  0.00    +0.000 A 
ATOM     19  H   UNL     1      44.089   5.622   9.388  0.00  0.00    +0.000 HD
ENDBRANCH  10  16
ENDBRANCH   7  10
ENDBRANCH   1   7
BRANCH   5  20
ATOM     20  N   UNL     1      47.394   8.104  13.447  0.00  0.00    +0.000 N 
ATOM     21  H   UNL     1      46.659   8.797  13.593  0.00  0.00    +0.000 HD
BRANCH  20  22
ATOM     22  C   UNL     1      48.445   8.612  12.603  0.00  0.00    +0.000 C 
ATOM     23  C   UNL     1      48.876   7.642  11.482  0.00  0.00    +0.000 C 
ATOM     24  N   UNL     1      50.233   7.822  11.965  0.00  0.00    +0.000 N 
ATOM     25  C   UNL     1      51.408   7.741  11.299  0.00  0.00    +0.000 C 
ATOM     26  N   UNL     1      52.503   8.073  12.031  0.00  0.00    +0.000 N 
ATOM     27  O   UNL     1      51.520   7.409  10.127  0.00  0.00    +0.000 OA
ATOM     28  C   UNL     1      49.840   8.389  13.235  0.00  0.00    +0.000 C 
ATOM     29  H   UNL     1      52.484   7.838  13.011  0.00  0.00    +0.000 HD
ATOM     30  H   UNL     1      53.376   7.884  11.555  0.00  0.00    +0.000 HD
ENDBRANCH  20  22
ENDBRANCH   5  20
TORSDOF 5
ENDMDL
MODEL 6
REMARK VINA RESULT:    -7.768      4.312      8.457
REMARK INTER + INTRA:         -10.757
REMARK INTER:                 -10.127
REMARK INTRA:                  -0.629
REMARK UNBOUND:                -0.719
REMARK  Name = 
REMARK  6 active torsions:
REMARK  status: ('A' for Active; 'I' for Inactive)
REMARK    1  A    between atoms: C_1  and  C_2
REMARK    2  A    between atoms: N_6  and  C_7
REMARK    3  A    between atoms: C_7  and  C_8
REMARK    4  A    between atoms: C_8  and  C_11
REMARK    5  A    between atoms: C_15  and  N_16
REMARK    6  A    between atoms: N_16  and  C_17
REMARK                            x       y       z     vdW  Elec       q    Type
REMARK                         _______ _______ _______ _____ _____    ______ ____
ROOT
ATOM      1  C   UNL     1      45.629   5.479  12.002  0.00  0.00    +0.000 A 
ATOM      2  C   UNL     1      44.876   4.714  12.907  0.00  0.00    +0.000 A 
ATOM      3  C   UNL     1      43.892   3.833  12.453  0.00  0.00    +0.000 A 
ATOM      4  C   UNL     1      43.649   3.692  11.085  0.00  0.00    +0.000 A 
ATOM      5  C   UNL     1      44.382   4.437  10.164  0.00  0.00    +0.000 A 
ATOM      6  C   UNL     1      45.363   5.325  10.632  0.00  0.00    +0.000 A 
ENDROOT
BRANCH   1   7
ATOM      7  C   UNL     1      46.666   6.445  12.558  0.00  0.00    +0.000 C 
ATOM      8  F   UNL     1      47.741   6.545  11.711  0.00  0.00    +0.000 F 
ATOM      9  F   UNL     1      47.188   5.952  13.726  0.00  0.00    +0.000 F 
BRANCH   7  10
ATOM     10  C   UNL     1      46.159   7.886  12.827  0.00  0.00    +0.000 C 
BRANCH  10  16
ATOM     11  C   UNL     1      51.413  11.514  13.409  0.00  0.00    +0.000 C 
ATOM     12  C   UNL     1      50.191  10.674  13.535  0.00  0.00    +0.000 A 
ATOM     13  C   UNL     1      49.271  10.525  12.523  0.00  0.00    +0.000 A 
ATOM     14  N   UNL     1      48.144   9.796  12.634  0.00  0.00    +0.000 NA
ATOM     15  C   UNL     1      47.920   9.197  13.814  0.00  0.00    +0.000 A 
ATOM     16  N   UNL     1      46.751   8.490  14.023  0.00  0.00    +0.000 N 
ATOM     17  N   UNL     1      48.765   9.252  14.849  0.00  0.00    +0.000 NA
ATOM     18  C   UNL     1      49.880   9.992  14.690  0.00  0.00    +0.000 A 
ATOM     19  H   UNL     1      46.887   7.877  14.820  0.00  0.00    +0.000 HD
ENDBRANCH  10  16
ENDBRANCH   7  10
ENDBRANCH   1   7
BRANCH   5  20
ATOM     20  N   UNL     1      44.180   4.377   8.768  0.00  0.00    +0.000 N 
ATOM     21  H   UNL     1      43.208   4.620   8.573  0.00  0.00    +0.000 HD
BRANCH  20  22
ATOM     22  C   UNL     1      44.658   3.343   7.886  0.00  0.00    +0.000 C 
ATOM     23  C   UNL     1      45.291   2.138   8.614  0.00  0.00    +0.000 C 
ATOM     24  N   UNL     1      46.444   2.332   7.753  0.00  0.00    +0.000 N 
ATOM     25  C   UNL     1      47.353   1.435   7.306  0.00  0.00    +0.000 C 
ATOM     26  N   UNL     1      48.255   1.930   6.421  0.00  0.00    +0.000 N 
ATOM     27  O   UNL     1      47.389   0.259   7.641  0.00  0.00    +0.000 OA
ATOM     28  C   UNL     1      46.071   3.668   7.344  0.00  0.00    +0.000 C 
ATOM     29  H   UNL     1      48.542   2.889   6.550  0.00  0.00    +0.000 HD
ATOM     30  H   UNL     1      48.999   1.280   6.199  0.00  0.00    +0.000 HD
ENDBRANCH  20  22
ENDBRANCH   5  20
TORSDOF 5
ENDMDL
MODEL 7
REMARK VINA RESULT:    -7.610      3.010      3.487
REMARK INTER + INTRA:         -10.552
REMARK INTER:                 -10.124
REMARK INTRA:                  -0.429
REMARK UNBOUND:                -0.719
REMARK  Name = 
REMARK  6 active torsions:
REMARK  status: ('A' for Active; 'I' for Inactive)
REMARK    1  A    between atoms: C_1  and  C_2
REMARK    2  A    between atoms: N_6  and  C_7
REMARK    3  A    between atoms: C_7  and  C_8
REMARK    4  A    between atoms: C_8  and  C_11
REMARK    5  A    between atoms: C_15  and  N_16
REMARK    6  A    between atoms: N_16  and  C_17
REMARK                            x       y       z     vdW  Elec       q    Type
REMARK                         _______ _______ _______ _____ _____    ______ ____
ROOT
ATOM      1  C   UNL     1      44.681   5.138  11.987  0.00  0.00    +0.000 A 
ATOM      2  C   UNL     1      43.630   5.976  11.581  0.00  0.00    +0.000 A 
ATOM      3  C   UNL     1      43.834   7.346  11.407  0.00  0.00    +0.000 A 
ATOM      4  C   UNL     1      45.095   7.905  11.626  0.00  0.00    +0.000 A 
ATOM      5  C   UNL     1      46.157   7.097  12.029  0.00  0.00    +0.000 A 
ATOM      6  C   UNL     1      45.938   5.722  12.208  0.00  0.00    +0.000 A 
ENDROOT
BRANCH   1   7
ATOM      7  C   UNL     1      44.389   3.658  12.190  0.00  0.00    +0.000 C 
ATOM      8  F   UNL     1      43.415   3.480  13.139  0.00  0.00    +0.000 F 
ATOM      9  F   UNL     1      45.494   3.028  12.701  0.00  0.00    +0.000 F 
BRANCH   7  10
ATOM     10  C   UNL     1      43.939   2.887  10.921  0.00  0.00    +0.000 C 
BRANCH  10  16
ATOM     11  C   UNL     1      47.990   2.063   6.021  0.00  0.00    +0.000 C 
ATOM     12  C   UNL     1      46.986   2.476   7.038  0.00  0.00    +0.000 A 
ATOM     13  C   UNL     1      46.384   1.594   7.905  0.00  0.00    +0.000 A 
ATOM     14  N   UNL     1      45.448   1.949   8.807  0.00  0.00    +0.000 NA
ATOM     15  C   UNL     1      45.091   3.242   8.839  0.00  0.00    +0.000 A 
ATOM     16  N   UNL     1      44.089   3.666   9.691  0.00  0.00    +0.000 N 
ATOM     17  N   UNL     1      45.639   4.184   8.064  0.00  0.00    +0.000 NA
ATOM     18  C   UNL     1      46.571   3.782   7.177  0.00  0.00    +0.000 A 
ATOM     19  H   UNL     1      44.165   4.672   9.799  0.00  0.00    +0.000 HD
ENDBRANCH  10  16
ENDBRANCH   7  10
ENDBRANCH   1   7
BRANCH   5  20
ATOM     20  N   UNL     1      47.453   7.585  12.301  0.00  0.00    +0.000 N 
ATOM     21  H   UNL     1      47.818   8.021  11.454  0.00  0.00    +0.000 HD
BRANCH  20  22
ATOM     22  C   UNL     1      48.484   6.891  13.030  0.00  0.00    +0.000 C 
ATOM     23  C   UNL     1      48.537   7.242  14.533  0.00  0.00    +0.000 C 
ATOM     24  N   UNL     1      49.948   7.522  14.329  0.00  0.00    +0.000 N 
ATOM     25  C   UNL     1      50.982   7.439  15.198  0.00  0.00    +0.000 C 
ATOM     26  N   UNL     1      52.204   7.672  14.653  0.00  0.00    +0.000 N 
ATOM     27  O   UNL     1      50.871   7.168  16.385  0.00  0.00    +0.000 OA
ATOM     28  C   UNL     1      49.854   7.596  12.889  0.00  0.00    +0.000 C 
ATOM     29  H   UNL     1      52.249   8.350  13.908  0.00  0.00    +0.000 HD
ATOM     30  H   UNL     1      52.945   7.731  15.340  0.00  0.00    +0.000 HD
ENDBRANCH  20  22
ENDBRANCH   5  20
TORSDOF 5
ENDMDL
MODEL 8
REMARK VINA RESULT:    -7.512      4.413      8.138
REMARK INTER + INTRA:         -10.427
REMARK INTER:                  -9.958
REMARK INTRA:                  -0.468
REMARK UNBOUND:                -0.719
REMARK  Name = 
REMARK  6 active torsions:
REMARK  status: ('A' for Active; 'I' for Inactive)
REMARK    1  A    between atoms: C_1  and  C_2
REMARK    2  A    between atoms: N_6  and  C_7
REMARK    3  A    between atoms: C_7  and  C_8
REMARK    4  A    between atoms: C_8  and  C_11
REMARK    5  A    between atoms: C_15  and  N_16
REMARK    6  A    between atoms: N_16  and  C_17
REMARK                            x       y       z     vdW  Elec       q    Type
REMARK                         _______ _______ _______ _____ _____    ______ ____
ROOT
ATOM      1  C   UNL     1      45.862   5.468  12.142  0.00  0.00    +0.000 A 
ATOM      2  C   UNL     1      45.373   4.444  12.969  0.00  0.00    +0.000 A 
ATOM      3  C   UNL     1      44.572   3.426  12.448  0.00  0.00    +0.000 A 
ATOM      4  C   UNL     1      44.252   3.406  11.089  0.00  0.00    +0.000 A 
ATOM      5  C   UNL     1      44.724   4.409  10.245  0.00  0.00    +0.000 A 
ATOM      6  C   UNL     1      45.522   5.432  10.781  0.00  0.00    +0.000 A 
ENDROOT
BRANCH   1   7
ATOM      7  C   UNL     1      46.705   6.568  12.773  0.00  0.00    +0.000 C 
ATOM      8  F   UNL     1      47.143   6.191  14.017  0.00  0.00    +0.000 F 
ATOM      9  F   UNL     1      45.934   7.679  12.997  0.00  0.00    +0.000 F 
BRANCH   7  10
ATOM     10  C   UNL     1      47.952   7.002  11.960  0.00  0.00    +0.000 C 
BRANCH  10  16
ATOM     11  C   UNL     1      54.147   8.491  11.244  0.00  0.00    +0.000 C 
ATOM     12  C   UNL     1      52.716   8.313  11.610  0.00  0.00    +0.000 A 
ATOM     13  C   UNL     1      51.770   7.827  10.738  0.00  0.00    +0.000 A 
ATOM     14  N   UNL     1      50.464   7.693  11.045  0.00  0.00    +0.000 NA
ATOM     15  C   UNL     1      50.086   8.070  12.276  0.00  0.00    +0.000 A 
ATOM     16  N   UNL     1      48.753   8.024  12.637  0.00  0.00    +0.000 N 
ATOM     17  N   UNL     1      50.931   8.522  13.208  0.00  0.00    +0.000 NA
ATOM     18  C   UNL     1      52.226   8.638  12.856  0.00  0.00    +0.000 A 
ATOM     19  H   UNL     1      48.695   8.047  13.650  0.00  0.00    +0.000 HD
ENDBRANCH  10  16
ENDBRANCH   7  10
ENDBRANCH   1   7
BRANCH   5  20
ATOM     20  N   UNL     1      44.422   4.480   8.867  0.00  0.00    +0.000 N 
ATOM     21  H   UNL     1      43.415   4.603   8.764  0.00  0.00    +0.000 HD
BRANCH  20  22
ATOM     22  C   UNL     1      44.964   3.632   7.836  0.00  0.00    +0.000 C 
ATOM     23  C   UNL     1      45.622   2.340   8.366  0.00  0.00    +0.000 C 
ATOM     24  N   UNL     1      46.790   2.718   7.591  0.00  0.00    +0.000 N 
ATOM     25  C   UNL     1      47.744   1.943   7.027  0.00  0.00    +0.000 C 
ATOM     26  N   UNL     1      48.651   2.614   6.271  0.00  0.00    +0.000 N 
ATOM     27  O   UNL     1      47.816   0.729   7.154  0.00  0.00    +0.000 OA
ATOM     28  C   UNL     1      46.378   4.091   7.406  0.00  0.00    +0.000 C 
ATOM     29  H   UNL     1      48.897   3.544   6.573  0.00  0.00    +0.000 HD
ATOM     30  H   UNL     1      49.425   2.037   5.965  0.00  0.00    +0.000 HD
ENDBRANCH  20  22
ENDBRANCH   5  20
TORSDOF 5
ENDMDL
MODEL 9
REMARK VINA RESULT:    -7.462      3.653      8.546
REMARK INTER + INTRA:         -10.362
REMARK INTER:                  -9.816
REMARK INTRA:                  -0.546
REMARK UNBOUND:                -0.719
REMARK  Name = 
REMARK  6 active torsions:
REMARK  status: ('A' for Active; 'I' for Inactive)
REMARK    1  A    between atoms: C_1  and  C_2
REMARK    2  A    between atoms: N_6  and  C_7
REMARK    3  A    between atoms: C_7  and  C_8
REMARK    4  A    between atoms: C_8  and  C_11
REMARK    5  A    between atoms: C_15  and  N_16
REMARK    6  A    between atoms: N_16  and  C_17
REMARK                            x       y       z     vdW  Elec       q    Type
REMARK                         _______ _______ _______ _____ _____    ______ ____
ROOT
ATOM      1  C   UNL     1      45.267   5.633  12.039  0.00  0.00    +0.000 A 
ATOM      2  C   UNL     1      43.973   6.166  12.161  0.00  0.00    +0.000 A 
ATOM      3  C   UNL     1      42.865   5.472  11.672  0.00  0.00    +0.000 A 
ATOM      4  C   UNL     1      43.026   4.227  11.060  0.00  0.00    +0.000 A 
ATOM      5  C   UNL     1      44.298   3.674  10.926  0.00  0.00    +0.000 A 
ATOM      6  C   UNL     1      45.406   4.384  11.414  0.00  0.00    +0.000 A 
ENDROOT
BRANCH   1   7
ATOM      7  C   UNL     1      46.439   6.451  12.564  0.00  0.00    +0.000 C 
ATOM      8  F   UNL     1      45.996   7.505  13.321  0.00  0.00    +0.000 F 
ATOM      9  F   UNL     1      47.112   7.030  11.520  0.00  0.00    +0.000 F 
BRANCH   7  10
ATOM     10  C   UNL     1      47.465   5.669  13.425  0.00  0.00    +0.000 C 
BRANCH  10  16
ATOM     11  C   UNL     1      52.346   7.866  16.954  0.00  0.00    +0.000 C 
ATOM     12  C   UNL     1      51.080   7.357  16.359  0.00  0.00    +0.000 A 
ATOM     13  C   UNL     1      50.788   7.449  15.019  0.00  0.00    +0.000 A 
ATOM     14  N   UNL     1      49.632   7.024  14.472  0.00  0.00    +0.000 NA
ATOM     15  C   UNL     1      48.723   6.493  15.304  0.00  0.00    +0.000 A 
ATOM     16  N   UNL     1      47.488   6.099  14.824  0.00  0.00    +0.000 N 
ATOM     17  N   UNL     1      48.922   6.328  16.616  0.00  0.00    +0.000 NA
ATOM     18  C   UNL     1      50.093   6.767  17.117  0.00  0.00    +0.000 A 
ATOM     19  H   UNL     1      47.070   5.466  15.499  0.00  0.00    +0.000 HD
ENDBRANCH  10  16
ENDBRANCH   7  10
ENDBRANCH   1   7
BRANCH   5  20
ATOM     20  N   UNL     1      44.552   2.437  10.294  0.00  0.00    +0.000 N 
ATOM     21  H   UNL     1      45.251   1.934  10.840  0.00  0.00    +0.000 HD
BRANCH  20  22
ATOM     22  C   UNL     1      44.729   2.229   8.879  0.00  0.00    +0.000 C 
ATOM     23  C   UNL     1      45.978   1.396   8.517  0.00  0.00    +0.000 C 
ATOM     24  N   UNL     1      46.333   2.479   7.617  0.00  0.00    +0.000 N 
ATOM     25  C   UNL     1      47.048   2.452   6.469  0.00  0.00    +0.000 C 
ATOM     26  N   UNL     1      47.108   3.636   5.807  0.00  0.00    +0.000 N 
ATOM     27  O   UNL     1      47.605   1.459   6.021  0.00  0.00    +0.000 OA
ATOM     28  C   UNL     1      45.427   3.437   8.210  0.00  0.00    +0.000 C 
ATOM     29  H   UNL     1      47.125   4.473   6.369  0.00  0.00    +0.000 HD
ATOM     30  H   UNL     1      47.749   3.626   5.023  0.00  0.00    +0.000 HD
ENDBRANCH  20  22
ENDBRANCH   5  20
TORSDOF 5
ENDMDL
