MODEL 1
REMARK VINA RESULT:    -8.070      0.000      0.000
REMARK INTER + INTRA:         -11.980
REMARK INTER:                 -10.901
REMARK INTRA:                  -1.079
REMARK UNBOUND:                -1.079
REMARK  Name = 
REMARK  7 active torsions:
REMARK  status: ('A' for Active; 'I' for Inactive)
REMARK    1  A    between atoms: C_1  and  O_2
REMARK    2  A    between atoms: O_2  and  C_3
REMARK    3  A    between atoms: C_8  and  C_9
REMARK    4  A    between atoms: C_9  and  C_10
REMARK    5  A    between atoms: C_13  and  C_14
REMARK    6  A    between atoms: C_14  and  N_15
REMARK    7  A    between atoms: C_16  and  C_18
REMARK                            x       y       z     vdW  Elec       q    Type
REMARK                         _______ _______ _______ _____ _____    ______ ____
ROOT
ATOM      1  C   UNL     1      47.371   8.515  13.635  0.00  0.00    +0.000 C 
ENDROOT
BRANCH   1   5
ATOM      2  C   UNL     1      44.733   6.242  11.075  0.00  0.00    +0.000 A 
ATOM      3  C   UNL     1      45.992   5.739  11.425  0.00  0.00    +0.000 A 
ATOM      4  C   UNL     1      46.870   6.495  12.207  0.00  0.00    +0.000 A 
ATOM      5  C   UNL     1      46.498   7.764  12.668  0.00  0.00    +0.000 A 
ATOM      6  C   UNL     1      45.276   8.303  12.246  0.00  0.00    +0.000 A 
ATOM      7  C   UNL     1      44.399   7.547  11.462  0.00  0.00    +0.000 A 
BRANCH   2   8
ATOM      8  C   UNL     1      43.747   5.377  10.322  0.00  0.00    +0.000 C 
BRANCH   8  14
ATOM      9  C   UNL     1      44.137   2.864   9.990  0.00  0.00    +0.000 A 
ATOM     10  C   UNL     1      44.784   1.820   9.313  0.00  0.00    +0.000 A 
ATOM     11  C   UNL     1      45.652   2.086   8.253  0.00  0.00    +0.000 A 
ATOM     12  C   UNL     1      45.865   3.397   7.842  0.00  0.00    +0.000 A 
ATOM     13  C   UNL     1      45.222   4.443   8.503  0.00  0.00    +0.000 A 
ATOM     14  C   UNL     1      44.365   4.196   9.592  0.00  0.00    +0.000 A 
BRANCH   9  16
ATOM     15  C   UNL     1      43.805   2.777  12.345  0.00  0.00    +0.000 C 
ATOM     16  O   UNL     1      43.265   2.673  11.032  0.00  0.00    +0.000 OA
ENDBRANCH   9  16
ENDBRANCH   8  14
ENDBRANCH   2   8
ENDBRANCH   1   5
BRANCH   1  17
ATOM     17  N   UNL     1      47.688   7.745  14.807  0.00  0.00    +0.000 N 
ATOM     18  C   UNL     1      48.926   7.168  14.942  0.00  0.00    +0.000 C 
ATOM     19  O   UNL     1      49.819   7.345  14.116  0.00  0.00    +0.000 OA
ATOM     20  H   UNL     1      46.911   7.408  15.367  0.00  0.00    +0.000 HD
BRANCH  18  21
ATOM     21  C   UNL     1      49.160   6.378  16.157  0.00  0.00    +0.000 A 
ATOM     22  C   UNL     1      50.162   6.761  17.040  0.00  0.00    +0.000 A 
ATOM     23  S   UNL     1      50.266   5.774  18.426  0.00  0.00    +0.000 S 
ATOM     24  C   UNL     1      49.014   4.765  17.868  0.00  0.00    +0.000 A 
ATOM     25  N   UNL     1      48.613   3.686  18.590  0.00  0.00    +0.000 NA
ATOM     26  C   UNL     1      47.681   2.988  18.032  0.00  0.00    +0.000 A 
ATOM     27  N   UNL     1      47.110   3.273  16.822  0.00  0.00    +0.000 N 
ATOM     28  C   UNL     1      47.464   4.371  16.072  0.00  0.00    +0.000 A 
ATOM     29  O   UNL     1      46.911   4.617  15.006  0.00  0.00    +0.000 OA
ATOM     30  C   UNL     1      48.514   5.184  16.650  0.00  0.00    +0.000 A 
ATOM     31  H   UNL     1      46.380   2.691  16.438  0.00  0.00    +0.000 HD
ENDBRANCH  18  21
ENDBRANCH   1  17
TORSDOF 6
ENDMDL
MODEL 2
REMARK VINA RESULT:    -7.227      1.812      2.100
REMARK INTER + INTRA:         -10.841
REMARK INTER:                  -9.694
REMARK INTRA:                  -1.147
REMARK UNBOUND:                -1.079
REMARK  Name = 
REMARK  7 active torsions:
REMARK  status: ('A' for Active; 'I' for Inactive)
REMARK    1  A    between atoms: C_1  and  O_2
REMARK    2  A    between atoms: O_2  and  C_3
REMARK    3  A    between atoms: C_8  and  C_9
REMARK    4  A    between atoms: C_9  and  C_10
REMARK    5  A    between atoms: C_13  and  C_14
REMARK    6  A    between atoms: C_14  and  N_15
REMARK    7  A    between atoms: C_16  and  C_18
REMARK                            x       y       z     vdW  Elec       q    Type
REMARK                         _______ _______ _______ _____ _____    ______ ____
ROOT
ATOM      1  C   UNL     1      48.716   7.638  14.354  0.00  0.00    +0.000 C 
ENDROOT
BRANCH   1   5
ATOM      2  C   UNL     1      45.611   6.145  11.744  0.00  0.00    +0.000 A 
ATOM      3  C   UNL     1      46.303   5.275  12.596  0.00  0.00    +0.000 A 
ATOM      4  C   UNL     1      47.346   5.744  13.401  0.00  0.00    +0.000 A 
ATOM      5  C   UNL     1      47.705   7.098  13.381  0.00  0.00    +0.000 A 
ATOM      6  C   UNL     1      47.073   7.950  12.465  0.00  0.00    +0.000 A 
ATOM      7  C   UNL     1      46.032   7.479  11.659  0.00  0.00    +0.000 A 
BRANCH   2   8
ATOM      8  C   UNL     1      44.416   5.653  10.958  0.00  0.00    +0.000 C 
BRANCH   8  14
ATOM      9  C   UNL     1      44.126   3.264  10.072  0.00  0.00    +0.000 A 
ATOM     10  C   UNL     1      44.491   2.259   9.165  0.00  0.00    +0.000 A 
ATOM     11  C   UNL     1      45.435   2.507   8.166  0.00  0.00    +0.000 A 
ATOM     12  C   UNL     1      46.006   3.768   8.048  0.00  0.00    +0.000 A 
ATOM     13  C   UNL     1      45.646   4.778   8.940  0.00  0.00    +0.000 A 
ATOM     14  C   UNL     1      44.717   4.539   9.971  0.00  0.00    +0.000 A 
BRANCH   9  16
ATOM     15  C   UNL     1      43.682   2.580  12.308  0.00  0.00    +0.000 C 
ATOM     16  O   UNL     1      43.200   3.093  11.070  0.00  0.00    +0.000 OA
ENDBRANCH   9  16
ENDBRANCH   8  14
ENDBRANCH   2   8
ENDBRANCH   1   5
BRANCH   1  17
ATOM     17  N   UNL     1      48.428   7.267  15.712  0.00  0.00    +0.000 N 
ATOM     18  C   UNL     1      48.891   8.034  16.752  0.00  0.00    +0.000 C 
ATOM     19  O   UNL     1      49.498   9.087  16.564  0.00  0.00    +0.000 OA
ATOM     20  H   UNL     1      48.140   6.309  15.882  0.00  0.00    +0.000 HD
BRANCH  18  21
ATOM     21  C   UNL     1      48.574   7.572  18.109  0.00  0.00    +0.000 A 
ATOM     22  C   UNL     1      48.014   8.458  19.020  0.00  0.00    +0.000 A 
ATOM     23  S   UNL     1      47.653   7.752  20.529  0.00  0.00    +0.000 S 
ATOM     24  C   UNL     1      48.286   6.250  20.038  0.00  0.00    +0.000 A 
ATOM     25  N   UNL     1      48.304   5.189  20.887  0.00  0.00    +0.000 NA
ATOM     26  C   UNL     1      48.846   4.124  20.397  0.00  0.00    +0.000 A 
ATOM     27  N   UNL     1      49.366   4.021  19.135  0.00  0.00    +0.000 N 
ATOM     28  C   UNL     1      49.341   5.060  18.234  0.00  0.00    +0.000 A 
ATOM     29  O   UNL     1      49.787   4.927  17.100  0.00  0.00    +0.000 OA
ATOM     30  C   UNL     1      48.751   6.283  18.737  0.00  0.00    +0.000 A 
ATOM     31  H   UNL     1      49.773   3.158  18.806  0.00  0.00    +0.000 HD
ENDBRANCH  18  21
ENDBRANCH   1  17
TORSDOF 6
ENDMDL
MODEL 3
REMARK VINA RESULT:    -7.179      1.677      2.391
REMARK INTER + INTRA:         -10.776
REMARK INTER:                  -9.833
REMARK INTRA:                  -0.943
REMARK UNBOUND:                -1.079
REMARK  Name = 
REMARK  7 active torsions:
REMARK  status: ('A' for Active; 'I' for Inactive)
REMARK    1  A    between atoms: C_1  and  O_2
REMARK    2  A    between atoms: O_2  and  C_3
REMARK    3  A    between atoms: C_8  and  C_9
REMARK    4  A    between atoms: C_9  and  C_10
REMARK    5  A    between atoms: C_13  and  C_14
REMARK    6  A    between atoms: C_14  and  N_15
REMARK    7  A    between atoms: C_16  and  C_18
REMARK                            x       y       z     vdW  Elec       q    Type
REMARK                         _______ _______ _______ _____ _____    ______ ____
ROOT
ATOM      1  C   UNL     1      47.928   8.052  14.301  0.00  0.00    +0.000 C 
ENDROOT
BRANCH   1   5
ATOM      2  C   UNL     1      45.151   6.273  11.506  0.00  0.00    +0.000 A 
ATOM      3  C   UNL     1      46.177   5.507  12.075  0.00  0.00    +0.000 A 
ATOM      4  C   UNL     1      47.110   6.092  12.936  0.00  0.00    +0.000 A 
ATOM      5  C   UNL     1      47.025   7.453  13.258  0.00  0.00    +0.000 A 
ATOM      6  C   UNL     1      46.054   8.237  12.621  0.00  0.00    +0.000 A 
ATOM      7  C   UNL     1      45.123   7.652  11.758  0.00  0.00    +0.000 A 
BRANCH   2   8
ATOM      8  C   UNL     1      44.083   5.613  10.663  0.00  0.00    +0.000 C 
BRANCH   8  14
ATOM      9  C   UNL     1      44.152   3.127  10.038  0.00  0.00    +0.000 A 
ATOM     10  C   UNL     1      44.684   2.091   9.256  0.00  0.00    +0.000 A 
ATOM     11  C   UNL     1      45.624   2.360   8.260  0.00  0.00    +0.000 A 
ATOM     12  C   UNL     1      46.025   3.668   8.018  0.00  0.00    +0.000 A 
ATOM     13  C   UNL     1      45.498   4.707   8.785  0.00  0.00    +0.000 A 
ATOM     14  C   UNL     1      44.570   4.453   9.812  0.00  0.00    +0.000 A 
BRANCH   9  16
ATOM     15  C   UNL     1      43.716   2.680  12.335  0.00  0.00    +0.000 C 
ATOM     16  O   UNL     1      43.219   2.936  11.026  0.00  0.00    +0.000 OA
ENDBRANCH   9  16
ENDBRANCH   8  14
ENDBRANCH   2   8
ENDBRANCH   1   5
BRANCH   1  17
ATOM     17  N   UNL     1      48.006   7.249  15.491  0.00  0.00    +0.000 N 
ATOM     18  C   UNL     1      49.174   6.606  15.816  0.00  0.00    +0.000 C 
ATOM     19  O   UNL     1      50.200   6.746  15.153  0.00  0.00    +0.000 OA
ATOM     20  H   UNL     1      47.131   6.946  15.907  0.00  0.00    +0.000 HD
BRANCH  18  21
ATOM     21  C   UNL     1      49.163   5.787  17.034  0.00  0.00    +0.000 A 
ATOM     22  C   UNL     1      48.514   4.560  17.027  0.00  0.00    +0.000 A 
ATOM     23  S   UNL     1      48.643   3.709  18.499  0.00  0.00    +0.000 S 
ATOM     24  C   UNL     1      49.522   4.977  19.217  0.00  0.00    +0.000 A 
ATOM     25  N   UNL     1      49.934   4.897  20.510  0.00  0.00    +0.000 NA
ATOM     26  C   UNL     1      50.557   5.944  20.937  0.00  0.00    +0.000 A 
ATOM     27  N   UNL     1      50.812   7.061  20.188  0.00  0.00    +0.000 N 
ATOM     28  C   UNL     1      50.440   7.173  18.869  0.00  0.00    +0.000 A 
ATOM     29  O   UNL     1      50.710   8.174  18.216  0.00  0.00    +0.000 OA
ATOM     30  C   UNL     1      49.728   6.027  18.342  0.00  0.00    +0.000 A 
ATOM     31  H   UNL     1      51.309   7.848  20.577  0.00  0.00    +0.000 HD
ENDBRANCH  18  21
ENDBRANCH   1  17
TORSDOF 6
ENDMDL
MODEL 4
REMARK VINA RESULT:    -6.943      3.783      8.847
REMARK INTER + INTRA:         -10.458
REMARK INTER:                  -9.252
REMARK INTRA:                  -1.206
REMARK UNBOUND:                -1.079
REMARK  Name = 
REMARK  7 active torsions:
REMARK  status: ('A' for Active; 'I' for Inactive)
REMARK    1  A    between atoms: C_1  and  O_2
REMARK    2  A    between atoms: O_2  and  C_3
REMARK    3  A    between atoms: C_8  and  C_9
REMARK    4  A    between atoms: C_9  and  C_10
REMARK    5  A    between atoms: C_13  and  C_14
REMARK    6  A    between atoms: C_14  and  N_15
REMARK    7  A    between atoms: C_16  and  C_18
REMARK                            x       y       z     vdW  Elec       q    Type
REMARK                         _______ _______ _______ _____ _____    ______ ____
ROOT
ATOM      1  C   UNL     1      47.416   3.428  16.533  0.00  0.00    +0.000 C 
ENDROOT
BRANCH   1   5
ATOM      2  C   UNL     1      51.190   4.896  18.042  0.00  0.00    +0.000 A 
ATOM      3  C   UNL     1      51.018   3.535  17.761  0.00  0.00    +0.000 A 
ATOM      4  C   UNL     1      49.782   3.047  17.326  0.00  0.00    +0.000 A 
ATOM      5  C   UNL     1      48.698   3.917  17.147  0.00  0.00    +0.000 A 
ATOM      6  C   UNL     1      48.845   5.261  17.512  0.00  0.00    +0.000 A 
ATOM      7  C   UNL     1      50.081   5.747  17.950  0.00  0.00    +0.000 A 
BRANCH   2   8
ATOM      8  C   UNL     1      52.556   5.432  18.407  0.00  0.00    +0.000 C 
BRANCH   8  14
ATOM      9  C   UNL     1      54.656   4.632  17.171  0.00  0.00    +0.000 A 
ATOM     10  C   UNL     1      55.566   4.779  16.114  0.00  0.00    +0.000 A 
ATOM     11  C   UNL     1      55.385   5.771  15.149  0.00  0.00    +0.000 A 
ATOM     12  C   UNL     1      54.281   6.612  15.216  0.00  0.00    +0.000 A 
ATOM     13  C   UNL     1      53.365   6.471  16.258  0.00  0.00    +0.000 A 
ATOM     14  C   UNL     1      53.545   5.494  17.256  0.00  0.00    +0.000 A 
BRANCH   9  16
ATOM     15  C   UNL     1      54.600   2.320  17.736  0.00  0.00    +0.000 C 
ATOM     16  O   UNL     1      54.766   3.673  18.146  0.00  0.00    +0.000 OA
ENDBRANCH   9  16
ENDBRANCH   8  14
ENDBRANCH   2   8
ENDBRANCH   1   5
BRANCH   1  17
ATOM     17  N   UNL     1      46.811   4.404  15.667  0.00  0.00    +0.000 N 
ATOM     18  C   UNL     1      46.764   4.193  14.312  0.00  0.00    +0.000 C 
ATOM     19  O   UNL     1      47.166   3.149  13.802  0.00  0.00    +0.000 OA
ATOM     20  H   UNL     1      46.690   5.342  16.036  0.00  0.00    +0.000 HD
BRANCH  18  21
ATOM     21  C   UNL     1      46.151   5.249  13.497  0.00  0.00    +0.000 A 
ATOM     22  C   UNL     1      46.836   6.440  13.293  0.00  0.00    +0.000 A 
ATOM     23  S   UNL     1      46.014   7.537  12.279  0.00  0.00    +0.000 S 
ATOM     24  C   UNL     1      44.687   6.483  12.124  0.00  0.00    +0.000 A 
ATOM     25  N   UNL     1      43.601   6.832  11.387  0.00  0.00    +0.000 NA
ATOM     26  C   UNL     1      42.653   5.955  11.385  0.00  0.00    +0.000 A 
ATOM     27  N   UNL     1      42.695   4.759  12.048  0.00  0.00    +0.000 N 
ATOM     28  C   UNL     1      43.786   4.351  12.780  0.00  0.00    +0.000 A 
ATOM     29  O   UNL     1      43.805   3.260  13.337  0.00  0.00    +0.000 OA
ATOM     30  C   UNL     1      44.875   5.305  12.822  0.00  0.00    +0.000 A 
ATOM     31  H   UNL     1      41.923   4.110  12.005  0.00  0.00    +0.000 HD
ENDBRANCH  18  21
ENDBRANCH   1  17
TORSDOF 6
ENDMDL
MODEL 5
REMARK VINA RESULT:    -6.906      1.868      2.705
REMARK INTER + INTRA:         -10.408
REMARK INTER:                  -9.131
REMARK INTRA:                  -1.277
REMARK UNBOUND:                -1.079
REMARK  Name = 
REMARK  7 active torsions:
REMARK  status: ('A' for Active; 'I' for Inactive)
REMARK    1  A    between atoms: C_1  and  O_2
REMARK    2  A    between atoms: O_2  and  C_3
REMARK    3  A    between atoms: C_8  and  C_9
REMARK    4  A    between atoms: C_9  and  C_10
REMARK    5  A    between atoms: C_13  and  C_14
REMARK    6  A    between atoms: C_14  and  N_15
REMARK    7  A    between atoms: C_16  and  C_18
REMARK                            x       y       z     vdW  Elec       q    Type
REMARK                         _______ _______ _______ _____ _____    ______ ____
ROOT
ATOM      1  C   UNL     1      49.011   7.594  13.782  0.00  0.00    +0.000 C 
ENDROOT
BRANCH   1   5
ATOM      2  C   UNL     1      45.471   6.217  11.720  0.00  0.00    +0.000 A 
ATOM      3  C   UNL     1      45.824   7.572  11.699  0.00  0.00    +0.000 A 
ATOM      4  C   UNL     1      46.936   8.030  12.411  0.00  0.00    +0.000 A 
ATOM      5  C   UNL     1      47.728   7.137  13.144  0.00  0.00    +0.000 A 
ATOM      6  C   UNL     1      47.325   5.798  13.236  0.00  0.00    +0.000 A 
ATOM      7  C   UNL     1      46.211   5.342  12.526  0.00  0.00    +0.000 A 
BRANCH   2   8
ATOM      8  C   UNL     1      44.332   5.712  10.862  0.00  0.00    +0.000 C 
BRANCH   8  14
ATOM      9  C   UNL     1      44.143   3.282  10.065  0.00  0.00    +0.000 A 
ATOM     10  C   UNL     1      44.565   2.254   9.209  0.00  0.00    +0.000 A 
ATOM     11  C   UNL     1      45.528   2.493   8.226  0.00  0.00    +0.000 A 
ATOM     12  C   UNL     1      46.062   3.767   8.073  0.00  0.00    +0.000 A 
ATOM     13  C   UNL     1      45.645   4.799   8.914  0.00  0.00    +0.000 A 
ATOM     14  C   UNL     1      44.696   4.570   9.928  0.00  0.00    +0.000 A 
BRANCH   9  16
ATOM     15  C   UNL     1      43.649   2.619  12.297  0.00  0.00    +0.000 C 
ATOM     16  O   UNL     1      43.195   3.119  11.043  0.00  0.00    +0.000 OA
ENDBRANCH   9  16
ENDBRANCH   8  14
ENDBRANCH   2   8
ENDBRANCH   1   5
BRANCH   1  17
ATOM     17  N   UNL     1      49.386   6.785  14.910  0.00  0.00    +0.000 N 
ATOM     18  C   UNL     1      49.123   7.213  16.187  0.00  0.00    +0.000 C 
ATOM     19  O   UNL     1      48.506   8.253  16.410  0.00  0.00    +0.000 OA
ATOM     20  H   UNL     1      50.080   6.061  14.754  0.00  0.00    +0.000 HD
BRANCH  18  21
ATOM     21  C   UNL     1      49.559   6.339  17.282  0.00  0.00    +0.000 A 
ATOM     22  C   UNL     1      48.639   5.927  18.237  0.00  0.00    +0.000 A 
ATOM     23  S   UNL     1      49.291   4.871  19.406  0.00  0.00    +0.000 S 
ATOM     24  C   UNL     1      50.841   4.973  18.711  0.00  0.00    +0.000 A 
ATOM     25  N   UNL     1      51.894   4.306  19.253  0.00  0.00    +0.000 NA
ATOM     26  C   UNL     1      53.018   4.502  18.647  0.00  0.00    +0.000 A 
ATOM     27  N   UNL     1      53.183   5.298  17.546  0.00  0.00    +0.000 N 
ATOM     28  C   UNL     1      52.141   5.966  16.948  0.00  0.00    +0.000 A 
ATOM     29  O   UNL     1      52.316   6.647  15.944  0.00  0.00    +0.000 OA
ATOM     30  C   UNL     1      50.857   5.787  17.595  0.00  0.00    +0.000 A 
ATOM     31  H   UNL     1      54.088   5.408  17.112  0.00  0.00    +0.000 HD
ENDBRANCH  18  21
ENDBRANCH   1  17
TORSDOF 6
ENDMDL
MODEL 6
REMARK VINA RESULT:    -6.815      1.535      2.556
REMARK INTER + INTRA:         -10.285
REMARK INTER:                  -8.832
REMARK INTRA:                  -1.454
REMARK UNBOUND:                -1.079
REMARK  Name = 
REMARK  7 active torsions:
REMARK  status: ('A' for Active; 'I' for Inactive)
REMARK    1  A    between atoms: C_1  and  O_2
REMARK    2  A    between atoms: O_2  and  C_3
REMARK    3  A    between atoms: C_8  and  C_9
REMARK    4  A    between atoms: C_9  and  C_10
REMARK    5  A    between atoms: C_13  and  C_14
REMARK    6  A    between atoms: C_14  and  N_15
REMARK    7  A    between atoms: C_16  and  C_18
REMARK                            x       y       z     vdW  Elec       q    Type
REMARK                         _______ _______ _______ _____ _____    ______ ____
ROOT
ATOM      1  C   UNL     1      49.402   8.591  14.247  0.00  0.00    +0.000 C 
ENDROOT
BRANCH   1   5
ATOM      2  C   UNL     1      46.018   7.445  11.813  0.00  0.00    +0.000 A 
ATOM      3  C   UNL     1      47.295   6.938  11.540  0.00  0.00    +0.000 A 
ATOM      4  C   UNL     1      48.401   7.350  12.290  0.00  0.00    +0.000 A 
ATOM      5  C   UNL     1      48.248   8.264  13.340  0.00  0.00    +0.000 A 
ATOM      6  C   UNL     1      46.988   8.837  13.556  0.00  0.00    +0.000 A 
ATOM      7  C   UNL     1      45.883   8.427  12.804  0.00  0.00    +0.000 A 
BRANCH   2   8
ATOM      8  C   UNL     1      44.812   6.915  11.071  0.00  0.00    +0.000 C 
BRANCH   8  14
ATOM      9  C   UNL     1      44.553   4.420  10.537  0.00  0.00    +0.000 A 
ATOM     10  C   UNL     1      44.110   3.143  10.912  0.00  0.00    +0.000 A 
ATOM     11  C   UNL     1      43.530   2.927  12.163  0.00  0.00    +0.000 A 
ATOM     12  C   UNL     1      43.408   3.979  13.062  0.00  0.00    +0.000 A 
ATOM     13  C   UNL     1      43.851   5.252  12.704  0.00  0.00    +0.000 A 
ATOM     14  C   UNL     1      44.413   5.495  11.436  0.00  0.00    +0.000 A 
BRANCH   9  16
ATOM     15  C   UNL     1      44.907   3.774   8.274  0.00  0.00    +0.000 C 
ATOM     16  O   UNL     1      45.139   4.701   9.329  0.00  0.00    +0.000 OA
ENDBRANCH   9  16
ENDBRANCH   8  14
ENDBRANCH   2   8
ENDBRANCH   1   5
BRANCH   1  17
ATOM     17  N   UNL     1      49.467   7.723  15.392  0.00  0.00    +0.000 N 
ATOM     18  C   UNL     1      48.888   8.098  16.578  0.00  0.00    +0.000 C 
ATOM     19  O   UNL     1      48.242   9.138  16.687  0.00  0.00    +0.000 OA
ATOM     20  H   UNL     1      50.173   6.994  15.383  0.00  0.00    +0.000 HD
BRANCH  18  21
ATOM     21  C   UNL     1      49.021   7.166  17.704  0.00  0.00    +0.000 A 
ATOM     22  C   UNL     1      49.475   7.634  18.930  0.00  0.00    +0.000 A 
ATOM     23  S   UNL     1      49.517   6.440  20.146  0.00  0.00    +0.000 S 
ATOM     24  C   UNL     1      48.985   5.241  19.062  0.00  0.00    +0.000 A 
ATOM     25  N   UNL     1      48.827   3.953  19.467  0.00  0.00    +0.000 NA
ATOM     26  C   UNL     1      48.454   3.142  18.534  0.00  0.00    +0.000 A 
ATOM     27  N   UNL     1      48.220   3.502  17.235  0.00  0.00    +0.000 N 
ATOM     28  C   UNL     1      48.338   4.797  16.788  0.00  0.00    +0.000 A 
ATOM     29  O   UNL     1      48.091   5.093  15.625  0.00  0.00    +0.000 OA
ATOM     30  C   UNL     1      48.763   5.747  17.795  0.00  0.00    +0.000 A 
ATOM     31  H   UNL     1      47.925   2.822  16.549  0.00  0.00    +0.000 HD
ENDBRANCH  18  21
ENDBRANCH   1  17
TORSDOF 6
ENDMDL
MODEL 7
REMARK VINA RESULT:    -6.718      3.227      7.403
REMARK INTER + INTRA:         -10.154
REMARK INTER:                  -8.839
REMARK INTRA:                  -1.315
REMARK UNBOUND:                -1.079
REMARK  Name = 
REMARK  7 active torsions:
REMARK  status: ('A' for Active; 'I' for Inactive)
REMARK    1  A    between atoms: C_1  and  O_2
REMARK    2  A    between atoms: O_2  and  C_3
REMARK    3  A    between atoms: C_8  and  C_9
REMARK    4  A    between atoms: C_9  and  C_10
REMARK    5  A    between atoms: C_13  and  C_14
REMARK    6  A    between atoms: C_14  and  N_15
REMARK    7  A    between atoms: C_16  and  C_18
REMARK                            x       y       z     vdW  Elec       q    Type
REMARK                         _______ _______ _______ _____ _____    ______ ____
ROOT
ATOM      1  C   UNL     1      47.953   8.864  14.073  0.00  0.00    +0.000 C 
ENDROOT
BRANCH   1   5
ATOM      2  C   UNL     1      49.832   6.661  17.282  0.00  0.00    +0.000 A 
ATOM      3  C   UNL     1      48.799   7.567  17.552  0.00  0.00    +0.000 A 
ATOM      4  C   UNL     1      48.226   8.322  16.524  0.00  0.00    +0.000 A 
ATOM      5  C   UNL     1      48.667   8.173  15.202  0.00  0.00    +0.000 A 
ATOM      6  C   UNL     1      49.758   7.333  14.946  0.00  0.00    +0.000 A 
ATOM      7  C   UNL     1      50.332   6.580  15.975  0.00  0.00    +0.000 A 
BRANCH   2   8
ATOM      8  C   UNL     1      50.371   5.770  18.379  0.00  0.00    +0.000 C 
BRANCH   8  14
ATOM      9  C   UNL     1      49.551   3.438  17.697  0.00  0.00    +0.000 A 
ATOM     10  C   UNL     1      49.835   2.102  17.381  0.00  0.00    +0.000 A 
ATOM     11  C   UNL     1      51.153   1.643  17.336  0.00  0.00    +0.000 A 
ATOM     12  C   UNL     1      52.202   2.520  17.583  0.00  0.00    +0.000 A 
ATOM     13  C   UNL     1      51.933   3.853  17.891  0.00  0.00    +0.000 A 
ATOM     14  C   UNL     1      50.610   4.327  17.968  0.00  0.00    +0.000 A 
BRANCH   9  16
ATOM     15  C   UNL     1      47.493   3.837  16.570  0.00  0.00    +0.000 C 
ATOM     16  O   UNL     1      48.282   3.958  17.749  0.00  0.00    +0.000 OA
ENDBRANCH   9  16
ENDBRANCH   8  14
ENDBRANCH   2   8
ENDBRANCH   1   5
BRANCH   1  17
ATOM     17  N   UNL     1      46.768   8.164  13.659  0.00  0.00    +0.000 N 
ATOM     18  C   UNL     1      46.802   7.327  12.572  0.00  0.00    +0.000 C 
ATOM     19  O   UNL     1      47.845   7.091  11.965  0.00  0.00    +0.000 OA
ATOM     20  H   UNL     1      45.877   8.517  13.995  0.00  0.00    +0.000 HD
BRANCH  18  21
ATOM     21  C   UNL     1      45.543   6.670  12.201  0.00  0.00    +0.000 A 
ATOM     22  C   UNL     1      44.502   7.429  11.684  0.00  0.00    +0.000 A 
ATOM     23  S   UNL     1      43.133   6.509  11.251  0.00  0.00    +0.000 S 
ATOM     24  C   UNL     1      43.863   5.070  11.793  0.00  0.00    +0.000 A 
ATOM     25  N   UNL     1      43.201   3.884  11.725  0.00  0.00    +0.000 NA
ATOM     26  C   UNL     1      43.858   2.880  12.204  0.00  0.00    +0.000 A 
ATOM     27  N   UNL     1      45.115   2.953  12.738  0.00  0.00    +0.000 N 
ATOM     28  C   UNL     1      45.832   4.125  12.799  0.00  0.00    +0.000 A 
ATOM     29  O   UNL     1      46.969   4.151  13.255  0.00  0.00    +0.000 OA
ATOM     30  C   UNL     1      45.137   5.286  12.282  0.00  0.00    +0.000 A 
ATOM     31  H   UNL     1      45.580   2.130  13.094  0.00  0.00    +0.000 HD
ENDBRANCH  18  21
ENDBRANCH   1  17
TORSDOF 6
ENDMDL
MODEL 8
REMARK VINA RESULT:    -6.683      3.460      8.140
REMARK INTER + INTRA:         -10.106
REMARK INTER:                  -8.806
REMARK INTRA:                  -1.300
REMARK UNBOUND:                -1.079
REMARK  Name = 
REMARK  7 active torsions:
REMARK  status: ('A' for Active; 'I' for Inactive)
REMARK    1  A    between atoms: C_1  and  O_2
REMARK    2  A    between atoms: O_2  and  C_3
REMARK    3  A    between atoms: C_8  and  C_9
REMARK    4  A    between atoms: C_9  and  C_10
REMARK    5  A    between atoms: C_13  and  C_14
REMARK    6  A    between atoms: C_14  and  N_15
REMARK    7  A    between atoms: C_16  and  C_18
REMARK                            x       y       z     vdW  Elec       q    Type
REMARK                         _______ _______ _______ _____ _____    ______ ____
ROOT
ATOM      1  C   UNL     1      47.703   7.989  11.772  0.00  0.00    +0.000 C 
ENDROOT
BRANCH   1   5
ATOM      2  C   UNL     1      49.522   8.121  15.691  0.00  0.00    +0.000 A 
ATOM      3  C   UNL     1      48.398   8.906  15.402  0.00  0.00    +0.000 A 
ATOM      4  C   UNL     1      47.841   8.908  14.119  0.00  0.00    +0.000 A 
ATOM      5  C   UNL     1      48.387   8.111  13.106  0.00  0.00    +0.000 A 
ATOM      6  C   UNL     1      49.562   7.395  13.370  0.00  0.00    +0.000 A 
ATOM      7  C   UNL     1      50.121   7.396  14.652  0.00  0.00    +0.000 A 
BRANCH   2   8
ATOM      8  C   UNL     1      50.053   8.040  17.104  0.00  0.00    +0.000 C 
BRANCH   8  14
ATOM      9  C   UNL     1      49.148   5.891  18.171  0.00  0.00    +0.000 A 
ATOM     10  C   UNL     1      48.254   5.261  19.049  0.00  0.00    +0.000 A 
ATOM     11  C   UNL     1      47.372   6.010  19.829  0.00  0.00    +0.000 A 
ATOM     12  C   UNL     1      47.389   7.397  19.758  0.00  0.00    +0.000 A 
ATOM     13  C   UNL     1      48.279   8.036  18.895  0.00  0.00    +0.000 A 
ATOM     14  C   UNL     1      49.157   7.297  18.080  0.00  0.00    +0.000 A 
BRANCH   9  16
ATOM     15  C   UNL     1      50.413   3.908  17.806  0.00  0.00    +0.000 C 
ATOM     16  O   UNL     1      50.048   5.218  17.384  0.00  0.00    +0.000 OA
ENDBRANCH   9  16
ENDBRANCH   8  14
ENDBRANCH   2   8
ENDBRANCH   1   5
BRANCH   1  17
ATOM     17  N   UNL     1      47.004   6.742  11.622  0.00  0.00    +0.000 N 
ATOM     18  C   UNL     1      45.639   6.692  11.766  0.00  0.00    +0.000 C 
ATOM     19  O   UNL     1      44.968   7.704  11.954  0.00  0.00    +0.000 OA
ATOM     20  H   UNL     1      47.550   5.890  11.697  0.00  0.00    +0.000 HD
BRANCH  18  21
ATOM     21  C   UNL     1      45.006   5.376  11.621  0.00  0.00    +0.000 A 
ATOM     22  C   UNL     1      44.342   4.813  12.703  0.00  0.00    +0.000 A 
ATOM     23  S   UNL     1      43.613   3.312  12.355  0.00  0.00    +0.000 S 
ATOM     24  C   UNL     1      44.209   3.332  10.761  0.00  0.00    +0.000 A 
ATOM     25  N   UNL     1      43.960   2.303   9.909  0.00  0.00    +0.000 NA
ATOM     26  C   UNL     1      44.503   2.431   8.744  0.00  0.00    +0.000 A 
ATOM     27  N   UNL     1      45.267   3.497   8.352  0.00  0.00    +0.000 N 
ATOM     28  C   UNL     1      45.519   4.573   9.170  0.00  0.00    +0.000 A 
ATOM     29  O   UNL     1      46.181   5.527   8.779  0.00  0.00    +0.000 OA
ATOM     30  C   UNL     1      44.939   4.475  10.494  0.00  0.00    +0.000 A 
ATOM     31  H   UNL     1      45.661   3.543   7.424  0.00  0.00    +0.000 HD
ENDBRANCH  18  21
ENDBRANCH   1  17
TORSDOF 6
ENDMDL
MODEL 9
REMARK VINA RESULT:    -6.668      5.312      8.015
REMARK INTER + INTRA:         -10.086
REMARK INTER:                  -8.931
REMARK INTRA:                  -1.155
REMARK UNBOUND:                -1.079
REMARK  Name = 
REMARK  7 active torsions:
REMARK  status: ('A' for Active; 'I' for Inactive)
REMARK    1  A    between atoms: C_1  and  O_2
REMARK    2  A    between atoms: O_2  and  C_3
REMARK    3  A    between atoms: C_8  and  C_9
REMARK    4  A    between atoms: C_9  and  C_10
REMARK    5  A    between atoms: C_13  and  C_14
REMARK    6  A    between atoms: C_14  and  N_15
REMARK    7  A    between atoms: C_16  and  C_18
REMARK                            x       y       z     vdW  Elec       q    Type
REMARK                         _______ _______ _______ _____ _____    ______ ____
ROOT
ATOM      1  C   UNL     1      46.580   8.279  12.084  0.00  0.00    +0.000 C 
ENDROOT
BRANCH   1   5
ATOM      2  C   UNL     1      50.816   8.793  11.395  0.00  0.00    +0.000 A 
ATOM      3  C   UNL     1      50.309   7.558  11.820  0.00  0.00    +0.000 A 
ATOM      4  C   UNL     1      48.947   7.404  12.098  0.00  0.00    +0.000 A 
ATOM      5  C   UNL     1      48.063   8.478  11.938  0.00  0.00    +0.000 A 
ATOM      6  C   UNL     1      48.583   9.734  11.598  0.00  0.00    +0.000 A 
ATOM      7  C   UNL     1      49.945   9.888  11.324  0.00  0.00    +0.000 A 
BRANCH   2   8
ATOM      8  C   UNL     1      52.268   8.924  10.993  0.00  0.00    +0.000 C 
BRANCH   8  14
ATOM      9  C   UNL     1      52.738   9.349   8.507  0.00  0.00    +0.000 A 
ATOM     10  C   UNL     1      52.969   8.848   7.218  0.00  0.00    +0.000 A 
ATOM     11  C   UNL     1      53.044   7.473   6.989  0.00  0.00    +0.000 A 
ATOM     12  C   UNL     1      52.912   6.584   8.049  0.00  0.00    +0.000 A 
ATOM     13  C   UNL     1      52.689   7.070   9.338  0.00  0.00    +0.000 A 
ATOM     14  C   UNL     1      52.583   8.452   9.583  0.00  0.00    +0.000 A 
BRANCH   9  16
ATOM     15  C   UNL     1      51.991  11.514   7.863  0.00  0.00    +0.000 C 
ATOM     16  O   UNL     1      52.663  10.686   8.805  0.00  0.00    +0.000 OA
ENDBRANCH   9  16
ENDBRANCH   8  14
ENDBRANCH   2   8
ENDBRANCH   1   5
BRANCH   1  17
ATOM     17  N   UNL     1      46.178   6.921  11.836  0.00  0.00    +0.000 N 
ATOM     18  C   UNL     1      44.868   6.629  11.549  0.00  0.00    +0.000 C 
ATOM     19  O   UNL     1      44.017   7.508  11.425  0.00  0.00    +0.000 OA
ATOM     20  H   UNL     1      46.800   6.186  12.155  0.00  0.00    +0.000 HD
BRANCH  18  21
ATOM     21  C   UNL     1      44.536   5.216  11.333  0.00  0.00    +0.000 A 
ATOM     22  C   UNL     1      43.795   4.533  12.288  0.00  0.00    +0.000 A 
ATOM     23  S   UNL     1      43.447   2.920  11.860  0.00  0.00    +0.000 S 
ATOM     24  C   UNL     1      44.324   3.059  10.408  0.00  0.00    +0.000 A 
ATOM     25  N   UNL     1      44.444   2.003   9.561  0.00  0.00    +0.000 NA
ATOM     26  C   UNL     1      45.167   2.237   8.517  0.00  0.00    +0.000 A 
ATOM     27  N   UNL     1      45.775   3.431   8.240  0.00  0.00    +0.000 N 
ATOM     28  C   UNL     1      45.656   4.533   9.053  0.00  0.00    +0.000 A 
ATOM     29  O   UNL     1      46.187   5.598   8.761  0.00  0.00    +0.000 OA
ATOM     30  C   UNL     1      44.861   4.322  10.245  0.00  0.00    +0.000 A 
ATOM     31  H   UNL     1      46.326   3.555   7.402  0.00  0.00    +0.000 HD
ENDBRANCH  18  21
ENDBRANCH   1  17
TORSDOF 6
ENDMDL
