MODEL 1
REMARK VINA RESULT:    -8.510      0.000      0.000
REMARK INTER + INTRA:         -13.599
REMARK INTER:                 -11.993
REMARK INTRA:                  -1.606
REMARK UNBOUND:                -1.606
REMARK  Name = 
REMARK  10 active torsions:
REMARK  status: ('A' for Active; 'I' for Inactive)
REMARK    1  A    between atoms: C_1  and  O_2
REMARK    2  A    between atoms: O_2  and  C_3
REMARK    3  A    between atoms: C_5  and  O_6
REMARK    4  A    between atoms: O_6  and  C_7
REMARK    5  A    between atoms: C_7  and  C_8
REMARK    6  A    between atoms: C_8  and  C_9
REMARK    7  A    between atoms: C_8  and  C_10
REMARK    8  A    between atoms: C_8  and  C_11
REMARK    9  A    between atoms: C_15  and  C_16
REMARK   10  A    between atoms: C_25  and  C_26
REMARK                            x       y       z     vdW  Elec       q    Type
REMARK                         _______ _______ _______ _____ _____    ______ ____
ROOT
ATOM      1  C   UNL     1      44.003   3.162  11.527  0.00  0.00    +0.000 C 
ENDROOT
BRANCH   1   2
ATOM      2  C   UNL     1      43.892   4.575  12.154  0.00  0.00    +0.000 C 
ATOM      3  C   UNL     1      43.169   5.526  11.177  0.00  0.00    +0.000 C 
ATOM      4  C   UNL     1      43.013   4.460  13.423  0.00  0.00    +0.000 C 
BRANCH   2   5
ATOM      5  C   UNL     1      45.303   5.141  12.425  0.00  0.00    +0.000 A 
ATOM      6  C   UNL     1      45.905   6.029  11.516  0.00  0.00    +0.000 A 
ATOM      7  C   UNL     1      47.144   6.609  11.785  0.00  0.00    +0.000 A 
ATOM      8  C   UNL     1      47.795   6.337  12.985  0.00  0.00    +0.000 A 
ATOM      9  C   UNL     1      47.225   5.482  13.940  0.00  0.00    +0.000 A 
ATOM     10  C   UNL     1      46.000   4.866  13.617  0.00  0.00    +0.000 A 
BRANCH   9  11
ATOM     11  C   UNL     1      47.821   5.315  15.283  0.00  0.00    +0.000 A 
ATOM     12  C   UNL     1      47.525   4.185  16.059  0.00  0.00    +0.000 A 
ATOM     13  C   UNL     1      48.159   4.009  17.278  0.00  0.00    +0.000 A 
ATOM     14  N   UNL     1      49.068   4.866  17.781  0.00  0.00    +0.000 NA
ATOM     15  C   UNL     1      49.348   5.951  17.031  0.00  0.00    +0.000 A 
ATOM     16  C   UNL     1      48.757   6.219  15.804  0.00  0.00    +0.000 A 
ENDBRANCH   9  11
ENDBRANCH   2   5
ENDBRANCH   1   2
BRANCH   1  17
ATOM     17  O   UNL     1      43.585   3.172  10.155  0.00  0.00    +0.000 OA
BRANCH  17  20
ATOM     18  C   UNL     1      46.277   1.640   8.093  0.00  0.00    +0.000 A 
ATOM     19  C   UNL     1      45.294   1.777   9.081  0.00  0.00    +0.000 A 
ATOM     20  C   UNL     1      44.565   2.962   9.222  0.00  0.00    +0.000 A 
ATOM     21  C   UNL     1      44.827   4.033   8.373  0.00  0.00    +0.000 A 
ATOM     22  C   UNL     1      45.802   3.912   7.381  0.00  0.00    +0.000 A 
ATOM     23  C   UNL     1      46.527   2.716   7.222  0.00  0.00    +0.000 A 
BRANCH  23  24
ATOM     24  C   UNL     1      47.501   2.672   6.085  0.00  0.00    +0.000 C 
ATOM     25  N   UNL     1      48.801   2.376   6.363  0.00  0.00    +0.000 N 
ATOM     26  O   UNL     1      47.146   2.870   4.929  0.00  0.00    +0.000 OA
ATOM     27  H   UNL     1      49.127   2.254   7.315  0.00  0.00    +0.000 HD
ATOM     28  H   UNL     1      49.461   2.331   5.600  0.00  0.00    +0.000 HD
ENDBRANCH  23  24
BRANCH  18  30
ATOM     29  C   UNL     1      46.461  -0.628   7.346  0.00  0.00    +0.000 C 
ATOM     30  O   UNL     1      47.047   0.506   7.980  0.00  0.00    +0.000 OA
ENDBRANCH  18  30
ENDBRANCH  17  20
ENDBRANCH   1  17
TORSDOF 7
ENDMDL
MODEL 2
REMARK VINA RESULT:    -6.698      2.887      5.609
REMARK INTER + INTRA:         -11.045
REMARK INTER:                  -9.104
REMARK INTRA:                  -1.941
REMARK UNBOUND:                -1.606
REMARK  Name = 
REMARK  10 active torsions:
REMARK  status: ('A' for Active; 'I' for Inactive)
REMARK    1  A    between atoms: C_1  and  O_2
REMARK    2  A    between atoms: O_2  and  C_3
REMARK    3  A    between atoms: C_5  and  O_6
REMARK    4  A    between atoms: O_6  and  C_7
REMARK    5  A    between atoms: C_7  and  C_8
REMARK    6  A    between atoms: C_8  and  C_9
REMARK    7  A    between atoms: C_8  and  C_10
REMARK    8  A    between atoms: C_8  and  C_11
REMARK    9  A    between atoms: C_15  and  C_16
REMARK   10  A    between atoms: C_25  and  C_26
REMARK                            x       y       z     vdW  Elec       q    Type
REMARK                         _______ _______ _______ _____ _____    ______ ____
ROOT
ATOM      1  C   UNL     1      47.872   8.629  12.083  0.00  0.00    +0.000 C 
ENDROOT
BRANCH   1   2
ATOM      2  C   UNL     1      49.226   8.867  12.798  0.00  0.00    +0.000 C 
ATOM      3  C   UNL     1      50.293   7.905  12.231  0.00  0.00    +0.000 C 
ATOM      4  C   UNL     1      49.686  10.309  12.472  0.00  0.00    +0.000 C 
BRANCH   2   5
ATOM      5  C   UNL     1      49.079   8.588  14.309  0.00  0.00    +0.000 A 
ATOM      6  C   UNL     1      48.735   9.622  15.198  0.00  0.00    +0.000 A 
ATOM      7  C   UNL     1      48.522   9.370  16.552  0.00  0.00    +0.000 A 
ATOM      8  C   UNL     1      48.617   8.071  17.043  0.00  0.00    +0.000 A 
ATOM      9  C   UNL     1      48.927   6.998  16.195  0.00  0.00    +0.000 A 
ATOM     10  C   UNL     1      49.193   7.290  14.842  0.00  0.00    +0.000 A 
BRANCH   9  11
ATOM     11  C   UNL     1      48.868   5.597  16.664  0.00  0.00    +0.000 A 
ATOM     12  C   UNL     1      47.812   4.759  16.277  0.00  0.00    +0.000 A 
ATOM     13  C   UNL     1      47.822   3.428  16.661  0.00  0.00    +0.000 A 
ATOM     14  N   UNL     1      48.802   2.866  17.394  0.00  0.00    +0.000 NA
ATOM     15  C   UNL     1      49.815   3.676  17.763  0.00  0.00    +0.000 A 
ATOM     16  C   UNL     1      49.887   5.023  17.437  0.00  0.00    +0.000 A 
ENDBRANCH   9  11
ENDBRANCH   2   5
ENDBRANCH   1   2
BRANCH   1  17
ATOM     17  O   UNL     1      47.865   7.369  11.397  0.00  0.00    +0.000 OA
BRANCH  17  20
ATOM     18  C   UNL     1      44.871   5.198  10.991  0.00  0.00    +0.000 A 
ATOM     19  C   UNL     1      45.944   6.034  10.658  0.00  0.00    +0.000 A 
ATOM     20  C   UNL     1      46.793   6.553  11.640  0.00  0.00    +0.000 A 
ATOM     21  C   UNL     1      46.564   6.245  12.978  0.00  0.00    +0.000 A 
ATOM     22  C   UNL     1      45.501   5.410  13.326  0.00  0.00    +0.000 A 
ATOM     23  C   UNL     1      44.653   4.869  12.341  0.00  0.00    +0.000 A 
BRANCH  23  24
ATOM     24  C   UNL     1      43.585   3.934  12.820  0.00  0.00    +0.000 C 
ATOM     25  N   UNL     1      43.718   2.608  12.539  0.00  0.00    +0.000 N 
ATOM     26  O   UNL     1      42.627   4.334  13.470  0.00  0.00    +0.000 OA
ATOM     27  H   UNL     1      44.477   2.260  11.964  0.00  0.00    +0.000 HD
ATOM     28  H   UNL     1      43.010   1.969  12.870  0.00  0.00    +0.000 HD
ENDBRANCH  23  24
BRANCH  18  30
ATOM     29  C   UNL     1      44.517   3.936   8.986  0.00  0.00    +0.000 C 
ATOM     30  O   UNL     1      43.988   4.729  10.046  0.00  0.00    +0.000 OA
ENDBRANCH  18  30
ENDBRANCH  17  20
ENDBRANCH   1  17
TORSDOF 7
ENDMDL
MODEL 3
REMARK VINA RESULT:    -6.681      3.791      8.599
REMARK INTER + INTRA:         -11.021
REMARK INTER:                  -9.445
REMARK INTRA:                  -1.576
REMARK UNBOUND:                -1.606
REMARK  Name = 
REMARK  10 active torsions:
REMARK  status: ('A' for Active; 'I' for Inactive)
REMARK    1  A    between atoms: C_1  and  O_2
REMARK    2  A    between atoms: O_2  and  C_3
REMARK    3  A    between atoms: C_5  and  O_6
REMARK    4  A    between atoms: O_6  and  C_7
REMARK    5  A    between atoms: C_7  and  C_8
REMARK    6  A    between atoms: C_8  and  C_9
REMARK    7  A    between atoms: C_8  and  C_10
REMARK    8  A    between atoms: C_8  and  C_11
REMARK    9  A    between atoms: C_15  and  C_16
REMARK   10  A    between atoms: C_25  and  C_26
REMARK                            x       y       z     vdW  Elec       q    Type
REMARK                         _______ _______ _______ _____ _____    ______ ____
ROOT
ATOM      1  C   UNL     1      49.726   7.613  13.510  0.00  0.00    +0.000 C 
ENDROOT
BRANCH   1   2
ATOM      2  C   UNL     1      49.160   8.272  12.227  0.00  0.00    +0.000 C 
ATOM      3  C   UNL     1      49.349   9.802  12.297  0.00  0.00    +0.000 C 
ATOM      4  C   UNL     1      49.991   7.759  11.026  0.00  0.00    +0.000 C 
BRANCH   2   5
ATOM      5  C   UNL     1      47.649   7.976  12.108  0.00  0.00    +0.000 A 
ATOM      6  C   UNL     1      46.699   8.952  12.457  0.00  0.00    +0.000 A 
ATOM      7  C   UNL     1      45.334   8.727  12.281  0.00  0.00    +0.000 A 
ATOM      8  C   UNL     1      44.890   7.531  11.722  0.00  0.00    +0.000 A 
ATOM      9  C   UNL     1      45.798   6.537  11.328  0.00  0.00    +0.000 A 
ATOM     10  C   UNL     1      47.166   6.768  11.571  0.00  0.00    +0.000 A 
BRANCH   9  11
ATOM     11  C   UNL     1      45.357   5.338  10.583  0.00  0.00    +0.000 A 
ATOM     12  C   UNL     1      45.667   5.189   9.224  0.00  0.00    +0.000 A 
ATOM     13  C   UNL     1      45.316   4.020   8.568  0.00  0.00    +0.000 A 
ATOM     14  N   UNL     1      44.688   2.987   9.161  0.00  0.00    +0.000 NA
ATOM     15  C   UNL     1      44.393   3.135  10.468  0.00  0.00    +0.000 A 
ATOM     16  C   UNL     1      44.693   4.272  11.206  0.00  0.00    +0.000 A 
ENDBRANCH   9  11
ENDBRANCH   2   5
ENDBRANCH   1   2
BRANCH   1  17
ATOM     17  O   UNL     1      48.905   7.909  14.649  0.00  0.00    +0.000 OA
BRANCH  17  20
ATOM     18  C   UNL     1      48.691   5.715  17.646  0.00  0.00    +0.000 A 
ATOM     19  C   UNL     1      49.003   6.821  16.845  0.00  0.00    +0.000 A 
ATOM     20  C   UNL     1      48.643   6.865  15.495  0.00  0.00    +0.000 A 
ATOM     21  C   UNL     1      47.972   5.786  14.928  0.00  0.00    +0.000 A 
ATOM     22  C   UNL     1      47.650   4.677  15.713  0.00  0.00    +0.000 A 
ATOM     23  C   UNL     1      47.993   4.634  17.078  0.00  0.00    +0.000 A 
BRANCH  23  24
ATOM     24  C   UNL     1      47.542   3.427  17.841  0.00  0.00    +0.000 C 
ATOM     25  N   UNL     1      48.312   2.996  18.878  0.00  0.00    +0.000 N 
ATOM     26  O   UNL     1      46.497   2.849  17.568  0.00  0.00    +0.000 OA
ATOM     27  H   UNL     1      49.203   3.429  19.095  0.00  0.00    +0.000 HD
ATOM     28  H   UNL     1      48.007   2.192  19.407  0.00  0.00    +0.000 HD
ENDBRANCH  23  24
BRANCH  18  30
ATOM     29  C   UNL     1      48.758   6.709  19.824  0.00  0.00    +0.000 C 
ATOM     30  O   UNL     1      49.092   5.626  18.959  0.00  0.00    +0.000 OA
ENDBRANCH  18  30
ENDBRANCH  17  20
ENDBRANCH   1  17
TORSDOF 7
ENDMDL
MODEL 4
REMARK VINA RESULT:    -6.652      3.593      7.830
REMARK INTER + INTRA:         -10.980
REMARK INTER:                  -9.133
REMARK INTRA:                  -1.847
REMARK UNBOUND:                -1.606
REMARK  Name = 
REMARK  10 active torsions:
REMARK  status: ('A' for Active; 'I' for Inactive)
REMARK    1  A    between atoms: C_1  and  O_2
REMARK    2  A    between atoms: O_2  and  C_3
REMARK    3  A    between atoms: C_5  and  O_6
REMARK    4  A    between atoms: O_6  and  C_7
REMARK    5  A    between atoms: C_7  and  C_8
REMARK    6  A    between atoms: C_8  and  C_9
REMARK    7  A    between atoms: C_8  and  C_10
REMARK    8  A    between atoms: C_8  and  C_11
REMARK    9  A    between atoms: C_15  and  C_16
REMARK   10  A    between atoms: C_25  and  C_26
REMARK                            x       y       z     vdW  Elec       q    Type
REMARK                         _______ _______ _______ _____ _____    ______ ____
ROOT
ATOM      1  C   UNL     1      48.208   9.012  14.174  0.00  0.00    +0.000 C 
ENDROOT
BRANCH   1   2
ATOM      2  C   UNL     1      48.058   9.339  12.667  0.00  0.00    +0.000 C 
ATOM      3  C   UNL     1      48.319  10.842  12.429  0.00  0.00    +0.000 C 
ATOM      4  C   UNL     1      49.152   8.555  11.903  0.00  0.00    +0.000 C 
BRANCH   2   5
ATOM      5  C   UNL     1      46.622   9.018  12.201  0.00  0.00    +0.000 A 
ATOM      6  C   UNL     1      45.752  10.048  11.801  0.00  0.00    +0.000 A 
ATOM      7  C   UNL     1      44.480   9.767  11.304  0.00  0.00    +0.000 A 
ATOM      8  C   UNL     1      44.062   8.446  11.165  0.00  0.00    +0.000 A 
ATOM      9  C   UNL     1      44.902   7.381  11.519  0.00  0.00    +0.000 A 
ATOM     10  C   UNL     1      46.159   7.695  12.072  0.00  0.00    +0.000 A 
BRANCH   9  11
ATOM     11  C   UNL     1      44.540   5.978  11.222  0.00  0.00    +0.000 A 
ATOM     12  C   UNL     1      43.413   5.391  11.817  0.00  0.00    +0.000 A 
ATOM     13  C   UNL     1      43.046   4.104  11.461  0.00  0.00    +0.000 A 
ATOM     14  N   UNL     1      43.709   3.358  10.555  0.00  0.00    +0.000 NA
ATOM     15  C   UNL     1      44.791   3.927   9.987  0.00  0.00    +0.000 A 
ATOM     16  C   UNL     1      45.243   5.205  10.287  0.00  0.00    +0.000 A 
ENDBRANCH   9  11
ENDBRANCH   2   5
ENDBRANCH   1   2
BRANCH   1  17
ATOM     17  O   UNL     1      49.240   8.039  14.392  0.00  0.00    +0.000 OA
BRANCH  17  20
ATOM     18  C   UNL     1      47.567   4.829  15.253  0.00  0.00    +0.000 A 
ATOM     19  C   UNL     1      47.892   5.995  14.549  0.00  0.00    +0.000 A 
ATOM     20  C   UNL     1      48.861   6.885  15.023  0.00  0.00    +0.000 A 
ATOM     21  C   UNL     1      49.508   6.618  16.226  0.00  0.00    +0.000 A 
ATOM     22  C   UNL     1      49.198   5.458  16.939  0.00  0.00    +0.000 A 
ATOM     23  C   UNL     1      48.237   4.548  16.458  0.00  0.00    +0.000 A 
BRANCH  23  24
ATOM     24  C   UNL     1      48.030   3.306  17.269  0.00  0.00    +0.000 C 
ATOM     25  N   UNL     1      46.755   2.959  17.600  0.00  0.00    +0.000 N 
ATOM     26  O   UNL     1      48.970   2.598  17.609  0.00  0.00    +0.000 OA
ATOM     27  H   UNL     1      45.965   3.552  17.370  0.00  0.00    +0.000 HD
ATOM     28  H   UNL     1      46.606   2.116  18.134  0.00  0.00    +0.000 HD
ENDBRANCH  23  24
BRANCH  18  30
ATOM     29  C   UNL     1      46.517   3.660  13.447  0.00  0.00    +0.000 C 
ATOM     30  O   UNL     1      46.573   3.975  14.835  0.00  0.00    +0.000 OA
ENDBRANCH  18  30
ENDBRANCH  17  20
ENDBRANCH   1  17
TORSDOF 7
ENDMDL
MODEL 5
REMARK VINA RESULT:    -6.463      3.700      8.904
REMARK INTER + INTRA:         -10.713
REMARK INTER:                  -9.173
REMARK INTRA:                  -1.540
REMARK UNBOUND:                -1.606
REMARK  Name = 
REMARK  10 active torsions:
REMARK  status: ('A' for Active; 'I' for Inactive)
REMARK    1  A    between atoms: C_1  and  O_2
REMARK    2  A    between atoms: O_2  and  C_3
REMARK    3  A    between atoms: C_5  and  O_6
REMARK    4  A    between atoms: O_6  and  C_7
REMARK    5  A    between atoms: C_7  and  C_8
REMARK    6  A    between atoms: C_8  and  C_9
REMARK    7  A    between atoms: C_8  and  C_10
REMARK    8  A    between atoms: C_8  and  C_11
REMARK    9  A    between atoms: C_15  and  C_16
REMARK   10  A    between atoms: C_25  and  C_26
REMARK                            x       y       z     vdW  Elec       q    Type
REMARK                         _______ _______ _______ _____ _____    ______ ____
ROOT
ATOM      1  C   UNL     1      49.474   7.938  13.855  0.00  0.00    +0.000 C 
ENDROOT
BRANCH   1   2
ATOM      2  C   UNL     1      48.968   8.192  12.412  0.00  0.00    +0.000 C 
ATOM      3  C   UNL     1      49.087   9.693  12.073  0.00  0.00    +0.000 C 
ATOM      4  C   UNL     1      49.901   7.425  11.443  0.00  0.00    +0.000 C 
BRANCH   2   5
ATOM      5  C   UNL     1      47.484   7.786  12.297  0.00  0.00    +0.000 A 
ATOM      6  C   UNL     1      46.471   8.625  12.795  0.00  0.00    +0.000 A 
ATOM      7  C   UNL     1      45.123   8.309  12.628  0.00  0.00    +0.000 A 
ATOM      8  C   UNL     1      44.757   7.160  11.931  0.00  0.00    +0.000 A 
ATOM      9  C   UNL     1      45.727   6.305  11.387  0.00  0.00    +0.000 A 
ATOM     10  C   UNL     1      47.080   6.619  11.620  0.00  0.00    +0.000 A 
BRANCH   9  11
ATOM     11  C   UNL     1      45.357   5.177  10.505  0.00  0.00    +0.000 A 
ATOM     12  C   UNL     1      45.767   5.156   9.164  0.00  0.00    +0.000 A 
ATOM     13  C   UNL     1      45.480   4.051   8.380  0.00  0.00    +0.000 A 
ATOM     14  N   UNL     1      44.823   2.964   8.828  0.00  0.00    +0.000 NA
ATOM     15  C   UNL     1      44.431   2.989  10.118  0.00  0.00    +0.000 A 
ATOM     16  C   UNL     1      44.662   4.055  10.977  0.00  0.00    +0.000 A 
ENDBRANCH   9  11
ENDBRANCH   2   5
ENDBRANCH   1   2
BRANCH   1  17
ATOM     17  O   UNL     1      49.171   6.602  14.281  0.00  0.00    +0.000 OA
BRANCH  17  20
ATOM     18  C   UNL     1      47.762   5.249  17.448  0.00  0.00    +0.000 A 
ATOM     19  C   UNL     1      48.141   5.320  16.101  0.00  0.00    +0.000 A 
ATOM     20  C   UNL     1      48.766   6.458  15.580  0.00  0.00    +0.000 A 
ATOM     21  C   UNL     1      49.007   7.549  16.410  0.00  0.00    +0.000 A 
ATOM     22  C   UNL     1      48.639   7.493  17.756  0.00  0.00    +0.000 A 
ATOM     23  C   UNL     1      48.026   6.344  18.291  0.00  0.00    +0.000 A 
BRANCH  23  24
ATOM     24  C   UNL     1      47.733   6.367  19.760  0.00  0.00    +0.000 C 
ATOM     25  N   UNL     1      47.807   5.194  20.448  0.00  0.00    +0.000 N 
ATOM     26  O   UNL     1      47.459   7.409  20.343  0.00  0.00    +0.000 OA
ATOM     27  H   UNL     1      47.986   4.313  19.981  0.00  0.00    +0.000 HD
ATOM     28  H   UNL     1      47.625   5.204  21.442  0.00  0.00    +0.000 HD
ENDBRANCH  23  24
BRANCH  18  30
ATOM     29  C   UNL     1      47.432   2.878  17.455  0.00  0.00    +0.000 C 
ATOM     30  O   UNL     1      47.091   4.165  17.962  0.00  0.00    +0.000 OA
ENDBRANCH  18  30
ENDBRANCH  17  20
ENDBRANCH   1  17
TORSDOF 7
ENDMDL
MODEL 6
REMARK VINA RESULT:    -6.273      3.600      6.197
REMARK INTER + INTRA:         -10.446
REMARK INTER:                  -8.645
REMARK INTRA:                  -1.801
REMARK UNBOUND:                -1.606
REMARK  Name = 
REMARK  10 active torsions:
REMARK  status: ('A' for Active; 'I' for Inactive)
REMARK    1  A    between atoms: C_1  and  O_2
REMARK    2  A    between atoms: O_2  and  C_3
REMARK    3  A    between atoms: C_5  and  O_6
REMARK    4  A    between atoms: O_6  and  C_7
REMARK    5  A    between atoms: C_7  and  C_8
REMARK    6  A    between atoms: C_8  and  C_9
REMARK    7  A    between atoms: C_8  and  C_10
REMARK    8  A    between atoms: C_8  and  C_11
REMARK    9  A    between atoms: C_15  and  C_16
REMARK   10  A    between atoms: C_25  and  C_26
REMARK                            x       y       z     vdW  Elec       q    Type
REMARK                         _______ _______ _______ _____ _____    ______ ____
ROOT
ATOM      1  C   UNL     1      47.542   4.022  16.523  0.00  0.00    +0.000 C 
ENDROOT
BRANCH   1   2
ATOM      2  C   UNL     1      48.840   3.799  17.338  0.00  0.00    +0.000 C 
ATOM      3  C   UNL     1      48.522   3.832  18.848  0.00  0.00    +0.000 C 
ATOM      4  C   UNL     1      49.367   2.381  17.009  0.00  0.00    +0.000 C 
BRANCH   2   5
ATOM      5  C   UNL     1      49.852   4.924  17.033  0.00  0.00    +0.000 A 
ATOM      6  C   UNL     1      51.204   4.790  17.395  0.00  0.00    +0.000 A 
ATOM      7  C   UNL     1      52.143   5.763  17.056  0.00  0.00    +0.000 A 
ATOM      8  C   UNL     1      51.756   6.879  16.319  0.00  0.00    +0.000 A 
ATOM      9  C   UNL     1      50.427   7.047  15.905  0.00  0.00    +0.000 A 
ATOM     10  C   UNL     1      49.489   6.077  16.311  0.00  0.00    +0.000 A 
BRANCH   9  11
ATOM     11  C   UNL     1      50.034   8.135  14.984  0.00  0.00    +0.000 A 
ATOM     12  C   UNL     1      49.268   9.217  15.443  0.00  0.00    +0.000 A 
ATOM     13  C   UNL     1      48.983  10.265  14.583  0.00  0.00    +0.000 A 
ATOM     14  N   UNL     1      49.406  10.322  13.305  0.00  0.00    +0.000 NA
ATOM     15  C   UNL     1      50.141   9.280  12.869  0.00  0.00    +0.000 A 
ATOM     16  C   UNL     1      50.469   8.181  13.652  0.00  0.00    +0.000 A 
ENDBRANCH   9  11
ENDBRANCH   2   5
ENDBRANCH   1   2
BRANCH   1  17
ATOM     17  O   UNL     1      47.585   3.310  15.278  0.00  0.00    +0.000 OA
BRANCH  17  20
ATOM     18  C   UNL     1      45.580   3.980  12.216  0.00  0.00    +0.000 A 
ATOM     19  C   UNL     1      46.161   3.280  13.280  0.00  0.00    +0.000 A 
ATOM     20  C   UNL     1      46.986   3.921  14.209  0.00  0.00    +0.000 A 
ATOM     21  C   UNL     1      47.248   5.281  14.070  0.00  0.00    +0.000 A 
ATOM     22  C   UNL     1      46.674   5.995  13.017  0.00  0.00    +0.000 A 
ATOM     23  C   UNL     1      45.828   5.360  12.088  0.00  0.00    +0.000 A 
BRANCH  23  24
ATOM     24  C   UNL     1      45.214   6.233  11.038  0.00  0.00    +0.000 C 
ATOM     25  N   UNL     1      45.296   5.831   9.739  0.00  0.00    +0.000 N 
ATOM     26  O   UNL     1      44.629   7.270  11.327  0.00  0.00    +0.000 OA
ATOM     27  H   UNL     1      45.813   5.002   9.470  0.00  0.00    +0.000 HD
ATOM     28  H   UNL     1      44.872   6.408   9.027  0.00  0.00    +0.000 HD
ENDBRANCH  23  24
BRANCH  18  30
ATOM     29  C   UNL     1      43.507   2.937  11.628  0.00  0.00    +0.000 C 
ATOM     30  O   UNL     1      44.818   3.355  11.257  0.00  0.00    +0.000 OA
ENDBRANCH  18  30
ENDBRANCH  17  20
ENDBRANCH   1  17
TORSDOF 7
ENDMDL
MODEL 7
REMARK VINA RESULT:    -6.248      3.012      8.485
REMARK INTER + INTRA:         -10.411
REMARK INTER:                  -9.040
REMARK INTRA:                  -1.371
REMARK UNBOUND:                -1.606
REMARK  Name = 
REMARK  10 active torsions:
REMARK  status: ('A' for Active; 'I' for Inactive)
REMARK    1  A    between atoms: C_1  and  O_2
REMARK    2  A    between atoms: O_2  and  C_3
REMARK    3  A    between atoms: C_5  and  O_6
REMARK    4  A    between atoms: O_6  and  C_7
REMARK    5  A    between atoms: C_7  and  C_8
REMARK    6  A    between atoms: C_8  and  C_9
REMARK    7  A    between atoms: C_8  and  C_10
REMARK    8  A    between atoms: C_8  and  C_11
REMARK    9  A    between atoms: C_15  and  C_16
REMARK   10  A    between atoms: C_25  and  C_26
REMARK                            x       y       z     vdW  Elec       q    Type
REMARK                         _______ _______ _______ _____ _____    ______ ____
ROOT
ATOM      1  C   UNL     1      46.356   6.172  12.379  0.00  0.00    +0.000 C 
ENDROOT
BRANCH   1   2
ATOM      2  C   UNL     1      44.883   6.009  11.929  0.00  0.00    +0.000 C 
ATOM      3  C   UNL     1      43.945   6.136  13.149  0.00  0.00    +0.000 C 
ATOM      4  C   UNL     1      44.551   7.176  10.968  0.00  0.00    +0.000 C 
BRANCH   2   5
ATOM      5  C   UNL     1      44.676   4.612  11.305  0.00  0.00    +0.000 A 
ATOM      6  C   UNL     1      43.656   3.763  11.770  0.00  0.00    +0.000 A 
ATOM      7  C   UNL     1      43.407   2.532  11.164  0.00  0.00    +0.000 A 
ATOM      8  C   UNL     1      44.154   2.136  10.058  0.00  0.00    +0.000 A 
ATOM      9  C   UNL     1      45.163   2.958   9.534  0.00  0.00    +0.000 A 
ATOM     10  C   UNL     1      45.430   4.170  10.201  0.00  0.00    +0.000 A 
BRANCH   9  11
ATOM     11  C   UNL     1      45.849   2.629   8.266  0.00  0.00    +0.000 A 
ATOM     12  C   UNL     1      46.026   3.607   7.277  0.00  0.00    +0.000 A 
ATOM     13  C   UNL     1      46.744   3.299   6.133  0.00  0.00    +0.000 A 
ATOM     14  N   UNL     1      47.304   2.096   5.901  0.00  0.00    +0.000 NA
ATOM     15  C   UNL     1      47.131   1.160   6.855  0.00  0.00    +0.000 A 
ATOM     16  C   UNL     1      46.419   1.371   8.028  0.00  0.00    +0.000 A 
ENDBRANCH   9  11
ENDBRANCH   2   5
ENDBRANCH   1   2
BRANCH   1  17
ATOM     17  O   UNL     1      46.795   5.033  13.133  0.00  0.00    +0.000 OA
BRANCH  17  20
ATOM     18  C   UNL     1      47.810   4.866  16.709  0.00  0.00    +0.000 A 
ATOM     19  C   UNL     1      47.176   4.535  15.505  0.00  0.00    +0.000 A 
ATOM     20  C   UNL     1      47.371   5.294  14.347  0.00  0.00    +0.000 A 
ATOM     21  C   UNL     1      48.201   6.411  14.391  0.00  0.00    +0.000 A 
ATOM     22  C   UNL     1      48.843   6.754  15.582  0.00  0.00    +0.000 A 
ATOM     23  C   UNL     1      48.665   5.983  16.747  0.00  0.00    +0.000 A 
BRANCH  23  24
ATOM     24  C   UNL     1      49.452   6.402  17.950  0.00  0.00    +0.000 C 
ATOM     25  N   UNL     1      50.425   5.565  18.406  0.00  0.00    +0.000 N 
ATOM     26  O   UNL     1      49.254   7.477  18.503  0.00  0.00    +0.000 OA
ATOM     27  H   UNL     1      50.577   4.651  17.994  0.00  0.00    +0.000 HD
ATOM     28  H   UNL     1      50.970   5.847  19.208  0.00  0.00    +0.000 HD
ENDBRANCH  23  24
BRANCH  18  30
ATOM     29  C   UNL     1      48.184   2.884  17.998  0.00  0.00    +0.000 C 
ATOM     30  O   UNL     1      47.582   4.169  17.872  0.00  0.00    +0.000 OA
ENDBRANCH  18  30
ENDBRANCH  17  20
ENDBRANCH   1  17
TORSDOF 7
ENDMDL
MODEL 8
REMARK VINA RESULT:    -5.954      4.003      7.747
REMARK INTER + INTRA:          -9.996
REMARK INTER:                  -7.963
REMARK INTRA:                  -2.033
REMARK UNBOUND:                -1.606
REMARK  Name = 
REMARK  10 active torsions:
REMARK  status: ('A' for Active; 'I' for Inactive)
REMARK    1  A    between atoms: C_1  and  O_2
REMARK    2  A    between atoms: O_2  and  C_3
REMARK    3  A    between atoms: C_5  and  O_6
REMARK    4  A    between atoms: O_6  and  C_7
REMARK    5  A    between atoms: C_7  and  C_8
REMARK    6  A    between atoms: C_8  and  C_9
REMARK    7  A    between atoms: C_8  and  C_10
REMARK    8  A    between atoms: C_8  and  C_11
REMARK    9  A    between atoms: C_15  and  C_16
REMARK   10  A    between atoms: C_25  and  C_26
REMARK                            x       y       z     vdW  Elec       q    Type
REMARK                         _______ _______ _______ _____ _____    ______ ____
ROOT
ATOM      1  C   UNL     1      46.585   4.295  13.040  0.00  0.00    +0.000 C 
ENDROOT
BRANCH   1   2
ATOM      2  C   UNL     1      45.512   5.173  12.348  0.00  0.00    +0.000 C 
ATOM      3  C   UNL     1      45.286   4.680  10.902  0.00  0.00    +0.000 C 
ATOM      4  C   UNL     1      44.181   4.982  13.114  0.00  0.00    +0.000 C 
BRANCH   2   5
ATOM      5  C   UNL     1      45.990   6.639  12.289  0.00  0.00    +0.000 A 
ATOM      6  C   UNL     1      45.172   7.679  12.764  0.00  0.00    +0.000 A 
ATOM      7  C   UNL     1      45.621   8.999  12.790  0.00  0.00    +0.000 A 
ATOM      8  C   UNL     1      46.914   9.303  12.370  0.00  0.00    +0.000 A 
ATOM      9  C   UNL     1      47.782   8.300  11.916  0.00  0.00    +0.000 A 
ATOM     10  C   UNL     1      47.281   6.985  11.847  0.00  0.00    +0.000 A 
BRANCH   9  11
ATOM     11  C   UNL     1      49.205   8.580  11.625  0.00  0.00    +0.000 A 
ATOM     12  C   UNL     1      50.094   7.534  11.340  0.00  0.00    +0.000 A 
ATOM     13  C   UNL     1      51.402   7.827  10.990  0.00  0.00    +0.000 A 
ATOM     14  N   UNL     1      51.891   9.079  10.895  0.00  0.00    +0.000 NA
ATOM     15  C   UNL     1      51.032  10.080  11.171  0.00  0.00    +0.000 A 
ATOM     16  C   UNL     1      49.708   9.886  11.541  0.00  0.00    +0.000 A 
ENDBRANCH   9  11
ENDBRANCH   2   5
ENDBRANCH   1   2
BRANCH   1  17
ATOM     17  O   UNL     1      46.269   4.086  14.423  0.00  0.00    +0.000 OA
BRANCH  17  20
ATOM     18  C   UNL     1      48.886   5.958  16.291  0.00  0.00    +0.000 A 
ATOM     19  C   UNL     1      47.916   5.665  15.324  0.00  0.00    +0.000 A 
ATOM     20  C   UNL     1      47.233   4.445  15.327  0.00  0.00    +0.000 A 
ATOM     21  C   UNL     1      47.528   3.495  16.300  0.00  0.00    +0.000 A 
ATOM     22  C   UNL     1      48.490   3.772  17.273  0.00  0.00    +0.000 A 
ATOM     23  C   UNL     1      49.169   5.006  17.287  0.00  0.00    +0.000 A 
BRANCH  23  24
ATOM     24  C   UNL     1      50.132   5.223  18.413  0.00  0.00    +0.000 C 
ATOM     25  N   UNL     1      51.381   5.675  18.113  0.00  0.00    +0.000 N 
ATOM     26  O   UNL     1      49.810   5.029  19.580  0.00  0.00    +0.000 OA
ATOM     27  H   UNL     1      51.686   5.799  17.154  0.00  0.00    +0.000 HD
ATOM     28  H   UNL     1      52.032   5.838  18.868  0.00  0.00    +0.000 HD
ENDBRANCH  23  24
BRANCH  18  30
ATOM     29  C   UNL     1      50.287   7.458  15.057  0.00  0.00    +0.000 C 
ATOM     30  O   UNL     1      49.613   7.125  16.268  0.00  0.00    +0.000 OA
ENDBRANCH  18  30
ENDBRANCH  17  20
ENDBRANCH   1  17
TORSDOF 7
ENDMDL
MODEL 9
REMARK VINA RESULT:    -5.931      3.635      5.919
REMARK INTER + INTRA:          -9.964
REMARK INTER:                  -8.296
REMARK INTRA:                  -1.668
REMARK UNBOUND:                -1.606
REMARK  Name = 
REMARK  10 active torsions:
REMARK  status: ('A' for Active; 'I' for Inactive)
REMARK    1  A    between atoms: C_1  and  O_2
REMARK    2  A    between atoms: O_2  and  C_3
REMARK    3  A    between atoms: C_5  and  O_6
REMARK    4  A    between atoms: O_6  and  C_7
REMARK    5  A    between atoms: C_7  and  C_8
REMARK    6  A    between atoms: C_8  and  C_9
REMARK    7  A    between atoms: C_8  and  C_10
REMARK    8  A    between atoms: C_8  and  C_11
REMARK    9  A    between atoms: C_15  and  C_16
REMARK   10  A    between atoms: C_25  and  C_26
REMARK                            x       y       z     vdW  Elec       q    Type
REMARK                         _______ _______ _______ _____ _____    ______ ____
ROOT
ATOM      1  C   UNL     1      48.836   8.174  12.159  0.00  0.00    +0.000 C 
ENDROOT
BRANCH   1   2
ATOM      2  C   UNL     1      49.656   9.129  13.063  0.00  0.00    +0.000 C 
ATOM      3  C   UNL     1      50.656   9.932  12.204  0.00  0.00    +0.000 C 
ATOM      4  C   UNL     1      48.671  10.143  13.694  0.00  0.00    +0.000 C 
BRANCH   2   5
ATOM      5  C   UNL     1      50.455   8.312  14.100  0.00  0.00    +0.000 A 
ATOM      6  C   UNL     1      51.836   8.521  14.267  0.00  0.00    +0.000 A 
ATOM      7  C   UNL     1      52.556   7.847  15.253  0.00  0.00    +0.000 A 
ATOM      8  C   UNL     1      51.903   6.972  16.117  0.00  0.00    +0.000 A 
ATOM      9  C   UNL     1      50.522   6.750  16.014  0.00  0.00    +0.000 A 
ATOM     10  C   UNL     1      49.831   7.400  14.973  0.00  0.00    +0.000 A 
BRANCH   9  11
ATOM     11  C   UNL     1      49.788   5.957  17.024  0.00  0.00    +0.000 A 
ATOM     12  C   UNL     1      50.256   4.694  17.416  0.00  0.00    +0.000 A 
ATOM     13  C   UNL     1      49.599   4.005  18.423  0.00  0.00    +0.000 A 
ATOM     14  N   UNL     1      48.518   4.479  19.073  0.00  0.00    +0.000 NA
ATOM     15  C   UNL     1      48.074   5.693  18.693  0.00  0.00    +0.000 A 
ATOM     16  C   UNL     1      48.657   6.452  17.688  0.00  0.00    +0.000 A 
ENDBRANCH   9  11
ENDBRANCH   2   5
ENDBRANCH   1   2
BRANCH   1  17
ATOM     17  O   UNL     1      47.456   8.149  12.550  0.00  0.00    +0.000 OA
BRANCH  17  20
ATOM     18  C   UNL     1      46.393   4.657  13.271  0.00  0.00    +0.000 A 
ATOM     19  C   UNL     1      47.079   5.873  13.384  0.00  0.00    +0.000 A 
ATOM     20  C   UNL     1      46.834   6.930  12.503  0.00  0.00    +0.000 A 
ATOM     21  C   UNL     1      45.900   6.772  11.484  0.00  0.00    +0.000 A 
ATOM     22  C   UNL     1      45.205   5.567  11.359  0.00  0.00    +0.000 A 
ATOM     23  C   UNL     1      45.433   4.505  12.254  0.00  0.00    +0.000 A 
BRANCH  23  24
ATOM     24  C   UNL     1      44.586   3.283  12.070  0.00  0.00    +0.000 C 
ATOM     25  N   UNL     1      44.773   2.535  10.948  0.00  0.00    +0.000 N 
ATOM     26  O   UNL     1      43.763   2.941  12.910  0.00  0.00    +0.000 OA
ATOM     27  H   UNL     1      45.415   2.822  10.217  0.00  0.00    +0.000 HD
ATOM     28  H   UNL     1      44.216   1.702  10.823  0.00  0.00    +0.000 HD
ENDBRANCH  23  24
BRANCH  18  30
ATOM     29  C   UNL     1      47.206   3.861  15.378  0.00  0.00    +0.000 C 
ATOM     30  O   UNL     1      46.666   3.585  14.089  0.00  0.00    +0.000 OA
ENDBRANCH  18  30
ENDBRANCH  17  20
ENDBRANCH   1  17
TORSDOF 7
ENDMDL
