MODEL 1
REMARK VINA RESULT:    -8.039      0.000      0.000
REMARK INTER + INTRA:         -11.392
REMARK INTER:                 -10.624
REMARK INTRA:                  -0.768
REMARK UNBOUND:                -0.768
REMARK  Name = 
REMARK  6 active torsions:
REMARK  status: ('A' for Active; 'I' for Inactive)
REMARK    1  A    between atoms: N_1  and  C_2
REMARK    2  A    between atoms: C_2  and  C_3
REMARK    3  A    between atoms: C_3  and  C_4
REMARK    4  A    between atoms: C_7  and  C_8
REMARK    5  A    between atoms: C_8  and  N_9
REMARK    6  A    between atoms: C_14  and  C_15
REMARK                            x       y       z     vdW  Elec       q    Type
REMARK                         _______ _______ _______ _____ _____    ______ ____
ROOT
ATOM      1  N   UNL     1      43.612   4.034  12.215  0.00  0.00    +0.000 N 
ATOM      2  N   UNL     1      42.676   5.013  12.279  0.00  0.00    +0.000 NA
ATOM      3  C   UNL     1      43.393   6.091  12.609  0.00  0.00    +0.000 A 
ATOM      4  C   UNL     1      44.755   5.788  12.833  0.00  0.00    +0.000 A 
ATOM      5  C   UNL     1      45.935   6.514  13.060  0.00  0.00    +0.000 A 
ATOM      6  C   UNL     1      47.133   5.815  13.297  0.00  0.00    +0.000 A 
ATOM      7  C   UNL     1      47.114   4.419  13.431  0.00  0.00    +0.000 A 
ATOM      8  C   UNL     1      45.955   3.681  13.157  0.00  0.00    +0.000 A 
ATOM      9  C   UNL     1      44.814   4.400  12.784  0.00  0.00    +0.000 A 
ENDROOT
BRANCH   6  10
ATOM     10  C   UNL     1      48.393   6.615  13.313  0.00  0.00    +0.000 C 
ATOM     11  N   UNL     1      48.655   7.459  12.271  0.00  0.00    +0.000 N 
ATOM     12  O   UNL     1      49.171   6.563  14.259  0.00  0.00    +0.000 OA
ATOM     13  H   UNL     1      48.076   7.587  11.458  0.00  0.00    +0.000 HD
ATOM     14  H   UNL     1      49.484   8.033  12.357  0.00  0.00    +0.000 HD
ENDBRANCH   6  10
BRANCH   1  15
ATOM     15  C   UNL     1      43.374   2.862  11.375  0.00  0.00    +0.000 C 
BRANCH  15  19
ATOM     16  C   UNL     1      45.836   3.118   7.789  0.00  0.00    +0.000 A 
ATOM     17  C   UNL     1      45.610   1.880   8.418  0.00  0.00    +0.000 A 
ATOM     18  C   UNL     1      44.797   1.792   9.552  0.00  0.00    +0.000 A 
ATOM     19  C   UNL     1      44.184   2.934  10.092  0.00  0.00    +0.000 A 
ATOM     20  C   UNL     1      44.395   4.162   9.448  0.00  0.00    +0.000 A 
ATOM     21  C   UNL     1      45.204   4.249   8.310  0.00  0.00    +0.000 A 
BRANCH  16  22
ATOM     22  C   UNL     1      46.764   3.225   6.599  0.00  0.00    +0.000 C 
BRANCH  22  23
ATOM     23  C   UNL     1      48.081   2.465   6.785  0.00  0.00    +0.000 C 
BRANCH  23  24
ATOM     24  N   UNL     1      48.529   1.868   5.521  0.00  0.00    +0.000 NA
ATOM     25  H   UNL     1      47.827   2.034   4.800  0.00  0.00    +0.000 HD
ATOM     26  H   UNL     1      48.601   0.857   5.622  0.00  0.00    +0.000 HD
ENDBRANCH  23  24
ENDBRANCH  22  23
ENDBRANCH  16  22
ENDBRANCH  15  19
ENDBRANCH   1  15
TORSDOF 6
ENDMDL
MODEL 2
REMARK VINA RESULT:    -7.925      2.457      6.262
REMARK INTER + INTRA:         -11.241
REMARK INTER:                 -10.349
REMARK INTRA:                  -0.892
REMARK UNBOUND:                -0.768
REMARK  Name = 
REMARK  6 active torsions:
REMARK  status: ('A' for Active; 'I' for Inactive)
REMARK    1  A    between atoms: N_1  and  C_2
REMARK    2  A    between atoms: C_2  and  C_3
REMARK    3  A    between atoms: C_3  and  C_4
REMARK    4  A    between atoms: C_7  and  C_8
REMARK    5  A    between atoms: C_8  and  N_9
REMARK    6  A    between atoms: C_14  and  C_15
REMARK                            x       y       z     vdW  Elec       q    Type
REMARK                         _______ _______ _______ _____ _____    ______ ____
ROOT
ATOM      1  N   UNL     1      43.833   4.160  10.471  0.00  0.00    +0.000 N 
ATOM      2  N   UNL     1      43.263   3.115  11.121  0.00  0.00    +0.000 NA
ATOM      3  C   UNL     1      43.876   2.057  10.583  0.00  0.00    +0.000 A 
ATOM      4  C   UNL     1      44.766   2.416   9.547  0.00  0.00    +0.000 A 
ATOM      5  C   UNL     1      45.730   1.764   8.762  0.00  0.00    +0.000 A 
ATOM      6  C   UNL     1      46.399   2.489   7.757  0.00  0.00    +0.000 A 
ATOM      7  C   UNL     1      46.009   3.804   7.467  0.00  0.00    +0.000 A 
ATOM      8  C   UNL     1      45.085   4.482   8.274  0.00  0.00    +0.000 A 
ATOM      9  C   UNL     1      44.544   3.775   9.354  0.00  0.00    +0.000 A 
ENDROOT
BRANCH   6  10
ATOM     10  C   UNL     1      47.562   1.822   7.101  0.00  0.00    +0.000 C 
ATOM     11  N   UNL     1      48.478   2.589   6.438  0.00  0.00    +0.000 N 
ATOM     12  O   UNL     1      47.734   0.611   7.183  0.00  0.00    +0.000 OA
ATOM     13  H   UNL     1      48.438   3.588   6.326  0.00  0.00    +0.000 HD
ATOM     14  H   UNL     1      49.286   2.104   6.070  0.00  0.00    +0.000 HD
ENDBRANCH   6  10
BRANCH   1  15
ATOM     15  C   UNL     1      43.871   5.473  11.110  0.00  0.00    +0.000 C 
BRANCH  15  19
ATOM     16  C   UNL     1      47.699   6.380  12.984  0.00  0.00    +0.000 A 
ATOM     17  C   UNL     1      46.827   5.434  13.553  0.00  0.00    +0.000 A 
ATOM     18  C   UNL     1      45.610   5.121  12.938  0.00  0.00    +0.000 A 
ATOM     19  C   UNL     1      45.229   5.740  11.737  0.00  0.00    +0.000 A 
ATOM     20  C   UNL     1      46.112   6.665  11.162  0.00  0.00    +0.000 A 
ATOM     21  C   UNL     1      47.331   6.974  11.775  0.00  0.00    +0.000 A 
BRANCH  16  22
ATOM     22  C   UNL     1      48.986   6.764  13.679  0.00  0.00    +0.000 C 
BRANCH  22  23
ATOM     23  C   UNL     1      48.821   6.981  15.187  0.00  0.00    +0.000 C 
BRANCH  23  24
ATOM     24  N   UNL     1      49.608   6.006  15.950  0.00  0.00    +0.000 NA
ATOM     25  H   UNL     1      49.810   5.198  15.361  0.00  0.00    +0.000 HD
ATOM     26  H   UNL     1      49.059   5.656  16.734  0.00  0.00    +0.000 HD
ENDBRANCH  23  24
ENDBRANCH  22  23
ENDBRANCH  16  22
ENDBRANCH  15  19
ENDBRANCH   1  15
TORSDOF 6
ENDMDL
MODEL 3
REMARK VINA RESULT:    -7.253      1.745      2.467
REMARK INTER + INTRA:         -10.353
REMARK INTER:                  -9.755
REMARK INTRA:                  -0.598
REMARK UNBOUND:                -0.768
REMARK  Name = 
REMARK  6 active torsions:
REMARK  status: ('A' for Active; 'I' for Inactive)
REMARK    1  A    between atoms: N_1  and  C_2
REMARK    2  A    between atoms: C_2  and  C_3
REMARK    3  A    between atoms: C_3  and  C_4
REMARK    4  A    between atoms: C_7  and  C_8
REMARK    5  A    between atoms: C_8  and  N_9
REMARK    6  A    between atoms: C_14  and  C_15
REMARK                            x       y       z     vdW  Elec       q    Type
REMARK                         _______ _______ _______ _____ _____    ______ ____
ROOT
ATOM      1  N   UNL     1      45.870   4.623  12.423  0.00  0.00    +0.000 N 
ATOM      2  N   UNL     1      46.052   3.587  13.279  0.00  0.00    +0.000 NA
ATOM      3  C   UNL     1      46.795   4.129  14.249  0.00  0.00    +0.000 A 
ATOM      4  C   UNL     1      47.150   5.468  13.976  0.00  0.00    +0.000 A 
ATOM      5  C   UNL     1      47.774   6.517  14.669  0.00  0.00    +0.000 A 
ATOM      6  C   UNL     1      48.000   7.738  14.005  0.00  0.00    +0.000 A 
ATOM      7  C   UNL     1      47.721   7.851  12.636  0.00  0.00    +0.000 A 
ATOM      8  C   UNL     1      47.054   6.830  11.945  0.00  0.00    +0.000 A 
ATOM      9  C   UNL     1      46.715   5.684  12.673  0.00  0.00    +0.000 A 
ENDROOT
BRANCH   6  10
ATOM     10  C   UNL     1      48.459   8.888  14.839  0.00  0.00    +0.000 C 
ATOM     11  N   UNL     1      47.692   9.288  15.896  0.00  0.00    +0.000 N 
ATOM     12  O   UNL     1      49.528   9.448  14.620  0.00  0.00    +0.000 OA
ATOM     13  H   UNL     1      46.811   8.887  16.168  0.00  0.00    +0.000 HD
ATOM     14  H   UNL     1      48.075  10.024  16.474  0.00  0.00    +0.000 HD
ENDBRANCH   6  10
BRANCH   1  15
ATOM     15  C   UNL     1      44.701   4.638  11.546  0.00  0.00    +0.000 C 
BRANCH  15  19
ATOM     16  C   UNL     1      45.826   2.997   7.670  0.00  0.00    +0.000 A 
ATOM     17  C   UNL     1      45.194   2.191   8.635  0.00  0.00    +0.000 A 
ATOM     18  C   UNL     1      44.807   2.723   9.868  0.00  0.00    +0.000 A 
ATOM     19  C   UNL     1      45.036   4.074  10.176  0.00  0.00    +0.000 A 
ATOM     20  C   UNL     1      45.645   4.878   9.202  0.00  0.00    +0.000 A 
ATOM     21  C   UNL     1      46.028   4.347   7.966  0.00  0.00    +0.000 A 
BRANCH  16  22
ATOM     22  C   UNL     1      46.300   2.408   6.360  0.00  0.00    +0.000 C 
BRANCH  22  23
ATOM     23  C   UNL     1      47.478   1.441   6.518  0.00  0.00    +0.000 C 
BRANCH  23  24
ATOM     24  N   UNL     1      48.602   1.833   5.660  0.00  0.00    +0.000 NA
ATOM     25  H   UNL     1      48.347   2.662   5.125  0.00  0.00    +0.000 HD
ATOM     26  H   UNL     1      48.789   1.099   4.979  0.00  0.00    +0.000 HD
ENDBRANCH  23  24
ENDBRANCH  22  23
ENDBRANCH  16  22
ENDBRANCH  15  19
ENDBRANCH   1  15
TORSDOF 6
ENDMDL
MODEL 4
REMARK VINA RESULT:    -6.869      1.894      2.315
REMARK INTER + INTRA:          -9.845
REMARK INTER:                  -9.161
REMARK INTRA:                  -0.685
REMARK UNBOUND:                -0.768
REMARK  Name = 
REMARK  6 active torsions:
REMARK  status: ('A' for Active; 'I' for Inactive)
REMARK    1  A    between atoms: N_1  and  C_2
REMARK    2  A    between atoms: C_2  and  C_3
REMARK    3  A    between atoms: C_3  and  C_4
REMARK    4  A    between atoms: C_7  and  C_8
REMARK    5  A    between atoms: C_8  and  N_9
REMARK    6  A    between atoms: C_14  and  C_15
REMARK                            x       y       z     vdW  Elec       q    Type
REMARK                         _______ _______ _______ _____ _____    ______ ____
ROOT
ATOM      1  N   UNL     1      44.614   5.771  11.111  0.00  0.00    +0.000 N 
ATOM      2  N   UNL     1      45.304   6.832  10.624  0.00  0.00    +0.000 NA
ATOM      3  C   UNL     1      46.352   6.911  11.450  0.00  0.00    +0.000 A 
ATOM      4  C   UNL     1      46.288   5.965  12.497  0.00  0.00    +0.000 A 
ATOM      5  C   UNL     1      47.139   5.526  13.524  0.00  0.00    +0.000 A 
ATOM      6  C   UNL     1      46.670   4.560  14.435  0.00  0.00    +0.000 A 
ATOM      7  C   UNL     1      45.331   4.146  14.387  0.00  0.00    +0.000 A 
ATOM      8  C   UNL     1      44.487   4.539  13.339  0.00  0.00    +0.000 A 
ATOM      9  C   UNL     1      45.029   5.390  12.369  0.00  0.00    +0.000 A 
ENDROOT
BRANCH   6  10
ATOM     10  C   UNL     1      47.672   3.963  15.366  0.00  0.00    +0.000 C 
ATOM     11  N   UNL     1      48.043   4.664  16.479  0.00  0.00    +0.000 N 
ATOM     12  O   UNL     1      48.134   2.844  15.174  0.00  0.00    +0.000 OA
ATOM     13  H   UNL     1      47.712   5.580  16.734  0.00  0.00    +0.000 HD
ATOM     14  H   UNL     1      48.670   4.193  17.117  0.00  0.00    +0.000 HD
ENDBRANCH   6  10
BRANCH   1  15
ATOM     15  C   UNL     1      43.739   5.010  10.222  0.00  0.00    +0.000 C 
BRANCH  15  19
ATOM     16  C   UNL     1      46.157   2.207   7.922  0.00  0.00    +0.000 A 
ATOM     17  C   UNL     1      45.289   1.748   8.931  0.00  0.00    +0.000 A 
ATOM     18  C   UNL     1      44.492   2.644   9.650  0.00  0.00    +0.000 A 
ATOM     19  C   UNL     1      44.533   4.022   9.385  0.00  0.00    +0.000 A 
ATOM     20  C   UNL     1      45.383   4.471   8.364  0.00  0.00    +0.000 A 
ATOM     21  C   UNL     1      46.177   3.575   7.640  0.00  0.00    +0.000 A 
BRANCH  16  22
ATOM     22  C   UNL     1      47.065   1.248   7.186  0.00  0.00    +0.000 C 
BRANCH  22  23
ATOM     23  C   UNL     1      48.364   1.894   6.695  0.00  0.00    +0.000 C 
BRANCH  23  24
ATOM     24  N   UNL     1      48.430   1.901   5.230  0.00  0.00    +0.000 NA
ATOM     25  H   UNL     1      47.943   1.083   4.865  0.00  0.00    +0.000 HD
ATOM     26  H   UNL     1      49.399   1.815   4.926  0.00  0.00    +0.000 HD
ENDBRANCH  23  24
ENDBRANCH  22  23
ENDBRANCH  16  22
ENDBRANCH  15  19
ENDBRANCH   1  15
TORSDOF 6
ENDMDL
MODEL 5
REMARK VINA RESULT:    -6.606      4.628      7.739
REMARK INTER + INTRA:          -9.498
REMARK INTER:                  -9.097
REMARK INTRA:                  -0.400
REMARK UNBOUND:                -0.768
REMARK  Name = 
REMARK  6 active torsions:
REMARK  status: ('A' for Active; 'I' for Inactive)
REMARK    1  A    between atoms: N_1  and  C_2
REMARK    2  A    between atoms: C_2  and  C_3
REMARK    3  A    between atoms: C_3  and  C_4
REMARK    4  A    between atoms: C_7  and  C_8
REMARK    5  A    between atoms: C_8  and  N_9
REMARK    6  A    between atoms: C_14  and  C_15
REMARK                            x       y       z     vdW  Elec       q    Type
REMARK                         _______ _______ _______ _____ _____    ______ ____
ROOT
ATOM      1  N   UNL     1      47.360   4.784  14.766  0.00  0.00    +0.000 N 
ATOM      2  N   UNL     1      48.091   5.919  14.634  0.00  0.00    +0.000 NA
ATOM      3  C   UNL     1      47.614   6.451  13.505  0.00  0.00    +0.000 A 
ATOM      4  C   UNL     1      46.650   5.628  12.882  0.00  0.00    +0.000 A 
ATOM      5  C   UNL     1      45.763   5.739  11.801  0.00  0.00    +0.000 A 
ATOM      6  C   UNL     1      44.968   4.631  11.450  0.00  0.00    +0.000 A 
ATOM      7  C   UNL     1      45.162   3.401  12.094  0.00  0.00    +0.000 A 
ATOM      8  C   UNL     1      46.007   3.289  13.206  0.00  0.00    +0.000 A 
ATOM      9  C   UNL     1      46.675   4.448  13.618  0.00  0.00    +0.000 A 
ENDROOT
BRANCH   6  10
ATOM     10  C   UNL     1      43.889   4.862  10.445  0.00  0.00    +0.000 C 
ATOM     11  N   UNL     1      44.069   4.417   9.166  0.00  0.00    +0.000 N 
ATOM     12  O   UNL     1      42.833   5.401  10.756  0.00  0.00    +0.000 OA
ATOM     13  H   UNL     1      44.888   3.951   8.815  0.00  0.00    +0.000 HD
ATOM     14  H   UNL     1      43.284   4.532   8.537  0.00  0.00    +0.000 HD
ENDBRANCH   6  10
BRANCH   1  15
ATOM     15  C   UNL     1      47.160   4.205  16.093  0.00  0.00    +0.000 C 
BRANCH  15  19
ATOM     16  C   UNL     1      50.980   2.722  17.576  0.00  0.00    +0.000 A 
ATOM     17  C   UNL     1      50.588   4.054  17.806  0.00  0.00    +0.000 A 
ATOM     18  C   UNL     1      49.350   4.523  17.356  0.00  0.00    +0.000 A 
ATOM     19  C   UNL     1      48.466   3.680  16.664  0.00  0.00    +0.000 A 
ATOM     20  C   UNL     1      48.851   2.347  16.458  0.00  0.00    +0.000 A 
ATOM     21  C   UNL     1      50.088   1.876  16.914  0.00  0.00    +0.000 A 
BRANCH  16  22
ATOM     22  C   UNL     1      52.343   2.229  18.009  0.00  0.00    +0.000 C 
BRANCH  22  23
ATOM     23  C   UNL     1      52.741   0.897  17.365  0.00  0.00    +0.000 C 
BRANCH  23  24
ATOM     24  N   UNL     1      52.751  -0.185  18.356  0.00  0.00    +0.000 NA
ATOM     25  H   UNL     1      51.909  -0.750  18.250  0.00  0.00    +0.000 HD
ATOM     26  H   UNL     1      52.716   0.206  19.296  0.00  0.00    +0.000 HD
ENDBRANCH  23  24
ENDBRANCH  22  23
ENDBRANCH  16  22
ENDBRANCH  15  19
ENDBRANCH   1  15
TORSDOF 6
ENDMDL
MODEL 6
REMARK VINA RESULT:    -5.526      4.171      8.194
REMARK INTER + INTRA:          -8.071
REMARK INTER:                  -7.137
REMARK INTRA:                  -0.933
REMARK UNBOUND:                -0.768
REMARK  Name = 
REMARK  6 active torsions:
REMARK  status: ('A' for Active; 'I' for Inactive)
REMARK    1  A    between atoms: N_1  and  C_2
REMARK    2  A    between atoms: C_2  and  C_3
REMARK    3  A    between atoms: C_3  and  C_4
REMARK    4  A    between atoms: C_7  and  C_8
REMARK    5  A    between atoms: C_8  and  N_9
REMARK    6  A    between atoms: C_14  and  C_15
REMARK                            x       y       z     vdW  Elec       q    Type
REMARK                         _______ _______ _______ _____ _____    ______ ____
ROOT
ATOM      1  N   UNL     1      48.200   8.427  13.044  0.00  0.00    +0.000 N 
ATOM      2  N   UNL     1      47.642   9.601  12.656  0.00  0.00    +0.000 NA
ATOM      3  C   UNL     1      46.360   9.275  12.470  0.00  0.00    +0.000 A 
ATOM      4  C   UNL     1      46.118   7.896  12.658  0.00  0.00    +0.000 A 
ATOM      5  C   UNL     1      44.992   7.060  12.723  0.00  0.00    +0.000 A 
ATOM      6  C   UNL     1      45.177   5.674  12.877  0.00  0.00    +0.000 A 
ATOM      7  C   UNL     1      46.470   5.132  12.836  0.00  0.00    +0.000 A 
ATOM      8  C   UNL     1      47.602   5.958  12.822  0.00  0.00    +0.000 A 
ATOM      9  C   UNL     1      47.383   7.340  12.812  0.00  0.00    +0.000 A 
ENDROOT
BRANCH   6  10
ATOM     10  C   UNL     1      43.962   4.855  13.163  0.00  0.00    +0.000 C 
ATOM     11  N   UNL     1      42.737   5.460  13.146  0.00  0.00    +0.000 N 
ATOM     12  O   UNL     1      44.038   3.649  13.367  0.00  0.00    +0.000 OA
ATOM     13  H   UNL     1      42.565   6.436  12.974  0.00  0.00    +0.000 HD
ATOM     14  H   UNL     1      41.937   4.855  13.275  0.00  0.00    +0.000 HD
ENDBRANCH   6  10
BRANCH   1  15
ATOM     15  C   UNL     1      49.412   8.438  13.859  0.00  0.00    +0.000 C 
BRANCH  15  19
ATOM     16  C   UNL     1      48.337   7.655  18.008  0.00  0.00    +0.000 A 
ATOM     17  C   UNL     1      49.119   6.737  17.284  0.00  0.00    +0.000 A 
ATOM     18  C   UNL     1      49.489   7.000  15.961  0.00  0.00    +0.000 A 
ATOM     19  C   UNL     1      49.092   8.186  15.322  0.00  0.00    +0.000 A 
ATOM     20  C   UNL     1      48.332   9.107  16.056  0.00  0.00    +0.000 A 
ATOM     21  C   UNL     1      47.966   8.847  17.381  0.00  0.00    +0.000 A 
BRANCH  16  22
ATOM     22  C   UNL     1      47.884   7.345  19.418  0.00  0.00    +0.000 C 
BRANCH  22  23
ATOM     23  C   UNL     1      47.538   5.868  19.634  0.00  0.00    +0.000 C 
BRANCH  23  24
ATOM     24  N   UNL     1      46.399   5.466  18.801  0.00  0.00    +0.000 NA
ATOM     25  H   UNL     1      46.733   4.906  18.017  0.00  0.00    +0.000 HD
ATOM     26  H   UNL     1      45.959   6.290  18.395  0.00  0.00    +0.000 HD
ENDBRANCH  23  24
ENDBRANCH  22  23
ENDBRANCH  16  22
ENDBRANCH  15  19
ENDBRANCH   1  15
TORSDOF 6
ENDMDL
MODEL 7
REMARK VINA RESULT:    -5.233      3.872      8.488
REMARK INTER + INTRA:          -7.684
REMARK INTER:                  -7.104
REMARK INTRA:                  -0.580
REMARK UNBOUND:                -0.768
REMARK  Name = 
REMARK  6 active torsions:
REMARK  status: ('A' for Active; 'I' for Inactive)
REMARK    1  A    between atoms: N_1  and  C_2
REMARK    2  A    between atoms: C_2  and  C_3
REMARK    3  A    between atoms: C_3  and  C_4
REMARK    4  A    between atoms: C_7  and  C_8
REMARK    5  A    between atoms: C_8  and  N_9
REMARK    6  A    between atoms: C_14  and  C_15
REMARK                            x       y       z     vdW  Elec       q    Type
REMARK                         _______ _______ _______ _____ _____    ______ ____
ROOT
ATOM      1  N   UNL     1      47.663   6.085  13.752  0.00  0.00    +0.000 N 
ATOM      2  N   UNL     1      47.685   5.197  14.777  0.00  0.00    +0.000 NA
ATOM      3  C   UNL     1      46.829   4.255  14.375  0.00  0.00    +0.000 A 
ATOM      4  C   UNL     1      46.206   4.575  13.148  0.00  0.00    +0.000 A 
ATOM      5  C   UNL     1      45.364   3.924  12.233  0.00  0.00    +0.000 A 
ATOM      6  C   UNL     1      44.900   4.630  11.107  0.00  0.00    +0.000 A 
ATOM      7  C   UNL     1      45.174   5.999  10.979  0.00  0.00    +0.000 A 
ATOM      8  C   UNL     1      46.052   6.648  11.857  0.00  0.00    +0.000 A 
ATOM      9  C   UNL     1      46.610   5.880  12.885  0.00  0.00    +0.000 A 
ENDROOT
BRANCH   6  10
ATOM     10  C   UNL     1      44.196   3.840  10.055  0.00  0.00    +0.000 C 
ATOM     11  N   UNL     1      44.084   4.363   8.797  0.00  0.00    +0.000 N 
ATOM     12  O   UNL     1      43.757   2.719  10.285  0.00  0.00    +0.000 OA
ATOM     13  H   UNL     1      44.422   5.263   8.503  0.00  0.00    +0.000 HD
ATOM     14  H   UNL     1      43.662   3.764   8.099  0.00  0.00    +0.000 HD
ENDBRANCH   6  10
BRANCH   1  15
ATOM     15  C   UNL     1      48.818   6.948  13.519  0.00  0.00    +0.000 C 
BRANCH  15  19
ATOM     16  C   UNL     1      49.690   9.163  17.169  0.00  0.00    +0.000 A 
ATOM     17  C   UNL     1      50.594   8.203  16.678  0.00  0.00    +0.000 A 
ATOM     18  C   UNL     1      50.329   7.512  15.491  0.00  0.00    +0.000 A 
ATOM     19  C   UNL     1      49.157   7.758  14.758  0.00  0.00    +0.000 A 
ATOM     20  C   UNL     1      48.271   8.732  15.240  0.00  0.00    +0.000 A 
ATOM     21  C   UNL     1      48.538   9.427  16.424  0.00  0.00    +0.000 A 
BRANCH  16  22
ATOM     22  C   UNL     1      49.945   9.867  18.483  0.00  0.00    +0.000 C 
BRANCH  22  23
ATOM     23  C   UNL     1      48.898   9.551  19.556  0.00  0.00    +0.000 C 
BRANCH  23  24
ATOM     24  N   UNL     1      48.991   8.153  19.989  0.00  0.00    +0.000 NA
ATOM     25  H   UNL     1      48.995   8.112  21.007  0.00  0.00    +0.000 HD
ATOM     26  H   UNL     1      49.878   7.754  19.684  0.00  0.00    +0.000 HD
ENDBRANCH  23  24
ENDBRANCH  22  23
ENDBRANCH  16  22
ENDBRANCH  15  19
ENDBRANCH   1  15
TORSDOF 6
ENDMDL
MODEL 8
REMARK VINA RESULT:    -5.227      3.477      6.822
REMARK INTER + INTRA:          -7.676
REMARK INTER:                  -7.007
REMARK INTRA:                  -0.669
REMARK UNBOUND:                -0.768
REMARK  Name = 
REMARK  6 active torsions:
REMARK  status: ('A' for Active; 'I' for Inactive)
REMARK    1  A    between atoms: N_1  and  C_2
REMARK    2  A    between atoms: C_2  and  C_3
REMARK    3  A    between atoms: C_3  and  C_4
REMARK    4  A    between atoms: C_7  and  C_8
REMARK    5  A    between atoms: C_8  and  N_9
REMARK    6  A    between atoms: C_14  and  C_15
REMARK                            x       y       z     vdW  Elec       q    Type
REMARK                         _______ _______ _______ _____ _____    ______ ____
ROOT
ATOM      1  N   UNL     1      47.263   7.502  13.459  0.00  0.00    +0.000 N 
ATOM      2  N   UNL     1      47.966   6.633  14.227  0.00  0.00    +0.000 NA
ATOM      3  C   UNL     1      47.452   5.448  13.885  0.00  0.00    +0.000 A 
ATOM      4  C   UNL     1      46.380   5.566  12.973  0.00  0.00    +0.000 A 
ATOM      5  C   UNL     1      45.595   4.690  12.207  0.00  0.00    +0.000 A 
ATOM      6  C   UNL     1      44.546   5.214  11.427  0.00  0.00    +0.000 A 
ATOM      7  C   UNL     1      44.218   6.574  11.522  0.00  0.00    +0.000 A 
ATOM      8  C   UNL     1      45.023   7.466  12.242  0.00  0.00    +0.000 A 
ATOM      9  C   UNL     1      46.142   6.933  12.891  0.00  0.00    +0.000 A 
ENDROOT
BRANCH   6  10
ATOM     10  C   UNL     1      43.886   4.283  10.466  0.00  0.00    +0.000 C 
ATOM     11  N   UNL     1      43.972   4.542   9.127  0.00  0.00    +0.000 N 
ATOM     12  O   UNL     1      43.308   3.273  10.850  0.00  0.00    +0.000 OA
ATOM     13  H   UNL     1      44.434   5.332   8.709  0.00  0.00    +0.000 HD
ATOM     14  H   UNL     1      43.571   3.849   8.510  0.00  0.00    +0.000 HD
ENDBRANCH   6  10
BRANCH   1  15
ATOM     15  C   UNL     1      47.851   8.792  13.107  0.00  0.00    +0.000 C 
BRANCH  15  19
ATOM     16  C   UNL     1      51.863   8.429  11.447  0.00  0.00    +0.000 A 
ATOM     17  C   UNL     1      51.626   9.223  12.584  0.00  0.00    +0.000 A 
ATOM     18  C   UNL     1      50.344   9.318  13.135  0.00  0.00    +0.000 A 
ATOM     19  C   UNL     1      49.262   8.624  12.570  0.00  0.00    +0.000 A 
ATOM     20  C   UNL     1      49.509   7.817  11.450  0.00  0.00    +0.000 A 
ATOM     21  C   UNL     1      50.792   7.717  10.902  0.00  0.00    +0.000 A 
BRANCH  16  22
ATOM     22  C   UNL     1      53.236   8.375  10.814  0.00  0.00    +0.000 C 
BRANCH  22  23
ATOM     23  C   UNL     1      53.806   6.956  10.719  0.00  0.00    +0.000 C 
BRANCH  23  24
ATOM     24  N   UNL     1      54.421   6.548  11.987  0.00  0.00    +0.000 NA
ATOM     25  H   UNL     1      54.779   7.371  12.470  0.00  0.00    +0.000 HD
ATOM     26  H   UNL     1      55.226   5.951  11.805  0.00  0.00    +0.000 HD
ENDBRANCH  23  24
ENDBRANCH  22  23
ENDBRANCH  16  22
ENDBRANCH  15  19
ENDBRANCH   1  15
TORSDOF 6
ENDMDL
