MODEL 1
REMARK VINA RESULT:    -8.624      0.000      0.000
REMARK INTER + INTRA:         -11.238
REMARK INTER:                 -10.641
REMARK INTRA:                  -0.597
REMARK UNBOUND:                -0.597
REMARK  Name = 
REMARK  4 active torsions:
REMARK  status: ('A' for Active; 'I' for Inactive)
REMARK    1  A    between atoms: C_2  and  C_4
REMARK    2  A    between atoms: C_7  and  N_8
REMARK    3  A    between atoms: N_8  and  C_9
REMARK    4  A    between atoms: C_9  and  C_10
REMARK                            x       y       z     vdW  Elec       q    Type
REMARK                         _______ _______ _______ _____ _____    ______ ____
ROOT
ATOM      1  N   UNL     1      44.028   4.952   9.869  0.00  0.00    +0.000 N 
ATOM      2  H   UNL     1      44.225   5.844   9.411  0.00  0.00    +0.000 HD
ENDROOT
BRANCH   1   6
ATOM      3  C   UNL     1      46.189   2.051   7.844  0.00  0.00    +0.000 A 
ATOM      4  C   UNL     1      46.300   3.372   7.442  0.00  0.00    +0.000 A 
ATOM      5  C   UNL     1      45.494   4.312   8.081  0.00  0.00    +0.000 A 
ATOM      6  C   UNL     1      44.603   3.927   9.090  0.00  0.00    +0.000 A 
ATOM      7  C   UNL     1      44.514   2.563   9.350  0.00  0.00    +0.000 A 
ATOM      8  N   UNL     1      45.282   1.609   8.759  0.00  0.00    +0.000 NA
BRANCH   3  10
ATOM      9  N   UNL     1      46.905  -0.257   7.642  0.00  0.00    +0.000 N 
ATOM     10  C   UNL     1      47.188   1.048   7.351  0.00  0.00    +0.000 C 
ATOM     11  O   UNL     1      48.220   1.370   6.769  0.00  0.00    +0.000 OA
ATOM     12  H   UNL     1      47.607  -0.961   7.476  0.00  0.00    +0.000 HD
ATOM     13  H   UNL     1      46.097  -0.464   8.221  0.00  0.00    +0.000 HD
ENDBRANCH   3  10
ENDBRANCH   1   6
BRANCH   1  14
ATOM     14  C   UNL     1      44.086   5.035  11.341  0.00  0.00    +0.000 C 
ATOM     15  C   UNL     1      43.036   4.367  12.207  0.00  0.00    +0.000 C 
ATOM     16  C   UNL     1      42.924   5.830  11.945  0.00  0.00    +0.000 C 
BRANCH  14  17
ATOM     17  C   UNL     1      45.450   5.311  11.979  0.00  0.00    +0.000 A 
ATOM     18  C   UNL     1      46.304   6.307  11.474  0.00  0.00    +0.000 A 
ATOM     19  C   UNL     1      47.401   6.765  12.211  0.00  0.00    +0.000 A 
ATOM     20  C   UNL     1      47.689   6.210  13.459  0.00  0.00    +0.000 A 
ATOM     21 CL   UNL     1      48.957   6.924  14.387  0.00  0.00    +0.000 Cl
ATOM     22  C   UNL     1      46.919   5.148  13.934  0.00  0.00    +0.000 A 
ATOM     23 CL   UNL     1      47.221   4.387  15.455  0.00  0.00    +0.000 Cl
ATOM     24  C   UNL     1      45.819   4.702  13.193  0.00  0.00    +0.000 A 
ENDBRANCH  14  17
ENDBRANCH   1  14
TORSDOF 4
ENDMDL
MODEL 2
REMARK VINA RESULT:    -8.256      0.891      1.663
REMARK INTER + INTRA:         -10.784
REMARK INTER:                 -10.340
REMARK INTRA:                  -0.444
REMARK UNBOUND:                -0.597
REMARK  Name = 
REMARK  4 active torsions:
REMARK  status: ('A' for Active; 'I' for Inactive)
REMARK    1  A    between atoms: C_2  and  C_4
REMARK    2  A    between atoms: C_7  and  N_8
REMARK    3  A    between atoms: N_8  and  C_9
REMARK    4  A    between atoms: C_9  and  C_10
REMARK                            x       y       z     vdW  Elec       q    Type
REMARK                         _______ _______ _______ _____ _____    ______ ____
ROOT
ATOM      1  N   UNL     1      44.163   5.000  10.096  0.00  0.00    +0.000 N 
ATOM      2  H   UNL     1      44.491   5.902   9.744  0.00  0.00    +0.000 HD
ENDROOT
BRANCH   1   6
ATOM      3  C   UNL     1      46.185   2.101   7.930  0.00  0.00    +0.000 A 
ATOM      4  C   UNL     1      46.384   3.434   7.613  0.00  0.00    +0.000 A 
ATOM      5  C   UNL     1      45.624   4.382   8.296  0.00  0.00    +0.000 A 
ATOM      6  C   UNL     1      44.691   3.992   9.264  0.00  0.00    +0.000 A 
ATOM      7  C   UNL     1      44.513   2.622   9.437  0.00  0.00    +0.000 A 
ATOM      8  N   UNL     1      45.234   1.661   8.800  0.00  0.00    +0.000 NA
BRANCH   3  10
ATOM      9  N   UNL     1      46.814  -0.228   7.681  0.00  0.00    +0.000 N 
ATOM     10  C   UNL     1      47.131   1.070   7.392  0.00  0.00    +0.000 C 
ATOM     11  O   UNL     1      48.151   1.363   6.776  0.00  0.00    +0.000 OA
ATOM     12  H   UNL     1      47.486  -0.953   7.483  0.00  0.00    +0.000 HD
ATOM     13  H   UNL     1      46.021  -0.414   8.287  0.00  0.00    +0.000 HD
ENDBRANCH   3  10
ENDBRANCH   1   6
BRANCH   1  14
ATOM     14  C   UNL     1      44.104   4.943  11.569  0.00  0.00    +0.000 C 
ATOM     15  C   UNL     1      43.303   3.871  12.282  0.00  0.00    +0.000 C 
ATOM     16  C   UNL     1      42.706   5.228  12.127  0.00  0.00    +0.000 C 
BRANCH  14  17
ATOM     17  C   UNL     1      45.249   5.597  12.347  0.00  0.00    +0.000 A 
ATOM     18  C   UNL     1      45.929   4.904  13.364  0.00  0.00    +0.000 A 
ATOM     19  C   UNL     1      47.147   5.371  13.871  0.00  0.00    +0.000 A 
ATOM     20  C   UNL     1      47.695   6.562  13.394  0.00  0.00    +0.000 A 
ATOM     21 CL   UNL     1      49.272   7.003  13.942  0.00  0.00    +0.000 Cl
ATOM     22  C   UNL     1      46.987   7.321  12.461  0.00  0.00    +0.000 A 
ATOM     23 CL   UNL     1      47.579   8.819  11.837  0.00  0.00    +0.000 Cl
ATOM     24  C   UNL     1      45.773   6.842  11.955  0.00  0.00    +0.000 A 
ENDBRANCH  14  17
ENDBRANCH   1  14
TORSDOF 4
ENDMDL
MODEL 3
REMARK VINA RESULT:    -7.984      1.542      1.984
REMARK INTER + INTRA:         -10.448
REMARK INTER:                  -9.966
REMARK INTRA:                  -0.481
REMARK UNBOUND:                -0.597
REMARK  Name = 
REMARK  4 active torsions:
REMARK  status: ('A' for Active; 'I' for Inactive)
REMARK    1  A    between atoms: C_2  and  C_4
REMARK    2  A    between atoms: C_7  and  N_8
REMARK    3  A    between atoms: N_8  and  C_9
REMARK    4  A    between atoms: C_9  and  C_10
REMARK                            x       y       z     vdW  Elec       q    Type
REMARK                         _______ _______ _______ _____ _____    ______ ____
ROOT
ATOM      1  N   UNL     1      43.924   4.804  10.259  0.00  0.00    +0.000 N 
ATOM      2  H   UNL     1      43.591   5.603   9.717  0.00  0.00    +0.000 HD
ENDROOT
BRANCH   1   6
ATOM      3  C   UNL     1      46.190   2.247   7.911  0.00  0.00    +0.000 A 
ATOM      4  C   UNL     1      46.231   3.607   7.653  0.00  0.00    +0.000 A 
ATOM      5  C   UNL     1      45.391   4.432   8.397  0.00  0.00    +0.000 A 
ATOM      6  C   UNL     1      44.535   3.898   9.368  0.00  0.00    +0.000 A 
ATOM      7  C   UNL     1      44.515   2.511   9.481  0.00  0.00    +0.000 A 
ATOM      8  N   UNL     1      45.319   1.665   8.782  0.00  0.00    +0.000 NA
BRANCH   3  10
ATOM      9  N   UNL     1      48.273   1.992   6.697  0.00  0.00    +0.000 N 
ATOM     10  C   UNL     1      47.228   1.353   7.303  0.00  0.00    +0.000 C 
ATOM     11  O   UNL     1      47.130   0.129   7.299  0.00  0.00    +0.000 OA
ATOM     12  H   UNL     1      48.920   1.456   6.138  0.00  0.00    +0.000 HD
ATOM     13  H   UNL     1      48.254   3.004   6.629  0.00  0.00    +0.000 HD
ENDBRANCH   3  10
ENDBRANCH   1   6
BRANCH   1  14
ATOM     14  C   UNL     1      44.456   5.186  11.581  0.00  0.00    +0.000 C 
ATOM     15  C   UNL     1      44.576   4.173  12.703  0.00  0.00    +0.000 C 
ATOM     16  C   UNL     1      43.411   5.103  12.697  0.00  0.00    +0.000 C 
BRANCH  14  17
ATOM     17  C   UNL     1      45.366   6.415  11.647  0.00  0.00    +0.000 A 
ATOM     18  C   UNL     1      44.833   7.716  11.691  0.00  0.00    +0.000 A 
ATOM     19  C   UNL     1      45.625   8.814  12.045  0.00  0.00    +0.000 A 
ATOM     20  C   UNL     1      46.981   8.638  12.329  0.00  0.00    +0.000 A 
ATOM     21 CL   UNL     1      47.867  10.000  12.912  0.00  0.00    +0.000 Cl
ATOM     22  C   UNL     1      47.555   7.374  12.189  0.00  0.00    +0.000 A 
ATOM     23 CL   UNL     1      49.228   7.073  12.497  0.00  0.00    +0.000 Cl
ATOM     24  C   UNL     1      46.753   6.281  11.842  0.00  0.00    +0.000 A 
ENDBRANCH  14  17
ENDBRANCH   1  14
TORSDOF 4
ENDMDL
MODEL 4
REMARK VINA RESULT:    -7.362      4.276      6.595
REMARK INTER + INTRA:          -9.680
REMARK INTER:                  -9.297
REMARK INTRA:                  -0.383
REMARK UNBOUND:                -0.597
REMARK  Name = 
REMARK  4 active torsions:
REMARK  status: ('A' for Active; 'I' for Inactive)
REMARK    1  A    between atoms: C_2  and  C_4
REMARK    2  A    between atoms: C_7  and  N_8
REMARK    3  A    between atoms: N_8  and  C_9
REMARK    4  A    between atoms: C_9  and  C_10
REMARK                            x       y       z     vdW  Elec       q    Type
REMARK                         _______ _______ _______ _____ _____    ______ ____
ROOT
ATOM      1  N   UNL     1      45.395   3.635  12.185  0.00  0.00    +0.000 N 
ATOM      2  H   UNL     1      45.893   2.743  12.207  0.00  0.00    +0.000 HD
ENDROOT
BRANCH   1   6
ATOM      3  C   UNL     1      47.571   6.840  13.661  0.00  0.00    +0.000 A 
ATOM      4  C   UNL     1      46.873   6.994  12.475  0.00  0.00    +0.000 A 
ATOM      5  C   UNL     1      46.226   5.874  11.956  0.00  0.00    +0.000 A 
ATOM      6  C   UNL     1      46.286   4.640  12.615  0.00  0.00    +0.000 A 
ATOM      7  C   UNL     1      47.088   4.583  13.751  0.00  0.00    +0.000 A 
ATOM      8  N   UNL     1      47.733   5.648  14.298  0.00  0.00    +0.000 NA
BRANCH   3  10
ATOM      9  N   UNL     1      47.160   9.022  14.635  0.00  0.00    +0.000 N 
ATOM     10  C   UNL     1      48.089   8.056  14.370  0.00  0.00    +0.000 C 
ATOM     11  O   UNL     1      49.274   8.204  14.654  0.00  0.00    +0.000 OA
ATOM     12  H   UNL     1      47.469   9.923  14.968  0.00  0.00    +0.000 HD
ATOM     13  H   UNL     1      46.215   8.902  14.284  0.00  0.00    +0.000 HD
ENDBRANCH   3  10
ENDBRANCH   1   6
BRANCH   1  14
ATOM     14  C   UNL     1      44.469   3.752  11.043  0.00  0.00    +0.000 C 
ATOM     15  C   UNL     1      43.246   4.645  11.110  0.00  0.00    +0.000 C 
ATOM     16  C   UNL     1      43.078   3.181  11.335  0.00  0.00    +0.000 C 
BRANCH  14  17
ATOM     17  C   UNL     1      45.018   3.419   9.653  0.00  0.00    +0.000 A 
ATOM     18  C   UNL     1      45.403   4.432   8.757  0.00  0.00    +0.000 A 
ATOM     19  C   UNL     1      46.169   4.147   7.622  0.00  0.00    +0.000 A 
ATOM     20  C   UNL     1      46.540   2.831   7.339  0.00  0.00    +0.000 A 
ATOM     21 CL   UNL     1      47.615   2.562   6.015  0.00  0.00    +0.000 Cl
ATOM     22  C   UNL     1      46.081   1.796   8.154  0.00  0.00    +0.000 A 
ATOM     23 CL   UNL     1      46.471   0.139   7.863  0.00  0.00    +0.000 Cl
ATOM     24  C   UNL     1      45.322   2.093   9.292  0.00  0.00    +0.000 A 
ENDBRANCH  14  17
ENDBRANCH   1  14
TORSDOF 4
ENDMDL
MODEL 5
REMARK VINA RESULT:    -6.775      4.609      6.860
REMARK INTER + INTRA:          -8.956
REMARK INTER:                  -8.414
REMARK INTRA:                  -0.542
REMARK UNBOUND:                -0.597
REMARK  Name = 
REMARK  4 active torsions:
REMARK  status: ('A' for Active; 'I' for Inactive)
REMARK    1  A    between atoms: C_2  and  C_4
REMARK    2  A    between atoms: C_7  and  N_8
REMARK    3  A    between atoms: N_8  and  C_9
REMARK    4  A    between atoms: C_9  and  C_10
REMARK                            x       y       z     vdW  Elec       q    Type
REMARK                         _______ _______ _______ _____ _____    ______ ____
ROOT
ATOM      1  N   UNL     1      45.812   3.698  13.294  0.00  0.00    +0.000 N 
ATOM      2  H   UNL     1      46.235   2.852  12.908  0.00  0.00    +0.000 HD
ENDROOT
BRANCH   1   6
ATOM      3  C   UNL     1      48.403   6.243  15.292  0.00  0.00    +0.000 A 
ATOM      4  C   UNL     1      48.107   6.496  13.962  0.00  0.00    +0.000 A 
ATOM      5  C   UNL     1      47.307   5.574  13.291  0.00  0.00    +0.000 A 
ATOM      6  C   UNL     1      46.824   4.433  13.943  0.00  0.00    +0.000 A 
ATOM      7  C   UNL     1      47.256   4.238  15.252  0.00  0.00    +0.000 A 
ATOM      8  N   UNL     1      48.032   5.111  15.950  0.00  0.00    +0.000 NA
BRANCH   3  10
ATOM      9  N   UNL     1      48.268   8.365  16.458  0.00  0.00    +0.000 N 
ATOM     10  C   UNL     1      49.065   7.310  16.112  0.00  0.00    +0.000 C 
ATOM     11  O   UNL     1      50.253   7.272  16.414  0.00  0.00    +0.000 OA
ATOM     12  H   UNL     1      48.688   9.182  16.873  0.00  0.00    +0.000 HD
ATOM     13  H   UNL     1      47.322   8.405  16.091  0.00  0.00    +0.000 HD
ENDBRANCH   3  10
ENDBRANCH   1   6
BRANCH   1  14
ATOM     14  C   UNL     1      44.772   4.273  12.419  0.00  0.00    +0.000 C 
ATOM     15  C   UNL     1      43.880   5.401  12.896  0.00  0.00    +0.000 C 
ATOM     16  C   UNL     1      43.349   4.008  12.921  0.00  0.00    +0.000 C 
BRANCH  14  17
ATOM     17  C   UNL     1      44.956   4.116  10.907  0.00  0.00    +0.000 A 
ATOM     18  C   UNL     1      45.280   5.216  10.093  0.00  0.00    +0.000 A 
ATOM     19  C   UNL     1      45.735   5.040   8.782  0.00  0.00    +0.000 A 
ATOM     20  C   UNL     1      45.845   3.757   8.244  0.00  0.00    +0.000 A 
ATOM     21 CL   UNL     1      46.560   3.595   6.681  0.00  0.00    +0.000 Cl
ATOM     22  C   UNL     1      45.430   2.657   8.995  0.00  0.00    +0.000 A 
ATOM     23 CL   UNL     1      45.507   1.038   8.397  0.00  0.00    +0.000 Cl
ATOM     24  C   UNL     1      44.983   2.843  10.308  0.00  0.00    +0.000 A 
ENDBRANCH  14  17
ENDBRANCH   1  14
TORSDOF 4
ENDMDL
MODEL 6
REMARK VINA RESULT:    -6.534      2.396      2.970
REMARK INTER + INTRA:          -8.659
REMARK INTER:                  -7.912
REMARK INTRA:                  -0.748
REMARK UNBOUND:                -0.597
REMARK  Name = 
REMARK  4 active torsions:
REMARK  status: ('A' for Active; 'I' for Inactive)
REMARK    1  A    between atoms: C_2  and  C_4
REMARK    2  A    between atoms: C_7  and  N_8
REMARK    3  A    between atoms: N_8  and  C_9
REMARK    4  A    between atoms: C_9  and  C_10
REMARK                            x       y       z     vdW  Elec       q    Type
REMARK                         _______ _______ _______ _____ _____    ______ ____
ROOT
ATOM      1  N   UNL     1      44.792   4.775  11.808  0.00  0.00    +0.000 N 
ATOM      2  H   UNL     1      44.068   5.492  11.731  0.00  0.00    +0.000 HD
ENDROOT
BRANCH   1   6
ATOM      3  C   UNL     1      45.828   3.076   8.171  0.00  0.00    +0.000 A 
ATOM      4  C   UNL     1      45.911   4.451   8.316  0.00  0.00    +0.000 A 
ATOM      5  C   UNL     1      45.471   5.002   9.518  0.00  0.00    +0.000 A 
ATOM      6  C   UNL     1      44.960   4.189  10.537  0.00  0.00    +0.000 A 
ATOM      7  C   UNL     1      44.843   2.832  10.247  0.00  0.00    +0.000 A 
ATOM      8  N   UNL     1      45.263   2.248   9.093  0.00  0.00    +0.000 NA
BRANCH   3  10
ATOM      9  N   UNL     1      47.070   1.207   7.252  0.00  0.00    +0.000 N 
ATOM     10  C   UNL     1      46.493   2.420   6.998  0.00  0.00    +0.000 C 
ATOM     11  O   UNL     1      46.564   2.951   5.894  0.00  0.00    +0.000 OA
ATOM     12  H   UNL     1      47.663   0.790   6.551  0.00  0.00    +0.000 HD
ATOM     13  H   UNL     1      47.081   0.861   8.205  0.00  0.00    +0.000 HD
ENDBRANCH   3  10
ENDBRANCH   1   6
BRANCH   1  14
ATOM     14  C   UNL     1      45.888   5.157  12.719  0.00  0.00    +0.000 C 
ATOM     15  C   UNL     1      46.852   4.123  13.266  0.00  0.00    +0.000 C 
ATOM     16  C   UNL     1      45.727   4.581  14.129  0.00  0.00    +0.000 C 
BRANCH  14  17
ATOM     17  C   UNL     1      46.369   6.609  12.673  0.00  0.00    +0.000 A 
ATOM     18  C   UNL     1      47.737   6.923  12.579  0.00  0.00    +0.000 A 
ATOM     19  C   UNL     1      48.166   8.211  12.242  0.00  0.00    +0.000 A 
ATOM     20  C   UNL     1      47.233   9.226  12.025  0.00  0.00    +0.000 A 
ATOM     21 CL   UNL     1      47.814  10.751  11.460  0.00  0.00    +0.000 Cl
ATOM     22  C   UNL     1      45.875   8.967  12.217  0.00  0.00    +0.000 A 
ATOM     23 CL   UNL     1      44.656  10.171  11.995  0.00  0.00    +0.000 Cl
ATOM     24  C   UNL     1      45.456   7.673  12.546  0.00  0.00    +0.000 A 
ENDBRANCH  14  17
ENDBRANCH   1  14
TORSDOF 4
ENDMDL
MODEL 7
REMARK VINA RESULT:    -6.153      4.631      6.930
REMARK INTER + INTRA:          -8.189
REMARK INTER:                  -7.758
REMARK INTRA:                  -0.431
REMARK UNBOUND:                -0.597
REMARK  Name = 
REMARK  4 active torsions:
REMARK  status: ('A' for Active; 'I' for Inactive)
REMARK    1  A    between atoms: C_2  and  C_4
REMARK    2  A    between atoms: C_7  and  N_8
REMARK    3  A    between atoms: N_8  and  C_9
REMARK    4  A    between atoms: C_9  and  C_10
REMARK                            x       y       z     vdW  Elec       q    Type
REMARK                         _______ _______ _______ _____ _____    ______ ____
ROOT
ATOM      1  N   UNL     1      46.383   6.255  13.852  0.00  0.00    +0.000 N 
ATOM      2  H   UNL     1      45.410   6.056  14.092  0.00  0.00    +0.000 HD
ENDROOT
BRANCH   1   6
ATOM      3  C   UNL     1      48.471   3.881  16.533  0.00  0.00    +0.000 A 
ATOM      4  C   UNL     1      48.717   5.244  16.512  0.00  0.00    +0.000 A 
ATOM      5  C   UNL     1      48.069   6.003  15.540  0.00  0.00    +0.000 A 
ATOM      6  C   UNL     1      47.203   5.402  14.619  0.00  0.00    +0.000 A 
ATOM      7  C   UNL     1      47.100   4.015  14.679  0.00  0.00    +0.000 A 
ATOM      8  N   UNL     1      47.707   3.233  15.611  0.00  0.00    +0.000 NA
BRANCH   3  10
ATOM      9  N   UNL     1      48.310   3.268  18.874  0.00  0.00    +0.000 N 
ATOM     10  C   UNL     1      48.963   3.064  17.691  0.00  0.00    +0.000 C 
ATOM     11  O   UNL     1      49.918   2.299  17.604  0.00  0.00    +0.000 OA
ATOM     12  H   UNL     1      48.688   2.869  19.719  0.00  0.00    +0.000 HD
ATOM     13  H   UNL     1      47.599   3.991  18.922  0.00  0.00    +0.000 HD
ENDBRANCH   3  10
ENDBRANCH   1   6
BRANCH   1  14
ATOM     14  C   UNL     1      46.574   6.556  12.421  0.00  0.00    +0.000 C 
ATOM     15  C   UNL     1      47.828   7.248  11.923  0.00  0.00    +0.000 C 
ATOM     16  C   UNL     1      46.592   8.058  12.119  0.00  0.00    +0.000 C 
BRANCH  14  17
ATOM     17  C   UNL     1      45.792   5.711  11.412  0.00  0.00    +0.000 A 
ATOM     18  C   UNL     1      46.087   5.757  10.037  0.00  0.00    +0.000 A 
ATOM     19  C   UNL     1      45.594   4.789   9.155  0.00  0.00    +0.000 A 
ATOM     20  C   UNL     1      44.763   3.770   9.626  0.00  0.00    +0.000 A 
ATOM     21 CL   UNL     1      44.316   2.519   8.523  0.00  0.00    +0.000 Cl
ATOM     22  C   UNL     1      44.371   3.765  10.965  0.00  0.00    +0.000 A 
ATOM     23 CL   UNL     1      43.326   2.557  11.624  0.00  0.00    +0.000 Cl
ATOM     24  C   UNL     1      44.876   4.733  11.840  0.00  0.00    +0.000 A 
ENDBRANCH  14  17
ENDBRANCH   1  14
TORSDOF 4
ENDMDL
MODEL 8
REMARK VINA RESULT:    -5.725      3.676      5.551
REMARK INTER + INTRA:          -7.660
REMARK INTER:                  -7.036
REMARK INTRA:                  -0.625
REMARK UNBOUND:                -0.597
REMARK  Name = 
REMARK  4 active torsions:
REMARK  status: ('A' for Active; 'I' for Inactive)
REMARK    1  A    between atoms: C_2  and  C_4
REMARK    2  A    between atoms: C_7  and  N_8
REMARK    3  A    between atoms: N_8  and  C_9
REMARK    4  A    between atoms: C_9  and  C_10
REMARK                            x       y       z     vdW  Elec       q    Type
REMARK                         _______ _______ _______ _____ _____    ______ ____
ROOT
ATOM      1  N   UNL     1      48.512   6.329  12.985  0.00  0.00    +0.000 N 
ATOM      2  H   UNL     1      49.128   5.619  13.386  0.00  0.00    +0.000 HD
ENDROOT
BRANCH   1   6
ATOM      3  C   UNL     1      44.883   4.429  12.346  0.00  0.00    +0.000 A 
ATOM      4  C   UNL     1      45.239   5.487  11.526  0.00  0.00    +0.000 A 
ATOM      5  C   UNL     1      46.421   6.164  11.821  0.00  0.00    +0.000 A 
ATOM      6  C   UNL     1      47.213   5.785  12.911  0.00  0.00    +0.000 A 
ATOM      7  C   UNL     1      46.713   4.766  13.716  0.00  0.00    +0.000 A 
ATOM      8  N   UNL     1      45.570   4.072  13.467  0.00  0.00    +0.000 NA
BRANCH   3  10
ATOM      9  N   UNL     1      43.724   2.308  12.542  0.00  0.00    +0.000 N 
ATOM     10  C   UNL     1      43.751   3.535  11.939  0.00  0.00    +0.000 C 
ATOM     11  O   UNL     1      42.927   3.853  11.087  0.00  0.00    +0.000 OA
ATOM     12  H   UNL     1      43.085   1.607  12.201  0.00  0.00    +0.000 HD
ATOM     13  H   UNL     1      44.489   2.049  13.157  0.00  0.00    +0.000 HD
ENDBRANCH   3  10
ENDBRANCH   1   6
BRANCH   1  14
ATOM     14  C   UNL     1      48.837   7.696  13.436  0.00  0.00    +0.000 C 
ATOM     15  C   UNL     1      48.656   8.889  12.519  0.00  0.00    +0.000 C 
ATOM     16  C   UNL     1      50.020   8.312  12.683  0.00  0.00    +0.000 C 
BRANCH  14  17
ATOM     17  C   UNL     1      48.829   7.962  14.943  0.00  0.00    +0.000 A 
ATOM     18  C   UNL     1      48.359   9.180  15.467  0.00  0.00    +0.000 A 
ATOM     19  C   UNL     1      48.073   9.322  16.829  0.00  0.00    +0.000 A 
ATOM     20  C   UNL     1      48.283   8.256  17.705  0.00  0.00    +0.000 A 
ATOM     21 CL   UNL     1      47.764   8.441  19.341  0.00  0.00    +0.000 Cl
ATOM     22  C   UNL     1      48.848   7.074  17.228  0.00  0.00    +0.000 A 
ATOM     23 CL   UNL     1      49.166   5.715  18.247  0.00  0.00    +0.000 Cl
ATOM     24  C   UNL     1      49.124   6.938  15.862  0.00  0.00    +0.000 A 
ENDBRANCH  14  17
ENDBRANCH   1  14
TORSDOF 4
ENDMDL
