MODEL 1
REMARK VINA RESULT:    -8.112      0.000      0.000
REMARK INTER + INTRA:         -12.539
REMARK INTER:                 -11.432
REMARK INTRA:                  -1.107
REMARK UNBOUND:                -1.107
REMARK  Name = 
REMARK  8 active torsions:
REMARK  status: ('A' for Active; 'I' for Inactive)
REMARK    1  A    between atoms: C_1  and  C_2
REMARK    2  A    between atoms: C_2  and  N_3
REMARK    3  A    between atoms: C_2  and  C_16
REMARK    4  A    between atoms: C_4  and  C_6
REMARK    5  A    between atoms: C_19  and  C_20
REMARK    6  A    between atoms: C_20  and  N_21
REMARK    7  A    between atoms: C_22  and  C_24
REMARK    8  A    between atoms: C_25  and  C_26
REMARK                            x       y       z     vdW  Elec       q    Type
REMARK                         _______ _______ _______ _____ _____    ______ ____
ROOT
ATOM      1  C   UNL     1      47.076   7.564  13.420  0.00  0.00    +0.000 A 
ATOM      2  C   UNL     1      47.038   6.176  13.214  0.00  0.00    +0.000 A 
ATOM      3  C   UNL     1      46.000   5.580  12.488  0.00  0.00    +0.000 A 
ATOM      4  C   UNL     1      44.969   6.355  11.945  0.00  0.00    +0.000 A 
ATOM      5  C   UNL     1      44.962   7.731  12.210  0.00  0.00    +0.000 A 
ATOM      6  C   UNL     1      46.005   8.330  12.935  0.00  0.00    +0.000 A 
ENDROOT
BRANCH   1   8
ATOM      7  C   UNL     1      48.440   9.667  13.796  0.00  0.00    +0.000 C 
ATOM      8  C   UNL     1      48.279   8.178  14.124  0.00  0.00    +0.000 C 
BRANCH   8   9
ATOM      9  N   UNL     1      48.218   7.974  15.558  0.00  0.00    +0.000 N 
ATOM     10  C   UNL     1      49.114   7.171  16.219  0.00  0.00    +0.000 C 
ATOM     11  O   UNL     1      49.989   6.542  15.629  0.00  0.00    +0.000 OA
ATOM     12  H   UNL     1      47.468   8.429  16.067  0.00  0.00    +0.000 HD
BRANCH  10  13
ATOM     13  C   UNL     1      49.014   7.137  17.683  0.00  0.00    +0.000 A 
ATOM     14  C   UNL     1      49.127   8.315  18.411  0.00  0.00    +0.000 A 
ATOM     15  S   UNL     1      48.965   8.097  20.094  0.00  0.00    +0.000 S 
ATOM     16  C   UNL     1      48.790   6.413  19.914  0.00  0.00    +0.000 A 
ATOM     17  N   UNL     1      48.644   5.606  20.998  0.00  0.00    +0.000 NA
ATOM     18  C   UNL     1      48.570   4.347  20.719  0.00  0.00    +0.000 A 
ATOM     19  N   UNL     1      48.617   3.825  19.453  0.00  0.00    +0.000 N 
ATOM     20  C   UNL     1      48.687   4.607  18.326  0.00  0.00    +0.000 A 
ATOM     21  O   UNL     1      48.594   4.113  17.209  0.00  0.00    +0.000 OA
ATOM     22  C   UNL     1      48.823   6.027  18.586  0.00  0.00    +0.000 A 
ATOM     23  H   UNL     1      48.522   2.832  19.299  0.00  0.00    +0.000 HD
ENDBRANCH  10  13
ENDBRANCH   8   9
ENDBRANCH   1   8
BRANCH   4  24
ATOM     24  C   UNL     1      43.913   5.723  11.074  0.00  0.00    +0.000 C 
BRANCH  24  25
ATOM     25  N   UNL     1      44.474   4.978   9.973  0.00  0.00    +0.000 N 
ATOM     26  C   UNL     1      44.262   3.625   9.863  0.00  0.00    +0.000 C 
ATOM     27  O   UNL     1      43.595   2.960  10.646  0.00  0.00    +0.000 OA
ATOM     28  H   UNL     1      45.023   5.478   9.289  0.00  0.00    +0.000 HD
BRANCH  26  29
ATOM     29  C   UNL     1      44.944   3.026   8.686  0.00  0.00    +0.000 C 
ATOM     30  C   UNL     1      46.096   3.539   8.218  0.00  0.00    +0.000 C 
BRANCH  30  31
ATOM     31  C   UNL     1      46.720   2.984   7.075  0.00  0.00    +0.000 A 
ATOM     32  C   UNL     1      46.695   3.227   5.716  0.00  0.00    +0.000 A 
ATOM     33  C   UNL     1      47.591   2.301   5.156  0.00  0.00    +0.000 A 
ATOM     34  N   UNL     1      48.149   1.516   6.078  0.00  0.00    +0.000 NA
ATOM     35  N   UNL     1      47.606   1.947   7.233  0.00  0.00    +0.000 N 
ATOM     36  H   UNL     1      47.890   1.486   8.091  0.00  0.00    +0.000 HD
ENDBRANCH  30  31
ENDBRANCH  26  29
ENDBRANCH  24  25
ENDBRANCH   4  24
TORSDOF 7
ENDMDL
MODEL 2
REMARK VINA RESULT:    -7.567      1.538      2.306
REMARK INTER + INTRA:         -11.771
REMARK INTER:                 -10.738
REMARK INTRA:                  -1.032
REMARK UNBOUND:                -1.107
REMARK  Name = 
REMARK  8 active torsions:
REMARK  status: ('A' for Active; 'I' for Inactive)
REMARK    1  A    between atoms: C_1  and  C_2
REMARK    2  A    between atoms: C_2  and  N_3
REMARK    3  A    between atoms: C_2  and  C_16
REMARK    4  A    between atoms: C_4  and  C_6
REMARK    5  A    between atoms: C_19  and  C_20
REMARK    6  A    between atoms: C_20  and  N_21
REMARK    7  A    between atoms: C_22  and  C_24
REMARK    8  A    between atoms: C_25  and  C_26
REMARK                            x       y       z     vdW  Elec       q    Type
REMARK                         _______ _______ _______ _____ _____    ______ ____
ROOT
ATOM      1  C   UNL     1      47.524   7.945  13.358  0.00  0.00    +0.000 A 
ATOM      2  C   UNL     1      46.243   8.515  13.304  0.00  0.00    +0.000 A 
ATOM      3  C   UNL     1      45.240   7.967  12.495  0.00  0.00    +0.000 A 
ATOM      4  C   UNL     1      45.489   6.831  11.716  0.00  0.00    +0.000 A 
ATOM      5  C   UNL     1      46.787   6.302  11.709  0.00  0.00    +0.000 A 
ATOM      6  C   UNL     1      47.792   6.849  12.522  0.00  0.00    +0.000 A 
ENDROOT
BRANCH   1   8
ATOM      7  C   UNL     1      48.676  10.034  14.213  0.00  0.00    +0.000 C 
ATOM      8  C   UNL     1      48.549   8.511  14.331  0.00  0.00    +0.000 C 
BRANCH   8   9
ATOM      9  N   UNL     1      48.257   8.125  15.697  0.00  0.00    +0.000 N 
ATOM     10  C   UNL     1      48.925   7.105  16.326  0.00  0.00    +0.000 C 
ATOM     11  O   UNL     1      49.777   6.429  15.754  0.00  0.00    +0.000 OA
ATOM     12  H   UNL     1      47.515   8.622  16.178  0.00  0.00    +0.000 HD
BRANCH  10  13
ATOM     13  C   UNL     1      48.614   6.887  17.744  0.00  0.00    +0.000 A 
ATOM     14  C   UNL     1      48.708   5.610  18.284  0.00  0.00    +0.000 A 
ATOM     15  S   UNL     1      48.333   5.541  19.946  0.00  0.00    +0.000 S 
ATOM     16  C   UNL     1      47.983   7.206  19.991  0.00  0.00    +0.000 A 
ATOM     17  N   UNL     1      47.558   7.800  21.139  0.00  0.00    +0.000 NA
ATOM     18  C   UNL     1      47.283   9.056  21.018  0.00  0.00    +0.000 A 
ATOM     19  N   UNL     1      47.405   9.774  19.857  0.00  0.00    +0.000 N 
ATOM     20  C   UNL     1      47.901   9.234  18.696  0.00  0.00    +0.000 A 
ATOM     21  O   UNL     1      48.119   9.937  17.716  0.00  0.00    +0.000 OA
ATOM     22  C   UNL     1      48.178   7.812  18.763  0.00  0.00    +0.000 A 
ATOM     23  H   UNL     1      47.203  10.762  19.836  0.00  0.00    +0.000 HD
ENDBRANCH  10  13
ENDBRANCH   8   9
ENDBRANCH   1   8
BRANCH   4  24
ATOM     24  C   UNL     1      44.377   6.182  10.931  0.00  0.00    +0.000 C 
BRANCH  24  25
ATOM     25  N   UNL     1      44.868   5.338   9.868  0.00  0.00    +0.000 N 
ATOM     26  C   UNL     1      44.328   4.092   9.658  0.00  0.00    +0.000 C 
ATOM     27  O   UNL     1      43.411   3.612  10.315  0.00  0.00    +0.000 OA
ATOM     28  H   UNL     1      45.614   5.688   9.286  0.00  0.00    +0.000 HD
BRANCH  26  29
ATOM     29  C   UNL     1      44.982   3.358   8.544  0.00  0.00    +0.000 C 
ATOM     30  C   UNL     1      46.165   3.761   8.050  0.00  0.00    +0.000 C 
BRANCH  30  31
ATOM     31  C   UNL     1      46.764   3.077   6.965  0.00  0.00    +0.000 A 
ATOM     32  C   UNL     1      46.784   3.221   5.591  0.00  0.00    +0.000 A 
ATOM     33  C   UNL     1      47.613   2.189   5.120  0.00  0.00    +0.000 A 
ATOM     34  N   UNL     1      48.088   1.432   6.110  0.00  0.00    +0.000 NA
ATOM     35  N   UNL     1      47.561   1.987   7.217  0.00  0.00    +0.000 N 
ATOM     36  H   UNL     1      47.790   1.569   8.113  0.00  0.00    +0.000 HD
ENDBRANCH  30  31
ENDBRANCH  26  29
ENDBRANCH  24  25
ENDBRANCH   4  24
TORSDOF 7
ENDMDL
MODEL 3
REMARK VINA RESULT:    -7.227      4.355      9.177
REMARK INTER + INTRA:         -11.291
REMARK INTER:                 -10.167
REMARK INTRA:                  -1.124
REMARK UNBOUND:                -1.107
REMARK  Name = 
REMARK  8 active torsions:
REMARK  status: ('A' for Active; 'I' for Inactive)
REMARK    1  A    between atoms: C_1  and  C_2
REMARK    2  A    between atoms: C_2  and  N_3
REMARK    3  A    between atoms: C_2  and  C_16
REMARK    4  A    between atoms: C_4  and  C_6
REMARK    5  A    between atoms: C_19  and  C_20
REMARK    6  A    between atoms: C_20  and  N_21
REMARK    7  A    between atoms: C_22  and  C_24
REMARK    8  A    between atoms: C_25  and  C_26
REMARK                            x       y       z     vdW  Elec       q    Type
REMARK                         _______ _______ _______ _____ _____    ______ ____
ROOT
ATOM      1  C   UNL     1      49.078   7.215  14.042  0.00  0.00    +0.000 A 
ATOM      2  C   UNL     1      50.302   7.651  14.571  0.00  0.00    +0.000 A 
ATOM      3  C   UNL     1      50.716   7.265  15.851  0.00  0.00    +0.000 A 
ATOM      4  C   UNL     1      49.918   6.429  16.640  0.00  0.00    +0.000 A 
ATOM      5  C   UNL     1      48.661   6.050  16.147  0.00  0.00    +0.000 A 
ATOM      6  C   UNL     1      48.247   6.435  14.862  0.00  0.00    +0.000 A 
ENDROOT
BRANCH   1   8
ATOM      7  C   UNL     1      49.961   7.852  11.753  0.00  0.00    +0.000 C 
ATOM      8  C   UNL     1      48.718   7.574  12.606  0.00  0.00    +0.000 C 
BRANCH   8   9
ATOM      9  N   UNL     1      47.894   6.552  11.992  0.00  0.00    +0.000 N 
ATOM     10  C   UNL     1      46.559   6.748  11.736  0.00  0.00    +0.000 C 
ATOM     11  O   UNL     1      45.976   7.782  12.054  0.00  0.00    +0.000 OA
ATOM     12  H   UNL     1      48.330   5.663  11.775  0.00  0.00    +0.000 HD
BRANCH  10  13
ATOM     13  C   UNL     1      45.863   5.679  11.009  0.00  0.00    +0.000 A 
ATOM     14  C   UNL     1      45.925   5.633   9.622  0.00  0.00    +0.000 A 
ATOM     15  S   UNL     1      45.080   4.317   8.943  0.00  0.00    +0.000 S 
ATOM     16  C   UNL     1      44.559   3.792  10.475  0.00  0.00    +0.000 A 
ATOM     17  N   UNL     1      43.750   2.705  10.604  0.00  0.00    +0.000 NA
ATOM     18  C   UNL     1      43.393   2.449  11.818  0.00  0.00    +0.000 A 
ATOM     19  N   UNL     1      43.780   3.173  12.916  0.00  0.00    +0.000 N 
ATOM     20  C   UNL     1      44.655   4.229  12.841  0.00  0.00    +0.000 A 
ATOM     21  O   UNL     1      45.080   4.768  13.855  0.00  0.00    +0.000 OA
ATOM     22  C   UNL     1      45.048   4.591  11.493  0.00  0.00    +0.000 A 
ATOM     23  H   UNL     1      43.491   2.901  13.843  0.00  0.00    +0.000 HD
ENDBRANCH  10  13
ENDBRANCH   8   9
ENDBRANCH   1   8
BRANCH   4  24
ATOM     24  C   UNL     1      50.415   5.929  17.973  0.00  0.00    +0.000 C 
BRANCH  24  25
ATOM     25  N   UNL     1      51.410   4.892  17.840  0.00  0.00    +0.000 N 
ATOM     26  C   UNL     1      51.038   3.573  17.738  0.00  0.00    +0.000 C 
ATOM     27  O   UNL     1      49.879   3.177  17.735  0.00  0.00    +0.000 OA
ATOM     28  H   UNL     1      52.383   5.162  17.823  0.00  0.00    +0.000 HD
BRANCH  26  29
ATOM     29  C   UNL     1      52.198   2.650  17.643  0.00  0.00    +0.000 C 
ATOM     30  C   UNL     1      52.033   1.318  17.732  0.00  0.00    +0.000 C 
BRANCH  30  31
ATOM     31  C   UNL     1      53.148   0.448  17.676  0.00  0.00    +0.000 A 
ATOM     32  C   UNL     1      54.337   0.404  16.975  0.00  0.00    +0.000 A 
ATOM     33  C   UNL     1      54.998  -0.747  17.437  0.00  0.00    +0.000 A 
ATOM     34  N   UNL     1      54.291  -1.400  18.361  0.00  0.00    +0.000 NA
ATOM     35  N   UNL     1      53.175  -0.659  18.489  0.00  0.00    +0.000 N 
ATOM     36  H   UNL     1      52.473  -0.970  19.153  0.00  0.00    +0.000 HD
ENDBRANCH  30  31
ENDBRANCH  26  29
ENDBRANCH  24  25
ENDBRANCH   4  24
TORSDOF 7
ENDMDL
MODEL 4
REMARK VINA RESULT:    -7.102      3.758      5.548
REMARK INTER + INTRA:         -11.115
REMARK INTER:                  -9.754
REMARK INTRA:                  -1.361
REMARK UNBOUND:                -1.107
REMARK  Name = 
REMARK  8 active torsions:
REMARK  status: ('A' for Active; 'I' for Inactive)
REMARK    1  A    between atoms: C_1  and  C_2
REMARK    2  A    between atoms: C_2  and  N_3
REMARK    3  A    between atoms: C_2  and  C_16
REMARK    4  A    between atoms: C_4  and  C_6
REMARK    5  A    between atoms: C_19  and  C_20
REMARK    6  A    between atoms: C_20  and  N_21
REMARK    7  A    between atoms: C_22  and  C_24
REMARK    8  A    between atoms: C_25  and  C_26
REMARK                            x       y       z     vdW  Elec       q    Type
REMARK                         _______ _______ _______ _____ _____    ______ ____
ROOT
ATOM      1  C   UNL     1      47.868   7.187  13.984  0.00  0.00    +0.000 A 
ATOM      2  C   UNL     1      47.366   5.879  13.895  0.00  0.00    +0.000 A 
ATOM      3  C   UNL     1      46.240   5.587  13.115  0.00  0.00    +0.000 A 
ATOM      4  C   UNL     1      45.584   6.596  12.400  0.00  0.00    +0.000 A 
ATOM      5  C   UNL     1      46.035   7.915  12.544  0.00  0.00    +0.000 A 
ATOM      6  C   UNL     1      47.166   8.207  13.324  0.00  0.00    +0.000 A 
ENDROOT
BRANCH   1   8
ATOM      7  C   UNL     1      49.387   6.385  15.847  0.00  0.00    +0.000 C 
ATOM      8  C   UNL     1      49.154   7.438  14.758  0.00  0.00    +0.000 C 
BRANCH   8   9
ATOM      9  N   UNL     1      50.301   7.521  13.875  0.00  0.00    +0.000 N 
ATOM     10  C   UNL     1      51.031   8.675  13.735  0.00  0.00    +0.000 C 
ATOM     11  O   UNL     1      50.730   9.716  14.314  0.00  0.00    +0.000 OA
ATOM     12  H   UNL     1      50.538   6.698  13.333  0.00  0.00    +0.000 HD
BRANCH  10  13
ATOM     13  C   UNL     1      52.233   8.597  12.896  0.00  0.00    +0.000 A 
ATOM     14  C   UNL     1      53.444   9.080  13.377  0.00  0.00    +0.000 A 
ATOM     15  S   UNL     1      54.739   8.891  12.284  0.00  0.00    +0.000 S 
ATOM     16  C   UNL     1      53.717   8.204  11.109  0.00  0.00    +0.000 A 
ATOM     17  N   UNL     1      54.200   7.837   9.891  0.00  0.00    +0.000 NA
ATOM     18  C   UNL     1      53.306   7.375   9.081  0.00  0.00    +0.000 A 
ATOM     19  N   UNL     1      51.976   7.236   9.383  0.00  0.00    +0.000 N 
ATOM     20  C   UNL     1      51.460   7.521  10.623  0.00  0.00    +0.000 A 
ATOM     21  O   UNL     1      50.294   7.260  10.896  0.00  0.00    +0.000 OA
ATOM     22  C   UNL     1      52.412   8.092  11.556  0.00  0.00    +0.000 A 
ATOM     23  H   UNL     1      51.333   6.838   8.715  0.00  0.00    +0.000 HD
ENDBRANCH  10  13
ENDBRANCH   8   9
ENDBRANCH   1   8
BRANCH   4  24
ATOM     24  C   UNL     1      44.439   6.259  11.477  0.00  0.00    +0.000 C 
BRANCH  24  25
ATOM     25  N   UNL     1      44.877   5.627  10.257  0.00  0.00    +0.000 N 
ATOM     26  C   UNL     1      44.282   4.470   9.815  0.00  0.00    +0.000 C 
ATOM     27  O   UNL     1      43.356   3.904  10.384  0.00  0.00    +0.000 OA
ATOM     28  H   UNL     1      45.629   6.058   9.739  0.00  0.00    +0.000 HD
BRANCH  26  29
ATOM     29  C   UNL     1      44.887   3.949   8.562  0.00  0.00    +0.000 C 
ATOM     30  C   UNL     1      46.095   3.359   8.569  0.00  0.00    +0.000 C 
BRANCH  30  31
ATOM     31  C   UNL     1      46.681   2.898   7.365  0.00  0.00    +0.000 A 
ATOM     32  C   UNL     1      46.731   3.337   6.057  0.00  0.00    +0.000 A 
ATOM     33  C   UNL     1      47.519   2.391   5.378  0.00  0.00    +0.000 A 
ATOM     34  N   UNL     1      47.942   1.415   6.183  0.00  0.00    +0.000 NA
ATOM     35  N   UNL     1      47.421   1.742   7.380  0.00  0.00    +0.000 N 
ATOM     36  H   UNL     1      47.615   1.129   8.165  0.00  0.00    +0.000 HD
ENDBRANCH  30  31
ENDBRANCH  26  29
ENDBRANCH  24  25
ENDBRANCH   4  24
TORSDOF 7
ENDMDL
MODEL 5
REMARK VINA RESULT:    -6.927      4.974      8.006
REMARK INTER + INTRA:         -10.869
REMARK INTER:                  -9.716
REMARK INTRA:                  -1.153
REMARK UNBOUND:                -1.107
REMARK  Name = 
REMARK  8 active torsions:
REMARK  status: ('A' for Active; 'I' for Inactive)
REMARK    1  A    between atoms: C_1  and  C_2
REMARK    2  A    between atoms: C_2  and  N_3
REMARK    3  A    between atoms: C_2  and  C_16
REMARK    4  A    between atoms: C_4  and  C_6
REMARK    5  A    between atoms: C_19  and  C_20
REMARK    6  A    between atoms: C_20  and  N_21
REMARK    7  A    between atoms: C_22  and  C_24
REMARK    8  A    between atoms: C_25  and  C_26
REMARK                            x       y       z     vdW  Elec       q    Type
REMARK                         _______ _______ _______ _____ _____    ______ ____
ROOT
ATOM      1  C   UNL     1      47.689   8.536  12.021  0.00  0.00    +0.000 A 
ATOM      2  C   UNL     1      48.568   7.466  11.793  0.00  0.00    +0.000 A 
ATOM      3  C   UNL     1      49.895   7.688  11.408  0.00  0.00    +0.000 A 
ATOM      4  C   UNL     1      50.384   8.989  11.241  0.00  0.00    +0.000 A 
ATOM      5  C   UNL     1      49.492  10.059  11.394  0.00  0.00    +0.000 A 
ATOM      6  C   UNL     1      48.162   9.837  11.783  0.00  0.00    +0.000 A 
ENDROOT
BRANCH   1   8
ATOM      7  C   UNL     1      45.345   9.443  12.347  0.00  0.00    +0.000 C 
ATOM      8  C   UNL     1      46.287   8.249  12.540  0.00  0.00    +0.000 C 
BRANCH   8   9
ATOM      9  N   UNL     1      45.729   7.055  11.936  0.00  0.00    +0.000 N 
ATOM     10  C   UNL     1      45.661   5.861  12.610  0.00  0.00    +0.000 C 
ATOM     11  O   UNL     1      46.110   5.723  13.746  0.00  0.00    +0.000 OA
ATOM     12  H   UNL     1      45.407   7.119  10.977  0.00  0.00    +0.000 HD
BRANCH  10  13
ATOM     13  C   UNL     1      44.973   4.758  11.929  0.00  0.00    +0.000 A 
ATOM     14  C   UNL     1      44.156   3.900  12.655  0.00  0.00    +0.000 A 
ATOM     15  S   UNL     1      43.418   2.691  11.706  0.00  0.00    +0.000 S 
ATOM     16  C   UNL     1      44.206   3.239  10.300  0.00  0.00    +0.000 A 
ATOM     17  N   UNL     1      44.033   2.603   9.110  0.00  0.00    +0.000 NA
ATOM     18  C   UNL     1      44.727   3.096   8.138  0.00  0.00    +0.000 A 
ATOM     19  N   UNL     1      45.569   4.172   8.247  0.00  0.00    +0.000 N 
ATOM     20  C   UNL     1      45.715   4.889   9.409  0.00  0.00    +0.000 A 
ATOM     21  O   UNL     1      46.373   5.922   9.434  0.00  0.00    +0.000 OA
ATOM     22  C   UNL     1      44.996   4.347  10.546  0.00  0.00    +0.000 A 
ATOM     23  H   UNL     1      46.060   4.528   7.441  0.00  0.00    +0.000 HD
ENDBRANCH  10  13
ENDBRANCH   8   9
ENDBRANCH   1   8
BRANCH   4  24
ATOM     24  C   UNL     1      51.841   9.226  10.931  0.00  0.00    +0.000 C 
BRANCH  24  25
ATOM     25  N   UNL     1      52.493   8.054  10.399  0.00  0.00    +0.000 N 
ATOM     26  C   UNL     1      52.962   8.040   9.108  0.00  0.00    +0.000 C 
ATOM     27  O   UNL     1      52.886   8.984   8.330  0.00  0.00    +0.000 OA
ATOM     28  H   UNL     1      52.595   7.250  11.000  0.00  0.00    +0.000 HD
BRANCH  26  29
ATOM     29  C   UNL     1      53.572   6.739   8.728  0.00  0.00    +0.000 C 
ATOM     30  C   UNL     1      53.132   6.055   7.657  0.00  0.00    +0.000 C 
BRANCH  30  31
ATOM     31  C   UNL     1      53.695   4.799   7.323  0.00  0.00    +0.000 A 
ATOM     32  C   UNL     1      54.955   4.235   7.364  0.00  0.00    +0.000 A 
ATOM     33  C   UNL     1      54.788   2.919   6.899  0.00  0.00    +0.000 A 
ATOM     34  N   UNL     1      53.521   2.654   6.576  0.00  0.00    +0.000 NA
ATOM     35  N   UNL     1      52.878   3.806   6.840  0.00  0.00    +0.000 N 
ATOM     36  H   UNL     1      51.879   3.842   6.667  0.00  0.00    +0.000 HD
ENDBRANCH  30  31
ENDBRANCH  26  29
ENDBRANCH  24  25
ENDBRANCH   4  24
TORSDOF 7
ENDMDL
MODEL 6
REMARK VINA RESULT:    -6.899      5.231      7.480
REMARK INTER + INTRA:         -10.829
REMARK INTER:                 -10.063
REMARK INTRA:                  -0.766
REMARK UNBOUND:                -1.107
REMARK  Name = 
REMARK  8 active torsions:
REMARK  status: ('A' for Active; 'I' for Inactive)
REMARK    1  A    between atoms: C_1  and  C_2
REMARK    2  A    between atoms: C_2  and  N_3
REMARK    3  A    between atoms: C_2  and  C_16
REMARK    4  A    between atoms: C_4  and  C_6
REMARK    5  A    between atoms: C_19  and  C_20
REMARK    6  A    between atoms: C_20  and  N_21
REMARK    7  A    between atoms: C_22  and  C_24
REMARK    8  A    between atoms: C_25  and  C_26
REMARK                            x       y       z     vdW  Elec       q    Type
REMARK                         _______ _______ _______ _____ _____    ______ ____
ROOT
ATOM      1  C   UNL     1      49.809   8.463  11.980  0.00  0.00    +0.000 A 
ATOM      2  C   UNL     1      50.519   7.393  11.414  0.00  0.00    +0.000 A 
ATOM      3  C   UNL     1      51.563   7.615  10.508  0.00  0.00    +0.000 A 
ATOM      4  C   UNL     1      51.929   8.915  10.142  0.00  0.00    +0.000 A 
ATOM      5  C   UNL     1      51.176   9.984  10.646  0.00  0.00    +0.000 A 
ATOM      6  C   UNL     1      50.131   9.762  11.557  0.00  0.00    +0.000 A 
ENDROOT
BRANCH   1   8
ATOM      7  C   UNL     1      48.425   9.420  13.874  0.00  0.00    +0.000 C 
ATOM      8  C   UNL     1      48.753   8.178  13.039  0.00  0.00    +0.000 C 
BRANCH   8   9
ATOM      9  N   UNL     1      47.549   7.620  12.455  0.00  0.00    +0.000 N 
ATOM     10  C   UNL     1      46.887   6.560  13.022  0.00  0.00    +0.000 C 
ATOM     11  O   UNL     1      47.301   5.992  14.030  0.00  0.00    +0.000 OA
ATOM     12  H   UNL     1      47.216   8.025  11.588  0.00  0.00    +0.000 HD
BRANCH  10  13
ATOM     13  C   UNL     1      45.621   6.162  12.396  0.00  0.00    +0.000 A 
ATOM     14  C   UNL     1      44.792   7.129  11.838  0.00  0.00    +0.000 A 
ATOM     15  S   UNL     1      43.375   6.492  11.136  0.00  0.00    +0.000 S 
ATOM     16  C   UNL     1      43.793   4.908  11.598  0.00  0.00    +0.000 A 
ATOM     17  N   UNL     1      42.969   3.860  11.325  0.00  0.00    +0.000 NA
ATOM     18  C   UNL     1      43.387   2.724  11.775  0.00  0.00    +0.000 A 
ATOM     19  N   UNL     1      44.559   2.539  12.462  0.00  0.00    +0.000 N 
ATOM     20  C   UNL     1      45.455   3.554  12.691  0.00  0.00    +0.000 A 
ATOM     21  O   UNL     1      46.550   3.326  13.192  0.00  0.00    +0.000 OA
ATOM     22  C   UNL     1      45.011   4.862  12.251  0.00  0.00    +0.000 A 
ATOM     23  H   UNL     1      44.844   1.618  12.759  0.00  0.00    +0.000 HD
ENDBRANCH  10  13
ENDBRANCH   8   9
ENDBRANCH   1   8
BRANCH   4  24
ATOM     24  C   UNL     1      53.122   9.153   9.250  0.00  0.00    +0.000 C 
BRANCH  24  25
ATOM     25  N   UNL     1      53.594   7.943   8.621  0.00  0.00    +0.000 N 
ATOM     26  C   UNL     1      53.370   7.716   7.284  0.00  0.00    +0.000 C 
ATOM     27  O   UNL     1      52.788   8.492   6.536  0.00  0.00    +0.000 OA
ATOM     28  H   UNL     1      54.092   7.272   9.187  0.00  0.00    +0.000 HD
BRANCH  26  29
ATOM     29  C   UNL     1      53.898   6.406   6.822  0.00  0.00    +0.000 C 
ATOM     30  C   UNL     1      53.322   5.253   7.206  0.00  0.00    +0.000 C 
BRANCH  30  31
ATOM     31  C   UNL     1      53.854   4.009   6.790  0.00  0.00    +0.000 A 
ATOM     32  C   UNL     1      55.066   3.562   6.302  0.00  0.00    +0.000 A 
ATOM     33  C   UNL     1      54.905   2.178   6.117  0.00  0.00    +0.000 A 
ATOM     34  N   UNL     1      53.684   1.762   6.455  0.00  0.00    +0.000 NA
ATOM     35  N   UNL     1      53.065   2.887   6.858  0.00  0.00    +0.000 N 
ATOM     36  H   UNL     1      52.102   2.813   7.169  0.00  0.00    +0.000 HD
ENDBRANCH  30  31
ENDBRANCH  26  29
ENDBRANCH  24  25
ENDBRANCH   4  24
TORSDOF 7
ENDMDL
MODEL 7
REMARK VINA RESULT:    -6.878      5.198      7.540
REMARK INTER + INTRA:         -10.800
REMARK INTER:                  -9.525
REMARK INTRA:                  -1.275
REMARK UNBOUND:                -1.107
REMARK  Name = 
REMARK  8 active torsions:
REMARK  status: ('A' for Active; 'I' for Inactive)
REMARK    1  A    between atoms: C_1  and  C_2
REMARK    2  A    between atoms: C_2  and  N_3
REMARK    3  A    between atoms: C_2  and  C_16
REMARK    4  A    between atoms: C_4  and  C_6
REMARK    5  A    between atoms: C_19  and  C_20
REMARK    6  A    between atoms: C_20  and  N_21
REMARK    7  A    between atoms: C_22  and  C_24
REMARK    8  A    between atoms: C_25  and  C_26
REMARK                            x       y       z     vdW  Elec       q    Type
REMARK                         _______ _______ _______ _____ _____    ______ ____
ROOT
ATOM      1  C   UNL     1      50.207   8.465  11.980  0.00  0.00    +0.000 A 
ATOM      2  C   UNL     1      50.775   7.391  11.276  0.00  0.00    +0.000 A 
ATOM      3  C   UNL     1      51.741   7.605  10.286  0.00  0.00    +0.000 A 
ATOM      4  C   UNL     1      52.170   8.900   9.971  0.00  0.00    +0.000 A 
ATOM      5  C   UNL     1      51.553   9.980  10.618  0.00  0.00    +0.000 A 
ATOM      6  C   UNL     1      50.586   9.766  11.613  0.00  0.00    +0.000 A 
ENDROOT
BRANCH   1   8
ATOM      7  C   UNL     1      48.631   9.461  13.696  0.00  0.00    +0.000 C 
ATOM      8  C   UNL     1      49.239   8.178  13.119  0.00  0.00    +0.000 C 
BRANCH   8   9
ATOM      9  N   UNL     1      48.196   7.255  12.713  0.00  0.00    +0.000 N 
ATOM     10  C   UNL     1      47.759   6.243  13.530  0.00  0.00    +0.000 C 
ATOM     11  O   UNL     1      48.258   6.029  14.633  0.00  0.00    +0.000 OA
ATOM     12  H   UNL     1      47.807   7.365  11.783  0.00  0.00    +0.000 HD
BRANCH  10  13
ATOM     13  C   UNL     1      46.623   5.449  13.047  0.00  0.00    +0.000 A 
ATOM     14  C   UNL     1      46.662   4.063  13.134  0.00  0.00    +0.000 A 
ATOM     15  S   UNL     1      45.253   3.301  12.549  0.00  0.00    +0.000 S 
ATOM     16  C   UNL     1      44.563   4.794  12.110  0.00  0.00    +0.000 A 
ATOM     17  N   UNL     1      43.344   4.851  11.509  0.00  0.00    +0.000 NA
ATOM     18  C   UNL     1      42.965   6.043  11.187  0.00  0.00    +0.000 A 
ATOM     19  N   UNL     1      43.688   7.183  11.423  0.00  0.00    +0.000 N 
ATOM     20  C   UNL     1      44.886   7.179  12.095  0.00  0.00    +0.000 A 
ATOM     21  O   UNL     1      45.438   8.229  12.403  0.00  0.00    +0.000 OA
ATOM     22  C   UNL     1      45.383   5.860  12.434  0.00  0.00    +0.000 A 
ATOM     23  H   UNL     1      43.320   8.089  11.175  0.00  0.00    +0.000 HD
ENDBRANCH  10  13
ENDBRANCH   8   9
ENDBRANCH   1   8
BRANCH   4  24
ATOM     24  C   UNL     1      53.287   9.117   8.982  0.00  0.00    +0.000 C 
BRANCH  24  25
ATOM     25  N   UNL     1      53.696   7.897   8.329  0.00  0.00    +0.000 N 
ATOM     26  C   UNL     1      53.346   7.651   7.023  0.00  0.00    +0.000 C 
ATOM     27  O   UNL     1      52.697   8.417   6.321  0.00  0.00    +0.000 OA
ATOM     28  H   UNL     1      54.244   7.234   8.856  0.00  0.00    +0.000 HD
BRANCH  26  29
ATOM     29  C   UNL     1      53.827   6.333   6.534  0.00  0.00    +0.000 C 
ATOM     30  C   UNL     1      53.323   5.186   7.024  0.00  0.00    +0.000 C 
BRANCH  30  31
ATOM     31  C   UNL     1      53.812   3.935   6.578  0.00  0.00    +0.000 A 
ATOM     32  C   UNL     1      54.907   3.498   5.859  0.00  0.00    +0.000 A 
ATOM     33  C   UNL     1      54.781   2.099   5.802  0.00  0.00    +0.000 A 
ATOM     34  N   UNL     1      53.686   1.665   6.429  0.00  0.00    +0.000 NA
ATOM     35  N   UNL     1      53.115   2.793   6.890  0.00  0.00    +0.000 N 
ATOM     36  H   UNL     1      52.250   2.708   7.412  0.00  0.00    +0.000 HD
ENDBRANCH  30  31
ENDBRANCH  26  29
ENDBRANCH  24  25
ENDBRANCH   4  24
TORSDOF 7
ENDMDL
MODEL 8
REMARK VINA RESULT:    -6.818      3.934      9.613
REMARK INTER + INTRA:         -10.715
REMARK INTER:                  -9.642
REMARK INTRA:                  -1.073
REMARK UNBOUND:                -1.107
REMARK  Name = 
REMARK  8 active torsions:
REMARK  status: ('A' for Active; 'I' for Inactive)
REMARK    1  A    between atoms: C_1  and  C_2
REMARK    2  A    between atoms: C_2  and  N_3
REMARK    3  A    between atoms: C_2  and  C_16
REMARK    4  A    between atoms: C_4  and  C_6
REMARK    5  A    between atoms: C_19  and  C_20
REMARK    6  A    between atoms: C_20  and  N_21
REMARK    7  A    between atoms: C_22  and  C_24
REMARK    8  A    between atoms: C_25  and  C_26
REMARK                            x       y       z     vdW  Elec       q    Type
REMARK                         _______ _______ _______ _____ _____    ______ ____
ROOT
ATOM      1  C   UNL     1      48.893   7.224  13.991  0.00  0.00    +0.000 A 
ATOM      2  C   UNL     1      48.419   6.477  15.080  0.00  0.00    +0.000 A 
ATOM      3  C   UNL     1      49.191   6.311  16.236  0.00  0.00    +0.000 A 
ATOM      4  C   UNL     1      50.462   6.889  16.336  0.00  0.00    +0.000 A 
ATOM      5  C   UNL     1      50.971   7.574  15.224  0.00  0.00    +0.000 A 
ATOM      6  C   UNL     1      50.195   7.742  14.066  0.00  0.00    +0.000 A 
ENDROOT
BRANCH   1   8
ATOM      7  C   UNL     1      48.759   7.843  11.537  0.00  0.00    +0.000 C 
ATOM      8  C   UNL     1      47.976   7.465  12.799  0.00  0.00    +0.000 C 
BRANCH   8   9
ATOM      9  N   UNL     1      47.119   6.323  12.546  0.00  0.00    +0.000 N 
ATOM     10  C   UNL     1      45.824   6.465  12.114  0.00  0.00    +0.000 C 
ATOM     11  O   UNL     1      45.301   7.566  11.960  0.00  0.00    +0.000 OA
ATOM     12  H   UNL     1      47.499   5.400  12.724  0.00  0.00    +0.000 HD
BRANCH  10  13
ATOM     13  C   UNL     1      45.099   5.231  11.787  0.00  0.00    +0.000 A 
ATOM     14  C   UNL     1      44.361   4.583  12.771  0.00  0.00    +0.000 A 
ATOM     15  S   UNL     1      43.566   3.180  12.216  0.00  0.00    +0.000 S 
ATOM     16  C   UNL     1      44.221   3.361  10.656  0.00  0.00    +0.000 A 
ATOM     17  N   UNL     1      43.957   2.453   9.678  0.00  0.00    +0.000 NA
ATOM     18  C   UNL     1      44.557   2.687   8.558  0.00  0.00    +0.000 A 
ATOM     19  N   UNL     1      45.387   3.752   8.325  0.00  0.00    +0.000 N 
ATOM     20  C   UNL     1      45.620   4.733   9.258  0.00  0.00    +0.000 A 
ATOM     21  O   UNL     1      46.261   5.737   8.970  0.00  0.00    +0.000 OA
ATOM     22  C   UNL     1      45.010   4.492  10.551  0.00  0.00    +0.000 A 
ATOM     23  H   UNL     1      45.802   3.896   7.417  0.00  0.00    +0.000 HD
ENDBRANCH  10  13
ENDBRANCH   8   9
ENDBRANCH   1   8
BRANCH   4  24
ATOM     24  C   UNL     1      51.245   6.799  17.622  0.00  0.00    +0.000 C 
BRANCH  24  25
ATOM     25  N   UNL     1      51.903   5.525  17.782  0.00  0.00    +0.000 N 
ATOM     26  C   UNL     1      51.415   4.590  18.663  0.00  0.00    +0.000 C 
ATOM     27  O   UNL     1      50.412   4.740  19.350  0.00  0.00    +0.000 OA
ATOM     28  H   UNL     1      52.728   5.341  17.230  0.00  0.00    +0.000 HD
BRANCH  26  29
ATOM     29  C   UNL     1      52.242   3.356  18.715  0.00  0.00    +0.000 C 
ATOM     30  C   UNL     1      52.255   2.487  17.690  0.00  0.00    +0.000 C 
BRANCH  30  31
ATOM     31  C   UNL     1      53.017   1.297  17.763  0.00  0.00    +0.000 A 
ATOM     32  C   UNL     1      54.257   0.885  17.316  0.00  0.00    +0.000 A 
ATOM     33  C   UNL     1      54.396  -0.438  17.771  0.00  0.00    +0.000 A 
ATOM     34  N   UNL     1      53.328  -0.852  18.454  0.00  0.00    +0.000 NA
ATOM     35  N   UNL     1      52.506   0.214  18.436  0.00  0.00    +0.000 N 
ATOM     36  H   UNL     1      51.610   0.130  18.905  0.00  0.00    +0.000 HD
ENDBRANCH  30  31
ENDBRANCH  26  29
ENDBRANCH  24  25
ENDBRANCH   4  24
TORSDOF 7
ENDMDL
MODEL 9
REMARK VINA RESULT:    -6.630      2.474      2.883
REMARK INTER + INTRA:         -10.450
REMARK INTER:                  -9.463
REMARK INTRA:                  -0.987
REMARK UNBOUND:                -1.107
REMARK  Name = 
REMARK  8 active torsions:
REMARK  status: ('A' for Active; 'I' for Inactive)
REMARK    1  A    between atoms: C_1  and  C_2
REMARK    2  A    between atoms: C_2  and  N_3
REMARK    3  A    between atoms: C_2  and  C_16
REMARK    4  A    between atoms: C_4  and  C_6
REMARK    5  A    between atoms: C_19  and  C_20
REMARK    6  A    between atoms: C_20  and  N_21
REMARK    7  A    between atoms: C_22  and  C_24
REMARK    8  A    between atoms: C_25  and  C_26
REMARK                            x       y       z     vdW  Elec       q    Type
REMARK                         _______ _______ _______ _____ _____    ______ ____
ROOT
ATOM      1  C   UNL     1      48.046   7.972  14.347  0.00  0.00    +0.000 A 
ATOM      2  C   UNL     1      47.075   8.844  13.830  0.00  0.00    +0.000 A 
ATOM      3  C   UNL     1      46.114   8.397  12.916  0.00  0.00    +0.000 A 
ATOM      4  C   UNL     1      46.095   7.064  12.491  0.00  0.00    +0.000 A 
ATOM      5  C   UNL     1      47.106   6.207  12.946  0.00  0.00    +0.000 A 
ATOM      6  C   UNL     1      48.069   6.653  13.865  0.00  0.00    +0.000 A 
ENDROOT
BRANCH   1   8
ATOM      7  C   UNL     1      48.270   8.907  16.691  0.00  0.00    +0.000 C 
ATOM      8  C   UNL     1      49.004   8.476  15.417  0.00  0.00    +0.000 C 
BRANCH   8   9
ATOM      9  N   UNL     1      50.026   7.494  15.723  0.00  0.00    +0.000 N 
ATOM     10  C   UNL     1      51.243   7.847  16.250  0.00  0.00    +0.000 C 
ATOM     11  O   UNL     1      51.555   9.019  16.450  0.00  0.00    +0.000 OA
ATOM     12  H   UNL     1      49.824   6.523  15.511  0.00  0.00    +0.000 HD
BRANCH  10  13
ATOM     13  C   UNL     1      52.146   6.750  16.619  0.00  0.00    +0.000 A 
ATOM     14  C   UNL     1      53.513   6.879  16.405  0.00  0.00    +0.000 A 
ATOM     15  S   UNL     1      54.415   5.524  16.910  0.00  0.00    +0.000 S 
ATOM     16  C   UNL     1      53.006   4.695  17.384  0.00  0.00    +0.000 A 
ATOM     17  N   UNL     1      53.073   3.432  17.884  0.00  0.00    +0.000 NA
ATOM     18  C   UNL     1      51.925   2.906  18.157  0.00  0.00    +0.000 A 
ATOM     19  N   UNL     1      50.719   3.533  17.986  0.00  0.00    +0.000 N 
ATOM     20  C   UNL     1      50.609   4.833  17.558  0.00  0.00    +0.000 A 
ATOM     21  O   UNL     1      49.524   5.403  17.543  0.00  0.00    +0.000 OA
ATOM     22  C   UNL     1      51.866   5.454  17.188  0.00  0.00    +0.000 A 
ATOM     23  H   UNL     1      49.857   3.078  18.249  0.00  0.00    +0.000 HD
ENDBRANCH  10  13
ENDBRANCH   8   9
ENDBRANCH   1   8
BRANCH   4  24
ATOM     24  C   UNL     1      44.993   6.563  11.591  0.00  0.00    +0.000 C 
BRANCH  24  25
ATOM     25  N   UNL     1      45.450   5.555  10.664  0.00  0.00    +0.000 N 
ATOM     26  C   UNL     1      44.558   4.694  10.071  0.00  0.00    +0.000 C 
ATOM     27  O   UNL     1      43.347   4.712  10.256  0.00  0.00    +0.000 OA
ATOM     28  H   UNL     1      46.438   5.503  10.463  0.00  0.00    +0.000 HD
BRANCH  26  29
ATOM     29  C   UNL     1      45.215   3.707   9.175  0.00  0.00    +0.000 C 
ATOM     30  C   UNL     1      45.878   4.105   8.075  0.00  0.00    +0.000 C 
BRANCH  30  31
ATOM     31  C   UNL     1      46.470   3.155   7.208  0.00  0.00    +0.000 A 
ATOM     32  C   UNL     1      46.950   3.160   5.913  0.00  0.00    +0.000 A 
ATOM     33  C   UNL     1      47.431   1.858   5.690  0.00  0.00    +0.000 A 
ATOM     34  N   UNL     1      47.270   1.071   6.755  0.00  0.00    +0.000 NA
ATOM     35  N   UNL     1      46.686   1.877   7.661  0.00  0.00    +0.000 N 
ATOM     36  H   UNL     1      46.463   1.486   8.570  0.00  0.00    +0.000 HD
ENDBRANCH  30  31
ENDBRANCH  26  29
ENDBRANCH  24  25
ENDBRANCH   4  24
TORSDOF 7
ENDMDL
