MODEL 1
REMARK VINA RESULT:    -6.999      0.000      0.000
REMARK INTER + INTRA:         -12.199
REMARK INTER:                 -10.887
REMARK INTRA:                  -1.312
REMARK UNBOUND:                -1.312
REMARK  Name = 
REMARK  10 active torsions:
REMARK  status: ('A' for Active; 'I' for Inactive)
REMARK    1  A    between atoms: N_1  and  C_2
REMARK    2  A    between atoms: C_2  and  C_3
REMARK    3  A    between atoms: C_3  and  N_4
REMARK    4  A    between atoms: N_4  and  C_5
REMARK    5  A    between atoms: C_5  and  C_6
REMARK    6  A    between atoms: C_9  and  C_10
REMARK    7  A    between atoms: C_10  and  C_11
REMARK    8  A    between atoms: C_14  and  C_15
REMARK    9  A    between atoms: C_15  and  N_16
REMARK   10  A    between atoms: C_17  and  C_19
REMARK                            x       y       z     vdW  Elec       q    Type
REMARK                         _______ _______ _______ _____ _____    ______ ____
ROOT
ATOM      1  C   UNL     1      45.896   6.683  12.954  0.00  0.00    +0.000 A 
ATOM      2  C   UNL     1      46.837   5.779  13.463  0.00  0.00    +0.000 A 
ATOM      3  C   UNL     1      47.996   6.235  14.101  0.00  0.00    +0.000 A 
ATOM      4  C   UNL     1      48.235   7.608  14.247  0.00  0.00    +0.000 A 
ATOM      5  C   UNL     1      47.318   8.511  13.693  0.00  0.00    +0.000 A 
ATOM      6  C   UNL     1      46.156   8.055  13.064  0.00  0.00    +0.000 A 
ENDROOT
BRANCH   1   7
ATOM      7  C   UNL     1      44.620   6.184  12.316  0.00  0.00    +0.000 C 
BRANCH   7  11
ATOM      8  C   UNL     1      45.084   3.458   9.066  0.00  0.00    +0.000 A 
ATOM      9  C   UNL     1      45.667   4.717   8.963  0.00  0.00    +0.000 A 
ATOM     10  C   UNL     1      45.543   5.610  10.025  0.00  0.00    +0.000 A 
ATOM     11  C   UNL     1      44.828   5.235  11.164  0.00  0.00    +0.000 A 
ATOM     12  C   UNL     1      44.300   3.949  11.188  0.00  0.00    +0.000 A 
ATOM     13  N   UNL     1      44.408   3.058  10.174  0.00  0.00    +0.000 NA
BRANCH   8  14
ATOM     14  C   UNL     1      45.266   2.448   7.947  0.00  0.00    +0.000 C 
BRANCH  14  15
ATOM     15  N   UNL     1      46.003   1.232   8.352  0.00  0.00    +0.000 NA
ATOM     16  H   UNL     1      46.362   1.413   9.294  0.00  0.00    +0.000 HD
BRANCH  15  17
ATOM     17  C   UNL     1      47.189   1.009   7.504  0.00  0.00    +0.000 C 
BRANCH  17  18
ATOM     18  C   UNL     1      47.190   1.845   6.210  0.00  0.00    +0.000 C 
BRANCH  18  19
ATOM     19  N   UNL     1      48.539   1.920   5.635  0.00  0.00    +0.000 NA
ATOM     20  H   UNL     1      49.172   2.298   6.338  0.00  0.00    +0.000 HD
ATOM     21  H   UNL     1      48.530   2.593   4.868  0.00  0.00    +0.000 HD
ENDBRANCH  18  19
ENDBRANCH  17  18
ENDBRANCH  15  17
ENDBRANCH  14  15
ENDBRANCH   8  14
ENDBRANCH   7  11
ENDBRANCH   1   7
BRANCH   4  22
ATOM     22  C   UNL     1      49.459   8.113  14.968  0.00  0.00    +0.000 C 
BRANCH  22  23
ATOM     23  N   UNL     1      50.255   7.026  15.478  0.00  0.00    +0.000 N 
ATOM     24  C   UNL     1      50.511   6.900  16.821  0.00  0.00    +0.000 C 
ATOM     25  O   UNL     1      50.036   7.667  17.652  0.00  0.00    +0.000 OA
ATOM     26  H   UNL     1      50.849   6.544  14.814  0.00  0.00    +0.000 HD
BRANCH  24  27
ATOM     27  C   UNL     1      51.337   5.752  17.219  0.00  0.00    +0.000 A 
ATOM     28  C   UNL     1      52.661   5.951  17.584  0.00  0.00    +0.000 A 
ATOM     29  S   UNL     1      53.465   4.523  18.053  0.00  0.00    +0.000 S 
ATOM     30  C   UNL     1      52.084   3.580  17.735  0.00  0.00    +0.000 A 
ATOM     31  N   UNL     1      52.108   2.227  17.904  0.00  0.00    +0.000 NA
ATOM     32  C   UNL     1      50.996   1.636  17.614  0.00  0.00    +0.000 A 
ATOM     33  N   UNL     1      49.866   2.269  17.177  0.00  0.00    +0.000 N 
ATOM     34  C   UNL     1      49.793   3.634  17.007  0.00  0.00    +0.000 A 
ATOM     35  O   UNL     1      48.749   4.173  16.644  0.00  0.00    +0.000 OA
ATOM     36  C   UNL     1      51.017   4.348  17.308  0.00  0.00    +0.000 A 
ATOM     37  H   UNL     1      49.023   1.752  16.973  0.00  0.00    +0.000 HD
ENDBRANCH  24  27
ENDBRANCH  22  23
ENDBRANCH   4  22
TORSDOF 10
ENDMDL
MODEL 2
REMARK VINA RESULT:    -6.991      2.280      2.531
REMARK INTER + INTRA:         -12.186
REMARK INTER:                 -10.796
REMARK INTRA:                  -1.389
REMARK UNBOUND:                -1.312
REMARK  Name = 
REMARK  10 active torsions:
REMARK  status: ('A' for Active; 'I' for Inactive)
REMARK    1  A    between atoms: N_1  and  C_2
REMARK    2  A    between atoms: C_2  and  C_3
REMARK    3  A    between atoms: C_3  and  N_4
REMARK    4  A    between atoms: N_4  and  C_5
REMARK    5  A    between atoms: C_5  and  C_6
REMARK    6  A    between atoms: C_9  and  C_10
REMARK    7  A    between atoms: C_10  and  C_11
REMARK    8  A    between atoms: C_14  and  C_15
REMARK    9  A    between atoms: C_15  and  N_16
REMARK   10  A    between atoms: C_17  and  C_19
REMARK                            x       y       z     vdW  Elec       q    Type
REMARK                         _______ _______ _______ _____ _____    ______ ____
ROOT
ATOM      1  C   UNL     1      45.623   6.479  12.897  0.00  0.00    +0.000 A 
ATOM      2  C   UNL     1      45.893   7.854  12.918  0.00  0.00    +0.000 A 
ATOM      3  C   UNL     1      47.092   8.339  13.452  0.00  0.00    +0.000 A 
ATOM      4  C   UNL     1      48.048   7.458  13.973  0.00  0.00    +0.000 A 
ATOM      5  C   UNL     1      47.756   6.088  13.996  0.00  0.00    +0.000 A 
ATOM      6  C   UNL     1      46.563   5.602  13.455  0.00  0.00    +0.000 A 
ENDROOT
BRANCH   1   7
ATOM      7  C   UNL     1      44.352   5.957  12.268  0.00  0.00    +0.000 C 
BRANCH   7  11
ATOM      8  C   UNL     1      44.837   3.059   9.175  0.00  0.00    +0.000 A 
ATOM      9  C   UNL     1      45.383   4.324   8.988  0.00  0.00    +0.000 A 
ATOM     10  C   UNL     1      45.251   5.275   9.998  0.00  0.00    +0.000 A 
ATOM     11  C   UNL     1      44.567   4.948  11.170  0.00  0.00    +0.000 A 
ATOM     12  C   UNL     1      44.076   3.651  11.279  0.00  0.00    +0.000 A 
ATOM     13  N   UNL     1      44.192   2.705  10.317  0.00  0.00    +0.000 NA
BRANCH   8  14
ATOM     14  C   UNL     1      45.029   1.990   8.114  0.00  0.00    +0.000 C 
BRANCH  14  15
ATOM     15  N   UNL     1      46.128   1.045   8.407  0.00  0.00    +0.000 NA
ATOM     16  H   UNL     1      46.705   1.489   9.127  0.00  0.00    +0.000 HD
BRANCH  15  17
ATOM     17  C   UNL     1      47.011   0.861   7.239  0.00  0.00    +0.000 C 
BRANCH  17  18
ATOM     18  C   UNL     1      47.827   2.117   6.877  0.00  0.00    +0.000 C 
BRANCH  18  19
ATOM     19  N   UNL     1      48.538   1.931   5.605  0.00  0.00    +0.000 NA
ATOM     20  H   UNL     1      49.440   2.401   5.665  0.00  0.00    +0.000 HD
ATOM     21  H   UNL     1      48.017   2.407   4.869  0.00  0.00    +0.000 HD
ENDBRANCH  18  19
ENDBRANCH  17  18
ENDBRANCH  15  17
ENDBRANCH  14  15
ENDBRANCH   8  14
ENDBRANCH   7  11
ENDBRANCH   1   7
BRANCH   4  22
ATOM     22  C   UNL     1      49.362   7.965  14.514  0.00  0.00    +0.000 C 
BRANCH  22  23
ATOM     23  N   UNL     1      49.541   7.592  15.893  0.00  0.00    +0.000 N 
ATOM     24  C   UNL     1      48.961   8.313  16.907  0.00  0.00    +0.000 C 
ATOM     25  O   UNL     1      48.224   9.270  16.691  0.00  0.00    +0.000 OA
ATOM     26  H   UNL     1      50.324   6.983  16.104  0.00  0.00    +0.000 HD
BRANCH  24  27
ATOM     27  C   UNL     1      49.220   7.836  18.272  0.00  0.00    +0.000 A 
ATOM     28  C   UNL     1      49.882   8.658  19.174  0.00  0.00    +0.000 A 
ATOM     29  S   UNL     1      50.066   7.968  20.722  0.00  0.00    +0.000 S 
ATOM     30  C   UNL     1      49.313   6.524  20.225  0.00  0.00    +0.000 A 
ATOM     31  N   UNL     1      49.173   5.476  21.086  0.00  0.00    +0.000 NA
ATOM     32  C   UNL     1      48.595   4.441  20.573  0.00  0.00    +0.000 A 
ATOM     33  N   UNL     1      48.141   4.357  19.286  0.00  0.00    +0.000 N 
ATOM     34  C   UNL     1      48.247   5.396  18.388  0.00  0.00    +0.000 A 
ATOM     35  O   UNL     1      47.797   5.296  17.249  0.00  0.00    +0.000 OA
ATOM     36  C   UNL     1      48.898   6.581  18.907  0.00  0.00    +0.000 A 
ATOM     37  H   UNL     1      47.689   3.521  18.945  0.00  0.00    +0.000 HD
ENDBRANCH  24  27
ENDBRANCH  22  23
ENDBRANCH   4  22
TORSDOF 10
ENDMDL
MODEL 3
REMARK VINA RESULT:    -6.874      4.100     10.346
REMARK INTER + INTRA:         -12.004
REMARK INTER:                 -11.005
REMARK INTRA:                  -0.999
REMARK UNBOUND:                -1.312
REMARK  Name = 
REMARK  10 active torsions:
REMARK  status: ('A' for Active; 'I' for Inactive)
REMARK    1  A    between atoms: N_1  and  C_2
REMARK    2  A    between atoms: C_2  and  C_3
REMARK    3  A    between atoms: C_3  and  N_4
REMARK    4  A    between atoms: N_4  and  C_5
REMARK    5  A    between atoms: C_5  and  C_6
REMARK    6  A    between atoms: C_9  and  C_10
REMARK    7  A    between atoms: C_10  and  C_11
REMARK    8  A    between atoms: C_14  and  C_15
REMARK    9  A    between atoms: C_15  and  N_16
REMARK   10  A    between atoms: C_17  and  C_19
REMARK                            x       y       z     vdW  Elec       q    Type
REMARK                         _______ _______ _______ _____ _____    ______ ____
ROOT
ATOM      1  C   UNL     1      51.477   4.045  17.604  0.00  0.00    +0.000 A 
ATOM      2  C   UNL     1      50.953   2.758  17.429  0.00  0.00    +0.000 A 
ATOM      3  C   UNL     1      49.589   2.568  17.180  0.00  0.00    +0.000 A 
ATOM      4  C   UNL     1      48.722   3.665  17.095  0.00  0.00    +0.000 A 
ATOM      5  C   UNL     1      49.238   4.948  17.319  0.00  0.00    +0.000 A 
ATOM      6  C   UNL     1      50.601   5.138  17.560  0.00  0.00    +0.000 A 
ENDROOT
BRANCH   1   7
ATOM      7  C   UNL     1      52.960   4.247  17.817  0.00  0.00    +0.000 C 
BRANCH   7  11
ATOM      8  C   UNL     1      54.919   0.837  19.472  0.00  0.00    +0.000 A 
ATOM      9  C   UNL     1      54.715   0.881  18.096  0.00  0.00    +0.000 A 
ATOM     10  C   UNL     1      54.097   1.997  17.539  0.00  0.00    +0.000 A 
ATOM     11  C   UNL     1      53.681   3.043  18.366  0.00  0.00    +0.000 A 
ATOM     12  C   UNL     1      53.947   2.922  19.725  0.00  0.00    +0.000 A 
ATOM     13  N   UNL     1      54.551   1.852  20.295  0.00  0.00    +0.000 NA
BRANCH   8  14
ATOM     14  C   UNL     1      55.651  -0.342  20.089  0.00  0.00    +0.000 C 
BRANCH  14  15
ATOM     15  N   UNL     1      54.758  -1.339  20.717  0.00  0.00    +0.000 NA
ATOM     16  H   UNL     1      55.099  -1.470  21.674  0.00  0.00    +0.000 HD
BRANCH  15  17
ATOM     17  C   UNL     1      54.871  -2.657  20.064  0.00  0.00    +0.000 C 
BRANCH  17  18
ATOM     18  C   UNL     1      53.648  -3.028  19.204  0.00  0.00    +0.000 C 
BRANCH  18  19
ATOM     19  N   UNL     1      52.603  -2.001  19.308  0.00  0.00    +0.000 NA
ATOM     20  H   UNL     1      52.526  -1.712  20.282  0.00  0.00    +0.000 HD
ATOM     21  H   UNL     1      51.707  -2.421  19.062  0.00  0.00    +0.000 HD
ENDBRANCH  18  19
ENDBRANCH  17  18
ENDBRANCH  15  17
ENDBRANCH  14  15
ENDBRANCH   8  14
ENDBRANCH   7  11
ENDBRANCH   1   7
BRANCH   4  22
ATOM     22  C   UNL     1      47.257   3.477  16.786  0.00  0.00    +0.000 C 
BRANCH  22  23
ATOM     23  N   UNL     1      46.797   4.440  15.818  0.00  0.00    +0.000 N 
ATOM     24  C   UNL     1      46.832   4.168  14.472  0.00  0.00    +0.000 C 
ATOM     25  O   UNL     1      47.203   3.085  14.033  0.00  0.00    +0.000 OA
ATOM     26  H   UNL     1      46.729   5.402  16.126  0.00  0.00    +0.000 HD
BRANCH  24  27
ATOM     27  C   UNL     1      46.338   5.229  13.584  0.00  0.00    +0.000 A 
ATOM     28  C   UNL     1      47.132   6.340  13.333  0.00  0.00    +0.000 A 
ATOM     29  S   UNL     1      46.427   7.455  12.253  0.00  0.00    +0.000 S 
ATOM     30  C   UNL     1      45.013   6.516  12.124  0.00  0.00    +0.000 A 
ATOM     31  N   UNL     1      43.965   6.931  11.356  0.00  0.00    +0.000 NA
ATOM     32  C   UNL     1      42.953   6.128  11.359  0.00  0.00    +0.000 A 
ATOM     33  N   UNL     1      42.892   4.950  12.053  0.00  0.00    +0.000 N 
ATOM     34  C   UNL     1      43.932   4.485  12.827  0.00  0.00    +0.000 A 
ATOM     35  O   UNL     1      43.855   3.406  13.409  0.00  0.00    +0.000 OA
ATOM     36  C   UNL     1      45.092   5.353  12.869  0.00  0.00    +0.000 A 
ATOM     37  H   UNL     1      42.074   4.360  12.009  0.00  0.00    +0.000 HD
ENDBRANCH  24  27
ENDBRANCH  22  23
ENDBRANCH   4  22
TORSDOF 10
ENDMDL
MODEL 4
REMARK VINA RESULT:    -6.843      5.333      6.739
REMARK INTER + INTRA:         -11.956
REMARK INTER:                 -10.722
REMARK INTRA:                  -1.234
REMARK UNBOUND:                -1.312
REMARK  Name = 
REMARK  10 active torsions:
REMARK  status: ('A' for Active; 'I' for Inactive)
REMARK    1  A    between atoms: N_1  and  C_2
REMARK    2  A    between atoms: C_2  and  C_3
REMARK    3  A    between atoms: C_3  and  N_4
REMARK    4  A    between atoms: N_4  and  C_5
REMARK    5  A    between atoms: C_5  and  C_6
REMARK    6  A    between atoms: C_9  and  C_10
REMARK    7  A    between atoms: C_10  and  C_11
REMARK    8  A    between atoms: C_14  and  C_15
REMARK    9  A    between atoms: C_15  and  N_16
REMARK   10  A    between atoms: C_17  and  C_19
REMARK                            x       y       z     vdW  Elec       q    Type
REMARK                         _______ _______ _______ _____ _____    ______ ____
ROOT
ATOM      1  C   UNL     1      47.397   7.461  12.607  0.00  0.00    +0.000 A 
ATOM      2  C   UNL     1      47.501   8.759  12.090  0.00  0.00    +0.000 A 
ATOM      3  C   UNL     1      48.747   9.298  11.752  0.00  0.00    +0.000 A 
ATOM      4  C   UNL     1      49.917   8.546  11.921  0.00  0.00    +0.000 A 
ATOM      5  C   UNL     1      49.818   7.267  12.484  0.00  0.00    +0.000 A 
ATOM      6  C   UNL     1      48.572   6.726  12.814  0.00  0.00    +0.000 A 
ENDROOT
BRANCH   1   7
ATOM      7  C   UNL     1      46.044   6.864  12.918  0.00  0.00    +0.000 C 
BRANCH   7  11
ATOM      8  C   UNL     1      44.787   3.644  10.418  0.00  0.00    +0.000 A 
ATOM      9  C   UNL     1      45.135   4.850   9.819  0.00  0.00    +0.000 A 
ATOM     10  C   UNL     1      45.569   5.904  10.620  0.00  0.00    +0.000 A 
ATOM     11  C   UNL     1      45.634   5.738  12.005  0.00  0.00    +0.000 A 
ATOM     12  C   UNL     1      45.288   4.490  12.513  0.00  0.00    +0.000 A 
ATOM     13  N   UNL     1      44.869   3.447  11.759  0.00  0.00    +0.000 NA
BRANCH   8  14
ATOM     14  C   UNL     1      44.377   2.463   9.555  0.00  0.00    +0.000 C 
BRANCH  14  15
ATOM     15  N   UNL     1      45.498   1.571   9.191  0.00  0.00    +0.000 NA
ATOM     16  H   UNL     1      46.221   1.709   9.902  0.00  0.00    +0.000 HD
BRANCH  15  17
ATOM     17  C   UNL     1      46.112   1.967   7.909  0.00  0.00    +0.000 C 
BRANCH  17  18
ATOM     18  C   UNL     1      47.201   0.992   7.418  0.00  0.00    +0.000 C 
BRANCH  18  19
ATOM     19  N   UNL     1      46.819  -0.400   7.690  0.00  0.00    +0.000 NA
ATOM     20  H   UNL     1      46.252  -0.740   6.916  0.00  0.00    +0.000 HD
ATOM     21  H   UNL     1      46.217  -0.417   8.514  0.00  0.00    +0.000 HD
ENDBRANCH  18  19
ENDBRANCH  17  18
ENDBRANCH  15  17
ENDBRANCH  14  15
ENDBRANCH   8  14
ENDBRANCH   7  11
ENDBRANCH   1   7
BRANCH   4  22
ATOM     22  C   UNL     1      51.262   9.100  11.522  0.00  0.00    +0.000 C 
BRANCH  22  23
ATOM     23  N   UNL     1      51.675   8.601  10.236  0.00  0.00    +0.000 N 
ATOM     24  C   UNL     1      52.794   9.092   9.607  0.00  0.00    +0.000 C 
ATOM     25  O   UNL     1      53.520   9.933  10.127  0.00  0.00    +0.000 OA
ATOM     26  H   UNL     1      50.978   8.109   9.689  0.00  0.00    +0.000 HD
BRANCH  24  27
ATOM     27  C   UNL     1      53.111   8.507   8.298  0.00  0.00    +0.000 A 
ATOM     28  C   UNL     1      53.166   9.321   7.175  0.00  0.00    +0.000 A 
ATOM     29  S   UNL     1      53.584   8.491   5.747  0.00  0.00    +0.000 S 
ATOM     30  C   UNL     1      53.657   7.003   6.570  0.00  0.00    +0.000 A 
ATOM     31  N   UNL     1      53.943   5.848   5.904  0.00  0.00    +0.000 NA
ATOM     32  C   UNL     1      53.953   4.793   6.650  0.00  0.00    +0.000 A 
ATOM     33  N   UNL     1      53.709   4.785   7.995  0.00  0.00    +0.000 N 
ATOM     34  C   UNL     1      53.432   5.929   8.711  0.00  0.00    +0.000 A 
ATOM     35  O   UNL     1      53.251   5.889   9.926  0.00  0.00    +0.000 OA
ATOM     36  C   UNL     1      53.397   7.144   7.921  0.00  0.00    +0.000 A 
ATOM     37  H   UNL     1      53.739   3.927   8.526  0.00  0.00    +0.000 HD
ENDBRANCH  24  27
ENDBRANCH  22  23
ENDBRANCH   4  22
TORSDOF 10
ENDMDL
MODEL 5
REMARK VINA RESULT:    -6.488      2.210      3.253
REMARK INTER + INTRA:         -11.403
REMARK INTER:                  -9.941
REMARK INTRA:                  -1.461
REMARK UNBOUND:                -1.312
REMARK  Name = 
REMARK  10 active torsions:
REMARK  status: ('A' for Active; 'I' for Inactive)
REMARK    1  A    between atoms: N_1  and  C_2
REMARK    2  A    between atoms: C_2  and  C_3
REMARK    3  A    between atoms: C_3  and  N_4
REMARK    4  A    between atoms: N_4  and  C_5
REMARK    5  A    between atoms: C_5  and  C_6
REMARK    6  A    between atoms: C_9  and  C_10
REMARK    7  A    between atoms: C_10  and  C_11
REMARK    8  A    between atoms: C_14  and  C_15
REMARK    9  A    between atoms: C_15  and  N_16
REMARK   10  A    between atoms: C_17  and  C_19
REMARK                            x       y       z     vdW  Elec       q    Type
REMARK                         _______ _______ _______ _____ _____    ______ ____
ROOT
ATOM      1  C   UNL     1      48.451   7.977  13.699  0.00  0.00    +0.000 A 
ATOM      2  C   UNL     1      48.019   8.624  14.864  0.00  0.00    +0.000 A 
ATOM      3  C   UNL     1      48.858   8.730  15.978  0.00  0.00    +0.000 A 
ATOM      4  C   UNL     1      50.152   8.193  15.948  0.00  0.00    +0.000 A 
ATOM      5  C   UNL     1      50.566   7.502  14.801  0.00  0.00    +0.000 A 
ATOM      6  C   UNL     1      49.730   7.404  13.685  0.00  0.00    +0.000 A 
ENDROOT
BRANCH   1   7
ATOM      7  C   UNL     1      47.560   7.915  12.480  0.00  0.00    +0.000 C 
BRANCH   7  11
ATOM      8  C   UNL     1      44.321   5.144  12.653  0.00  0.00    +0.000 A 
ATOM      9  C   UNL     1      45.469   4.867  13.389  0.00  0.00    +0.000 A 
ATOM     10  C   UNL     1      46.526   5.773  13.359  0.00  0.00    +0.000 A 
ATOM     11  C   UNL     1      46.424   6.932  12.586  0.00  0.00    +0.000 A 
ATOM     12  C   UNL     1      45.230   7.136  11.903  0.00  0.00    +0.000 A 
ATOM     13  N   UNL     1      44.183   6.277  11.917  0.00  0.00    +0.000 NA
BRANCH   8  14
ATOM     14  C   UNL     1      43.132   4.202  12.726  0.00  0.00    +0.000 C 
BRANCH  14  15
ATOM     15  N   UNL     1      42.847   3.499  11.456  0.00  0.00    +0.000 NA
ATOM     16  H   UNL     1      42.221   2.723  11.690  0.00  0.00    +0.000 HD
BRANCH  15  17
ATOM     17  C   UNL     1      44.063   2.882  10.893  0.00  0.00    +0.000 C 
BRANCH  17  18
ATOM     18  C   UNL     1      44.379   3.341   9.456  0.00  0.00    +0.000 C 
BRANCH  18  19
ATOM     19  N   UNL     1      43.777   4.652   9.180  0.00  0.00    +0.000 NA
ATOM     20  H   UNL     1      44.173   5.334   9.825  0.00  0.00    +0.000 HD
ATOM     21  H   UNL     1      42.781   4.604   9.392  0.00  0.00    +0.000 HD
ENDBRANCH  18  19
ENDBRANCH  17  18
ENDBRANCH  15  17
ENDBRANCH  14  15
ENDBRANCH   8  14
ENDBRANCH   7  11
ENDBRANCH   1   7
BRANCH   4  22
ATOM     22  C   UNL     1      51.082   8.335  17.127  0.00  0.00    +0.000 C 
BRANCH  22  23
ATOM     23  N   UNL     1      51.774   7.102  17.402  0.00  0.00    +0.000 N 
ATOM     24  C   UNL     1      51.246   6.165  18.257  0.00  0.00    +0.000 C 
ATOM     25  O   UNL     1      50.147   6.305  18.782  0.00  0.00    +0.000 OA
ATOM     26  H   UNL     1      52.765   7.077  17.191  0.00  0.00    +0.000 HD
BRANCH  24  27
ATOM     27  C   UNL     1      52.047   4.951  18.461  0.00  0.00    +0.000 A 
ATOM     28  C   UNL     1      53.258   5.030  19.134  0.00  0.00    +0.000 A 
ATOM     29  S   UNL     1      54.040   3.526  19.318  0.00  0.00    +0.000 S 
ATOM     30  C   UNL     1      52.810   2.723  18.457  0.00  0.00    +0.000 A 
ATOM     31  N   UNL     1      52.882   1.382  18.222  0.00  0.00    +0.000 NA
ATOM     32  C   UNL     1      51.888   0.907  17.547  0.00  0.00    +0.000 A 
ATOM     33  N   UNL     1      50.830   1.643  17.092  0.00  0.00    +0.000 N 
ATOM     34  C   UNL     1      50.708   2.996  17.320  0.00  0.00    +0.000 A 
ATOM     35  O   UNL     1      49.725   3.620  16.924  0.00  0.00    +0.000 OA
ATOM     36  C   UNL     1      51.803   3.585  18.064  0.00  0.00    +0.000 A 
ATOM     37  H   UNL     1      50.077   1.212  16.575  0.00  0.00    +0.000 HD
ENDBRANCH  24  27
ENDBRANCH  22  23
ENDBRANCH   4  22
TORSDOF 10
ENDMDL
MODEL 6
REMARK VINA RESULT:    -6.364      4.064      9.036
REMARK INTER + INTRA:         -11.211
REMARK INTER:                  -9.697
REMARK INTRA:                  -1.514
REMARK UNBOUND:                -1.312
REMARK  Name = 
REMARK  10 active torsions:
REMARK  status: ('A' for Active; 'I' for Inactive)
REMARK    1  A    between atoms: N_1  and  C_2
REMARK    2  A    between atoms: C_2  and  C_3
REMARK    3  A    between atoms: C_3  and  N_4
REMARK    4  A    between atoms: N_4  and  C_5
REMARK    5  A    between atoms: C_5  and  C_6
REMARK    6  A    between atoms: C_9  and  C_10
REMARK    7  A    between atoms: C_10  and  C_11
REMARK    8  A    between atoms: C_14  and  C_15
REMARK    9  A    between atoms: C_15  and  N_16
REMARK   10  A    between atoms: C_17  and  C_19
REMARK                            x       y       z     vdW  Elec       q    Type
REMARK                         _______ _______ _______ _____ _____    ______ ____
ROOT
ATOM      1  C   UNL     1      51.198   4.073  18.150  0.00  0.00    +0.000 A 
ATOM      2  C   UNL     1      50.870   2.924  17.419  0.00  0.00    +0.000 A 
ATOM      3  C   UNL     1      49.548   2.671  17.039  0.00  0.00    +0.000 A 
ATOM      4  C   UNL     1      48.525   3.567  17.379  0.00  0.00    +0.000 A 
ATOM      5  C   UNL     1      48.846   4.690  18.152  0.00  0.00    +0.000 A 
ATOM      6  C   UNL     1      50.169   4.946  18.525  0.00  0.00    +0.000 A 
ENDROOT
BRANCH   1   7
ATOM      7  C   UNL     1      52.636   4.369  18.510  0.00  0.00    +0.000 C 
BRANCH   7  11
ATOM      8  C   UNL     1      54.927   6.101  15.355  0.00  0.00    +0.000 A 
ATOM      9  C   UNL     1      55.464   5.020  16.047  0.00  0.00    +0.000 A 
ATOM     10  C   UNL     1      54.719   4.430  17.066  0.00  0.00    +0.000 A 
ATOM     11  C   UNL     1      53.457   4.938  17.383  0.00  0.00    +0.000 A 
ATOM     12  C   UNL     1      52.992   6.005  16.621  0.00  0.00    +0.000 A 
ATOM     13  N   UNL     1      53.691   6.595  15.623  0.00  0.00    +0.000 NA
BRANCH   8  14
ATOM     14  C   UNL     1      55.697   6.713  14.198  0.00  0.00    +0.000 C 
BRANCH  14  15
ATOM     15  N   UNL     1      55.027   6.563  12.888  0.00  0.00    +0.000 NA
ATOM     16  H   UNL     1      55.695   6.087  12.275  0.00  0.00    +0.000 HD
BRANCH  15  17
ATOM     17  C   UNL     1      54.765   7.872  12.260  0.00  0.00    +0.000 C 
BRANCH  17  18
ATOM     18  C   UNL     1      53.274   8.128  11.965  0.00  0.00    +0.000 C 
BRANCH  18  19
ATOM     19  N   UNL     1      52.484   8.107  13.203  0.00  0.00    +0.000 NA
ATOM     20  H   UNL     1      52.797   7.325  13.776  0.00  0.00    +0.000 HD
ATOM     21  H   UNL     1      51.511   7.915  12.965  0.00  0.00    +0.000 HD
ENDBRANCH  18  19
ENDBRANCH  17  18
ENDBRANCH  15  17
ENDBRANCH  14  15
ENDBRANCH   8  14
ENDBRANCH   7  11
ENDBRANCH   1   7
BRANCH   4  22
ATOM     22  C   UNL     1      47.102   3.327  16.940  0.00  0.00    +0.000 C 
BRANCH  22  23
ATOM     23  N   UNL     1      46.677   4.308  15.975  0.00  0.00    +0.000 N 
ATOM     24  C   UNL     1      46.882   4.120  14.630  0.00  0.00    +0.000 C 
ATOM     25  O   UNL     1      47.382   3.094  14.182  0.00  0.00    +0.000 OA
ATOM     26  H   UNL     1      46.501   5.244  16.322  0.00  0.00    +0.000 HD
BRANCH  24  27
ATOM     27  C   UNL     1      46.407   5.192  13.746  0.00  0.00    +0.000 A 
ATOM     28  C   UNL     1      47.166   6.345  13.594  0.00  0.00    +0.000 A 
ATOM     29  S   UNL     1      46.493   7.470  12.505  0.00  0.00    +0.000 S 
ATOM     30  C   UNL     1      45.136   6.478  12.237  0.00  0.00    +0.000 A 
ATOM     31  N   UNL     1      44.129   6.878  11.409  0.00  0.00    +0.000 NA
ATOM     32  C   UNL     1      43.157   6.033  11.308  0.00  0.00    +0.000 A 
ATOM     33  N   UNL     1      43.098   4.829  11.952  0.00  0.00    +0.000 N 
ATOM     34  C   UNL     1      44.099   4.378  12.785  0.00  0.00    +0.000 A 
ATOM     35  O   UNL     1      44.027   3.274  13.322  0.00  0.00    +0.000 OA
ATOM     36  C   UNL     1      45.212   5.292  12.944  0.00  0.00    +0.000 A 
ATOM     37  H   UNL     1      42.313   4.207  11.827  0.00  0.00    +0.000 HD
ENDBRANCH  24  27
ENDBRANCH  22  23
ENDBRANCH   4  22
TORSDOF 10
ENDMDL
MODEL 7
REMARK VINA RESULT:    -6.347      4.803      5.448
REMARK INTER + INTRA:         -11.184
REMARK INTER:                 -10.050
REMARK INTRA:                  -1.134
REMARK UNBOUND:                -1.312
REMARK  Name = 
REMARK  10 active torsions:
REMARK  status: ('A' for Active; 'I' for Inactive)
REMARK    1  A    between atoms: N_1  and  C_2
REMARK    2  A    between atoms: C_2  and  C_3
REMARK    3  A    between atoms: C_3  and  N_4
REMARK    4  A    between atoms: N_4  and  C_5
REMARK    5  A    between atoms: C_5  and  C_6
REMARK    6  A    between atoms: C_9  and  C_10
REMARK    7  A    between atoms: C_10  and  C_11
REMARK    8  A    between atoms: C_14  and  C_15
REMARK    9  A    between atoms: C_15  and  N_16
REMARK   10  A    between atoms: C_17  and  C_19
REMARK                            x       y       z     vdW  Elec       q    Type
REMARK                         _______ _______ _______ _____ _____    ______ ____
ROOT
ATOM      1  C   UNL     1      45.493   7.421  12.511  0.00  0.00    +0.000 A 
ATOM      2  C   UNL     1      46.860   7.324  12.802  0.00  0.00    +0.000 A 
ATOM      3  C   UNL     1      47.712   8.418  12.615  0.00  0.00    +0.000 A 
ATOM      4  C   UNL     1      47.212   9.636  12.136  0.00  0.00    +0.000 A 
ATOM      5  C   UNL     1      45.855   9.717  11.798  0.00  0.00    +0.000 A 
ATOM      6  C   UNL     1      45.002   8.627  11.992  0.00  0.00    +0.000 A 
ENDROOT
BRANCH   1   7
ATOM      7  C   UNL     1      44.569   6.253  12.767  0.00  0.00    +0.000 C 
BRANCH   7  11
ATOM      8  C   UNL     1      44.615   3.150   9.839  0.00  0.00    +0.000 A 
ATOM      9  C   UNL     1      45.224   4.362   9.529  0.00  0.00    +0.000 A 
ATOM     10  C   UNL     1      45.236   5.377  10.483  0.00  0.00    +0.000 A 
ATOM     11  C   UNL     1      44.629   5.169  11.723  0.00  0.00    +0.000 A 
ATOM     12  C   UNL     1      44.066   3.918  11.952  0.00  0.00    +0.000 A 
ATOM     13  N   UNL     1      44.044   2.911  11.047  0.00  0.00    +0.000 NA
BRANCH   8  14
ATOM     14  C   UNL     1      44.651   2.010   8.837  0.00  0.00    +0.000 C 
BRANCH  14  15
ATOM     15  N   UNL     1      46.013   1.512   8.545  0.00  0.00    +0.000 NA
ATOM     16  H   UNL     1      46.627   1.917   9.258  0.00  0.00    +0.000 HD
BRANCH  15  17
ATOM     17  C   UNL     1      46.509   2.017   7.250  0.00  0.00    +0.000 C 
BRANCH  17  18
ATOM     18  C   UNL     1      47.991   1.688   6.986  0.00  0.00    +0.000 C 
BRANCH  18  19
ATOM     19  N   UNL     1      48.337   1.923   5.578  0.00  0.00    +0.000 NA
ATOM     20  H   UNL     1      49.161   2.521   5.541  0.00  0.00    +0.000 HD
ATOM     21  H   UNL     1      47.582   2.451   5.141  0.00  0.00    +0.000 HD
ENDBRANCH  18  19
ENDBRANCH  17  18
ENDBRANCH  15  17
ENDBRANCH  14  15
ENDBRANCH   8  14
ENDBRANCH   7  11
ENDBRANCH   1   7
BRANCH   4  22
ATOM     22  C   UNL     1      48.111  10.835  11.970  0.00  0.00    +0.000 C 
BRANCH  22  23
ATOM     23  N   UNL     1      49.325  10.489  11.277  0.00  0.00    +0.000 N 
ATOM     24  C   UNL     1      50.556  10.697  11.852  0.00  0.00    +0.000 C 
ATOM     25  O   UNL     1      50.681  11.133  12.991  0.00  0.00    +0.000 OA
ATOM     26  H   UNL     1      49.262  10.371  10.273  0.00  0.00    +0.000 HD
BRANCH  24  27
ATOM     27  C   UNL     1      51.721  10.307  11.046  0.00  0.00    +0.000 A 
ATOM     28  C   UNL     1      52.590  11.282  10.577  0.00  0.00    +0.000 A 
ATOM     29  S   UNL     1      53.908  10.657   9.694  0.00  0.00    +0.000 S 
ATOM     30  C   UNL     1      53.334   9.064   9.864  0.00  0.00    +0.000 A 
ATOM     31  N   UNL     1      53.999   8.017   9.298  0.00  0.00    +0.000 NA
ATOM     32  C   UNL     1      53.445   6.866   9.495  0.00  0.00    +0.000 A 
ATOM     33  N   UNL     1      52.295   6.665  10.207  0.00  0.00    +0.000 N 
ATOM     34  C   UNL     1      51.600   7.691  10.809  0.00  0.00    +0.000 A 
ATOM     35  O   UNL     1      50.588   7.468  11.470  0.00  0.00    +0.000 OA
ATOM     36  C   UNL     1      52.171   9.007  10.611  0.00  0.00    +0.000 A 
ATOM     37  H   UNL     1      51.915   5.738  10.334  0.00  0.00    +0.000 HD
ENDBRANCH  24  27
ENDBRANCH  22  23
ENDBRANCH   4  22
TORSDOF 10
ENDMDL
MODEL 8
REMARK VINA RESULT:    -6.332      5.319      8.216
REMARK INTER + INTRA:         -11.161
REMARK INTER:                 -10.054
REMARK INTRA:                  -1.107
REMARK UNBOUND:                -1.312
REMARK  Name = 
REMARK  10 active torsions:
REMARK  status: ('A' for Active; 'I' for Inactive)
REMARK    1  A    between atoms: N_1  and  C_2
REMARK    2  A    between atoms: C_2  and  C_3
REMARK    3  A    between atoms: C_3  and  N_4
REMARK    4  A    between atoms: N_4  and  C_5
REMARK    5  A    between atoms: C_5  and  C_6
REMARK    6  A    between atoms: C_9  and  C_10
REMARK    7  A    between atoms: C_10  and  C_11
REMARK    8  A    between atoms: C_14  and  C_15
REMARK    9  A    between atoms: C_15  and  N_16
REMARK   10  A    between atoms: C_17  and  C_19
REMARK                            x       y       z     vdW  Elec       q    Type
REMARK                         _______ _______ _______ _____ _____    ______ ____
ROOT
ATOM      1  C   UNL     1      50.553   8.996  11.344  0.00  0.00    +0.000 A 
ATOM      2  C   UNL     1      50.069   7.698  11.558  0.00  0.00    +0.000 A 
ATOM      3  C   UNL     1      48.718   7.476  11.846  0.00  0.00    +0.000 A 
ATOM      4  C   UNL     1      47.820   8.549  11.920  0.00  0.00    +0.000 A 
ATOM      5  C   UNL     1      48.314   9.850  11.755  0.00  0.00    +0.000 A 
ATOM      6  C   UNL     1      49.662  10.071  11.460  0.00  0.00    +0.000 A 
ENDROOT
BRANCH   1   7
ATOM      7  C   UNL     1      52.001   9.224  10.979  0.00  0.00    +0.000 C 
BRANCH   7  11
ATOM      8  C   UNL     1      53.832   6.099   8.724  0.00  0.00    +0.000 A 
ATOM      9  C   UNL     1      54.085   6.165  10.090  0.00  0.00    +0.000 A 
ATOM     10  C   UNL     1      53.477   7.167  10.844  0.00  0.00    +0.000 A 
ATOM     11  C   UNL     1      52.639   8.091  10.218  0.00  0.00    +0.000 A 
ATOM     12  C   UNL     1      52.426   7.933   8.852  0.00  0.00    +0.000 A 
ATOM     13  N   UNL     1      52.999   6.967   8.095  0.00  0.00    +0.000 NA
BRANCH   8  14
ATOM     14  C   UNL     1      54.433   4.974   7.899  0.00  0.00    +0.000 C 
BRANCH  14  15
ATOM     15  N   UNL     1      53.615   4.588   6.729  0.00  0.00    +0.000 NA
ATOM     16  H   UNL     1      52.940   3.896   7.064  0.00  0.00    +0.000 HD
BRANCH  15  17
ATOM     17  C   UNL     1      54.425   3.901   5.704  0.00  0.00    +0.000 C 
BRANCH  17  18
ATOM     18  C   UNL     1      54.728   2.428   6.042  0.00  0.00    +0.000 C 
BRANCH  18  19
ATOM     19  N   UNL     1      53.533   1.754   6.568  0.00  0.00    +0.000 NA
ATOM     20  H   UNL     1      52.707   2.204   6.176  0.00  0.00    +0.000 HD
ATOM     21  H   UNL     1      53.490   1.906   7.575  0.00  0.00    +0.000 HD
ENDBRANCH  18  19
ENDBRANCH  17  18
ENDBRANCH  15  17
ENDBRANCH  14  15
ENDBRANCH   8  14
ENDBRANCH   7  11
ENDBRANCH   1   7
BRANCH   4  22
ATOM     22  C   UNL     1      46.354   8.321  12.189  0.00  0.00    +0.000 C 
BRANCH  22  23
ATOM     23  N   UNL     1      45.975   6.959  11.912  0.00  0.00    +0.000 N 
ATOM     24  C   UNL     1      44.696   6.640  11.527  0.00  0.00    +0.000 C 
ATOM     25  O   UNL     1      43.834   7.494  11.349  0.00  0.00    +0.000 OA
ATOM     26  H   UNL     1      46.574   6.232  12.286  0.00  0.00    +0.000 HD
BRANCH  24  27
ATOM     27  C   UNL     1      44.430   5.217  11.277  0.00  0.00    +0.000 A 
ATOM     28  C   UNL     1      43.660   4.492  12.176  0.00  0.00    +0.000 A 
ATOM     29  S   UNL     1      43.417   2.869  11.717  0.00  0.00    +0.000 S 
ATOM     30  C   UNL     1      44.376   3.064  10.325  0.00  0.00    +0.000 A 
ATOM     31  N   UNL     1      44.608   2.017   9.483  0.00  0.00    +0.000 NA
ATOM     32  C   UNL     1      45.363   2.303   8.474  0.00  0.00    +0.000 A 
ATOM     33  N   UNL     1      45.901   3.535   8.226  0.00  0.00    +0.000 N 
ATOM     34  C   UNL     1      45.681   4.624   9.041  0.00  0.00    +0.000 A 
ATOM     35  O   UNL     1      46.154   5.725   8.769  0.00  0.00    +0.000 OA
ATOM     36  C   UNL     1      44.848   4.357  10.196  0.00  0.00    +0.000 A 
ATOM     37  H   UNL     1      46.479   3.699   7.414  0.00  0.00    +0.000 HD
ENDBRANCH  24  27
ENDBRANCH  22  23
ENDBRANCH   4  22
TORSDOF 10
ENDMDL
MODEL 9
REMARK VINA RESULT:    -5.869      4.380      9.197
REMARK INTER + INTRA:         -10.440
REMARK INTER:                  -8.043
REMARK INTRA:                  -2.397
REMARK UNBOUND:                -1.312
REMARK  Name = 
REMARK  10 active torsions:
REMARK  status: ('A' for Active; 'I' for Inactive)
REMARK    1  A    between atoms: N_1  and  C_2
REMARK    2  A    between atoms: C_2  and  C_3
REMARK    3  A    between atoms: C_3  and  N_4
REMARK    4  A    between atoms: N_4  and  C_5
REMARK    5  A    between atoms: C_5  and  C_6
REMARK    6  A    between atoms: C_9  and  C_10
REMARK    7  A    between atoms: C_10  and  C_11
REMARK    8  A    between atoms: C_14  and  C_15
REMARK    9  A    between atoms: C_15  and  N_16
REMARK   10  A    between atoms: C_17  and  C_19
REMARK                            x       y       z     vdW  Elec       q    Type
REMARK                         _______ _______ _______ _____ _____    ______ ____
ROOT
ATOM      1  C   UNL     1      51.473   3.858  18.387  0.00  0.00    +0.000 A 
ATOM      2  C   UNL     1      51.114   2.798  17.544  0.00  0.00    +0.000 A 
ATOM      3  C   UNL     1      49.782   2.607  17.161  0.00  0.00    +0.000 A 
ATOM      4  C   UNL     1      48.780   3.477  17.610  0.00  0.00    +0.000 A 
ATOM      5  C   UNL     1      49.132   4.507  18.493  0.00  0.00    +0.000 A 
ATOM      6  C   UNL     1      50.464   4.702  18.870  0.00  0.00    +0.000 A 
ENDROOT
BRANCH   1   7
ATOM      7  C   UNL     1      52.920   4.092  18.753  0.00  0.00    +0.000 C 
BRANCH   7  11
ATOM      8  C   UNL     1      54.930   7.045  16.421  0.00  0.00    +0.000 A 
ATOM      9  C   UNL     1      55.236   5.707  16.200  0.00  0.00    +0.000 A 
ATOM     10  C   UNL     1      54.573   4.730  16.938  0.00  0.00    +0.000 A 
ATOM     11  C   UNL     1      53.625   5.107  17.892  0.00  0.00    +0.000 A 
ATOM     12  C   UNL     1      53.367   6.467  18.027  0.00  0.00    +0.000 A 
ATOM     13  N   UNL     1      53.992   7.439  17.320  0.00  0.00    +0.000 NA
BRANCH   8  14
ATOM     14  C   UNL     1      55.594   8.120  15.578  0.00  0.00    +0.000 C 
BRANCH  14  15
ATOM     15  N   UNL     1      54.640   8.991  14.858  0.00  0.00    +0.000 NA
ATOM     16  H   UNL     1      53.871   9.175  15.508  0.00  0.00    +0.000 HD
BRANCH  15  17
ATOM     17  C   UNL     1      54.037   8.298  13.704  0.00  0.00    +0.000 C 
BRANCH  17  18
ATOM     18  C   UNL     1      52.501   8.418  13.644  0.00  0.00    +0.000 C 
BRANCH  18  19
ATOM     19  N   UNL     1      51.904   8.161  14.961  0.00  0.00    +0.000 NA
ATOM     20  H   UNL     1      52.521   7.542  15.484  0.00  0.00    +0.000 HD
ATOM     21  H   UNL     1      51.032   7.649  14.829  0.00  0.00    +0.000 HD
ENDBRANCH  18  19
ENDBRANCH  17  18
ENDBRANCH  15  17
ENDBRANCH  14  15
ENDBRANCH   8  14
ENDBRANCH   7  11
ENDBRANCH   1   7
BRANCH   4  22
ATOM     22  C   UNL     1      47.347   3.307  17.172  0.00  0.00    +0.000 C 
BRANCH  22  23
ATOM     23  N   UNL     1      46.971   4.308  16.206  0.00  0.00    +0.000 N 
ATOM     24  C   UNL     1      47.062   4.066  14.857  0.00  0.00    +0.000 C 
ATOM     25  O   UNL     1      47.414   2.979  14.411  0.00  0.00    +0.000 OA
ATOM     26  H   UNL     1      46.923   5.265  16.535  0.00  0.00    +0.000 HD
BRANCH  24  27
ATOM     27  C   UNL     1      46.652   5.164  13.973  0.00  0.00    +0.000 A 
ATOM     28  C   UNL     1      45.444   5.086  13.293  0.00  0.00    +0.000 A 
ATOM     29  S   UNL     1      45.103   6.458  12.342  0.00  0.00    +0.000 S 
ATOM     30  C   UNL     1      46.584   7.184  12.765  0.00  0.00    +0.000 A 
ATOM     31  N   UNL     1      46.940   8.397  12.253  0.00  0.00    +0.000 NA
ATOM     32  C   UNL     1      48.093   8.822  12.649  0.00  0.00    +0.000 A 
ATOM     33  N   UNL     1      48.919   8.154  13.510  0.00  0.00    +0.000 N 
ATOM     34  C   UNL     1      48.593   6.936  14.064  0.00  0.00    +0.000 A 
ATOM     35  O   UNL     1      49.346   6.380  14.860  0.00  0.00    +0.000 OA
ATOM     36  C   UNL     1      47.312   6.404  13.645  0.00  0.00    +0.000 A 
ATOM     37  H   UNL     1      49.808   8.544  13.789  0.00  0.00    +0.000 HD
ENDBRANCH  24  27
ENDBRANCH  22  23
ENDBRANCH   4  22
TORSDOF 10
ENDMDL
