MODEL 1
REMARK VINA RESULT:    -8.073      0.000      0.000
REMARK INTER + INTRA:         -12.320
REMARK INTER:                 -11.376
REMARK INTRA:                  -0.944
REMARK UNBOUND:                -0.944
REMARK  Name = 
REMARK  8 active torsions:
REMARK  status: ('A' for Active; 'I' for Inactive)
REMARK    1  A    between atoms: C_1  and  C_2
REMARK    2  A    between atoms: C_4  and  C_5
REMARK    3  A    between atoms: C_5  and  N_6
REMARK    4  A    between atoms: N_6  and  C_7
REMARK    5  A    between atoms: C_7  and  C_8
REMARK    6  A    between atoms: C_16  and  C_17
REMARK    7  A    between atoms: C_17  and  N_18
REMARK    8  A    between atoms: C_19  and  C_21
REMARK                            x       y       z     vdW  Elec       q    Type
REMARK                         _______ _______ _______ _____ _____    ______ ____
ROOT
ATOM      1  C   UNL     1      45.102   9.355  12.160  0.00  0.00    +0.000 C 
ATOM      2  C   UNL     1      45.353   7.873  12.097  0.00  0.00    +0.000 A 
ATOM      3  C   UNL     1      44.407   7.072  11.429  0.00  0.00    +0.000 A 
ATOM      4  C   UNL     1      44.570   5.684  11.297  0.00  0.00    +0.000 A 
ATOM      5  C   UNL     1      45.683   5.086  11.891  0.00  0.00    +0.000 A 
ATOM      6  C   UNL     1      46.616   5.864  12.582  0.00  0.00    +0.000 A 
ATOM      7  C   UNL     1      46.479   7.262  12.684  0.00  0.00    +0.000 A 
ENDROOT
BRANCH   4   8
ATOM      8  C   UNL     1      43.560   4.876  10.514  0.00  0.00    +0.000 C 
BRANCH   8   9
ATOM      9  N   UNL     1      44.175   4.354   9.295  0.00  0.00    +0.000 NA
ATOM     10  H   UNL     1      45.051   4.855   9.136  0.00  0.00    +0.000 HD
BRANCH   9  11
ATOM     11  C   UNL     1      44.466   2.922   9.390  0.00  0.00    +0.000 C 
BRANCH  11  12
ATOM     12  C   UNL     1      45.565   2.511   8.434  0.00  0.00    +0.000 A 
ATOM     13  C   UNL     1      46.191   3.460   7.627  0.00  0.00    +0.000 A 
ATOM     14  N   UNL     1      47.189   3.151   6.762  0.00  0.00    +0.000 NA
ATOM     15  C   UNL     1      47.546   1.850   6.739  0.00  0.00    +0.000 A 
ATOM     16  C   UNL     1      46.933   0.899   7.540  0.00  0.00    +0.000 A 
ATOM     17  N   UNL     1      45.934   1.205   8.401  0.00  0.00    +0.000 NA
ENDBRANCH  11  12
ENDBRANCH   9  11
ENDBRANCH   8   9
ENDBRANCH   4   8
BRANCH   7  18
ATOM     18  C   UNL     1      47.528   8.026  13.462  0.00  0.00    +0.000 C 
BRANCH  18  19
ATOM     19  N   UNL     1      47.860   7.343  14.688  0.00  0.00    +0.000 N 
ATOM     20  C   UNL     1      49.157   7.048  15.025  0.00  0.00    +0.000 C 
ATOM     21  O   UNL     1      50.106   7.362  14.312  0.00  0.00    +0.000 OA
ATOM     22  H   UNL     1      47.107   6.833  15.136  0.00  0.00    +0.000 HD
BRANCH  20  23
ATOM     23  C   UNL     1      49.356   6.408  16.333  0.00  0.00    +0.000 A 
ATOM     24  C   UNL     1      50.165   7.012  17.287  0.00  0.00    +0.000 A 
ATOM     25  S   UNL     1      50.167   6.206  18.791  0.00  0.00    +0.000 S 
ATOM     26  C   UNL     1      49.131   4.991  18.204  0.00  0.00    +0.000 A 
ATOM     27  N   UNL     1      48.709   3.977  19.006  0.00  0.00    +0.000 NA
ATOM     28  C   UNL     1      47.945   3.116  18.422  0.00  0.00    +0.000 A 
ATOM     29  N   UNL     1      47.578   3.166  17.103  0.00  0.00    +0.000 N 
ATOM     30  C   UNL     1      47.990   4.163  16.252  0.00  0.00    +0.000 A 
ATOM     31  O   UNL     1      47.674   4.163  15.067  0.00  0.00    +0.000 OA
ATOM     32  C   UNL     1      48.811   5.184  16.871  0.00  0.00    +0.000 A 
ATOM     33  H   UNL     1      46.997   2.447  16.698  0.00  0.00    +0.000 HD
ENDBRANCH  20  23
ENDBRANCH  18  19
ENDBRANCH   7  18
TORSDOF 7
ENDMDL
MODEL 2
REMARK VINA RESULT:    -7.912      1.556      2.361
REMARK INTER + INTRA:         -12.094
REMARK INTER:                 -11.416
REMARK INTRA:                  -0.678
REMARK UNBOUND:                -0.944
REMARK  Name = 
REMARK  8 active torsions:
REMARK  status: ('A' for Active; 'I' for Inactive)
REMARK    1  A    between atoms: C_1  and  C_2
REMARK    2  A    between atoms: C_4  and  C_5
REMARK    3  A    between atoms: C_5  and  N_6
REMARK    4  A    between atoms: N_6  and  C_7
REMARK    5  A    between atoms: C_7  and  C_8
REMARK    6  A    between atoms: C_16  and  C_17
REMARK    7  A    between atoms: C_17  and  N_18
REMARK    8  A    between atoms: C_19  and  C_21
REMARK                            x       y       z     vdW  Elec       q    Type
REMARK                         _______ _______ _______ _____ _____    ______ ____
ROOT
ATOM      1  C   UNL     1      47.140   3.858  14.249  0.00  0.00    +0.000 C 
ATOM      2  C   UNL     1      46.481   4.781  13.262  0.00  0.00    +0.000 A 
ATOM      3  C   UNL     1      45.349   4.309  12.571  0.00  0.00    +0.000 A 
ATOM      4  C   UNL     1      44.653   5.108  11.651  0.00  0.00    +0.000 A 
ATOM      5  C   UNL     1      45.135   6.391  11.387  0.00  0.00    +0.000 A 
ATOM      6  C   UNL     1      46.275   6.865  12.044  0.00  0.00    +0.000 A 
ATOM      7  C   UNL     1      46.954   6.082  12.997  0.00  0.00    +0.000 A 
ENDROOT
BRANCH   4   8
ATOM      8  C   UNL     1      43.404   4.579  10.984  0.00  0.00    +0.000 C 
BRANCH   8   9
ATOM      9  N   UNL     1      43.758   3.568   9.988  0.00  0.00    +0.000 NA
ATOM     10  H   UNL     1      42.903   3.092   9.696  0.00  0.00    +0.000 HD
BRANCH   9  11
ATOM     11  C   UNL     1      44.397   4.151   8.808  0.00  0.00    +0.000 C 
BRANCH  11  12
ATOM     12  C   UNL     1      45.443   3.227   8.224  0.00  0.00    +0.000 A 
ATOM     13  C   UNL     1      45.531   1.902   8.649  0.00  0.00    +0.000 A 
ATOM     14  N   UNL     1      46.439   1.025   8.153  0.00  0.00    +0.000 NA
ATOM     15  C   UNL     1      47.258   1.524   7.203  0.00  0.00    +0.000 A 
ATOM     16  C   UNL     1      47.177   2.838   6.770  0.00  0.00    +0.000 A 
ATOM     17  N   UNL     1      46.273   3.715   7.268  0.00  0.00    +0.000 NA
ENDBRANCH  11  12
ENDBRANCH   9  11
ENDBRANCH   8   9
ENDBRANCH   4   8
BRANCH   7  18
ATOM     18  C   UNL     1      48.187   6.667  13.651  0.00  0.00    +0.000 C 
BRANCH  18  19
ATOM     19  N   UNL     1      47.999   6.804  15.075  0.00  0.00    +0.000 N 
ATOM     20  C   UNL     1      49.029   6.624  15.962  0.00  0.00    +0.000 C 
ATOM     21  O   UNL     1      50.169   6.354  15.596  0.00  0.00    +0.000 OA
ATOM     22  H   UNL     1      47.044   6.740  15.410  0.00  0.00    +0.000 HD
BRANCH  20  23
ATOM     23  C   UNL     1      48.712   6.857  17.379  0.00  0.00    +0.000 A 
ATOM     24  C   UNL     1      48.367   8.131  17.813  0.00  0.00    +0.000 A 
ATOM     25  S   UNL     1      47.893   8.190  19.451  0.00  0.00    +0.000 S 
ATOM     26  C   UNL     1      48.185   6.526  19.652  0.00  0.00    +0.000 A 
ATOM     27  N   UNL     1      47.955   5.910  20.843  0.00  0.00    +0.000 NA
ATOM     28  C   UNL     1      48.241   4.651  20.856  0.00  0.00    +0.000 A 
ATOM     29  N   UNL     1      48.753   3.954  19.793  0.00  0.00    +0.000 N 
ATOM     30  C   UNL     1      49.014   4.538  18.577  0.00  0.00    +0.000 A 
ATOM     31  O   UNL     1      49.505   3.897  17.654  0.00  0.00    +0.000 OA
ATOM     32  C   UNL     1      48.663   5.941  18.493  0.00  0.00    +0.000 A 
ATOM     33  H   UNL     1      48.981   2.975  19.875  0.00  0.00    +0.000 HD
ENDBRANCH  20  23
ENDBRANCH  18  19
ENDBRANCH   7  18
TORSDOF 7
ENDMDL
MODEL 3
REMARK VINA RESULT:    -7.628      2.067      2.564
REMARK INTER + INTRA:         -11.694
REMARK INTER:                 -10.762
REMARK INTRA:                  -0.932
REMARK UNBOUND:                -0.944
REMARK  Name = 
REMARK  8 active torsions:
REMARK  status: ('A' for Active; 'I' for Inactive)
REMARK    1  A    between atoms: C_1  and  C_2
REMARK    2  A    between atoms: C_4  and  C_5
REMARK    3  A    between atoms: C_5  and  N_6
REMARK    4  A    between atoms: N_6  and  C_7
REMARK    5  A    between atoms: C_7  and  C_8
REMARK    6  A    between atoms: C_16  and  C_17
REMARK    7  A    between atoms: C_17  and  N_18
REMARK    8  A    between atoms: C_19  and  C_21
REMARK                            x       y       z     vdW  Elec       q    Type
REMARK                         _______ _______ _______ _____ _____    ______ ____
ROOT
ATOM      1  C   UNL     1      46.705   8.505  12.170  0.00  0.00    +0.000 C 
ATOM      2  C   UNL     1      46.269   7.081  12.376  0.00  0.00    +0.000 A 
ATOM      3  C   UNL     1      45.104   6.646  11.717  0.00  0.00    +0.000 A 
ATOM      4  C   UNL     1      44.636   5.327  11.829  0.00  0.00    +0.000 A 
ATOM      5  C   UNL     1      45.328   4.444  12.658  0.00  0.00    +0.000 A 
ATOM      6  C   UNL     1      46.471   4.869  13.343  0.00  0.00    +0.000 A 
ATOM      7  C   UNL     1      46.968   6.179  13.204  0.00  0.00    +0.000 A 
ENDROOT
BRANCH   4   8
ATOM      8  C   UNL     1      43.417   4.890  11.049  0.00  0.00    +0.000 C 
BRANCH   8   9
ATOM      9  N   UNL     1      43.805   4.484   9.699  0.00  0.00    +0.000 NA
ATOM     10  H   UNL     1      44.583   5.073   9.398  0.00  0.00    +0.000 HD
BRANCH   9  11
ATOM     11  C   UNL     1      44.228   3.084   9.641  0.00  0.00    +0.000 C 
BRANCH  11  12
ATOM     12  C   UNL     1      45.333   2.876   8.628  0.00  0.00    +0.000 A 
ATOM     13  C   UNL     1      45.810   3.946   7.873  0.00  0.00    +0.000 A 
ATOM     14  N   UNL     1      46.806   3.821   6.961  0.00  0.00    +0.000 NA
ATOM     15  C   UNL     1      47.317   2.578   6.836  0.00  0.00    +0.000 A 
ATOM     16  C   UNL     1      46.854   1.508   7.585  0.00  0.00    +0.000 A 
ATOM     17  N   UNL     1      45.857   1.630   8.493  0.00  0.00    +0.000 NA
ENDBRANCH  11  12
ENDBRANCH   9  11
ENDBRANCH   8   9
ENDBRANCH   4   8
BRANCH   7  18
ATOM     18  C   UNL     1      48.204   6.559  13.990  0.00  0.00    +0.000 C 
BRANCH  18  19
ATOM     19  N   UNL     1      48.001   6.345  15.402  0.00  0.00    +0.000 N 
ATOM     20  C   UNL     1      49.053   6.238  16.277  0.00  0.00    +0.000 C 
ATOM     21  O   UNL     1      50.221   6.335  15.911  0.00  0.00    +0.000 OA
ATOM     22  H   UNL     1      47.094   5.984  15.677  0.00  0.00    +0.000 HD
BRANCH  20  23
ATOM     23  C   UNL     1      48.701   6.087  17.696  0.00  0.00    +0.000 A 
ATOM     24  C   UNL     1      48.848   4.854  18.321  0.00  0.00    +0.000 A 
ATOM     25  S   UNL     1      48.530   4.896  19.997  0.00  0.00    +0.000 S 
ATOM     26  C   UNL     1      48.131   6.549  19.936  0.00  0.00    +0.000 A 
ATOM     27  N   UNL     1      47.780   7.230  21.060  0.00  0.00    +0.000 NA
ATOM     28  C   UNL     1      47.484   8.471  20.862  0.00  0.00    +0.000 A 
ATOM     29  N   UNL     1      47.489   9.089  19.639  0.00  0.00    +0.000 N 
ATOM     30  C   UNL     1      47.824   8.438  18.476  0.00  0.00    +0.000 A 
ATOM     31  O   UNL     1      47.786   9.009  17.391  0.00  0.00    +0.000 OA
ATOM     32  C   UNL     1      48.214   7.054  18.650  0.00  0.00    +0.000 A 
ATOM     33  H   UNL     1      47.221  10.058  19.546  0.00  0.00    +0.000 HD
ENDBRANCH  20  23
ENDBRANCH  18  19
ENDBRANCH   7  18
TORSDOF 7
ENDMDL
MODEL 4
REMARK VINA RESULT:    -7.158      2.710      3.663
REMARK INTER + INTRA:         -11.031
REMARK INTER:                 -10.308
REMARK INTRA:                  -0.723
REMARK UNBOUND:                -0.944
REMARK  Name = 
REMARK  8 active torsions:
REMARK  status: ('A' for Active; 'I' for Inactive)
REMARK    1  A    between atoms: C_1  and  C_2
REMARK    2  A    between atoms: C_4  and  C_5
REMARK    3  A    between atoms: C_5  and  N_6
REMARK    4  A    between atoms: N_6  and  C_7
REMARK    5  A    between atoms: C_7  and  C_8
REMARK    6  A    between atoms: C_16  and  C_17
REMARK    7  A    between atoms: C_17  and  N_18
REMARK    8  A    between atoms: C_19  and  C_21
REMARK                            x       y       z     vdW  Elec       q    Type
REMARK                         _______ _______ _______ _____ _____    ______ ____
ROOT
ATOM      1  C   UNL     1      47.077   4.113  16.937  0.00  0.00    +0.000 C 
ATOM      2  C   UNL     1      47.162   4.694  15.552  0.00  0.00    +0.000 A 
ATOM      3  C   UNL     1      46.439   4.058  14.525  0.00  0.00    +0.000 A 
ATOM      4  C   UNL     1      46.438   4.543  13.208  0.00  0.00    +0.000 A 
ATOM      5  C   UNL     1      47.217   5.663  12.911  0.00  0.00    +0.000 A 
ATOM      6  C   UNL     1      47.964   6.288  13.914  0.00  0.00    +0.000 A 
ATOM      7  C   UNL     1      47.939   5.830  15.245  0.00  0.00    +0.000 A 
ENDROOT
BRANCH   4   8
ATOM      8  C   UNL     1      45.593   3.865  12.154  0.00  0.00    +0.000 C 
BRANCH   8   9
ATOM      9  N   UNL     1      44.921   4.867  11.328  0.00  0.00    +0.000 NA
ATOM     10  H   UNL     1      45.632   5.487  10.935  0.00  0.00    +0.000 HD
BRANCH   9  11
ATOM     11  C   UNL     1      44.165   4.265  10.230  0.00  0.00    +0.000 C 
BRANCH  11  12
ATOM     12  C   UNL     1      45.079   3.625   9.208  0.00  0.00    +0.000 A 
ATOM     13  C   UNL     1      45.230   2.239   9.164  0.00  0.00    +0.000 A 
ATOM     14  N   UNL     1      46.025   1.611   8.263  0.00  0.00    +0.000 NA
ATOM     15  C   UNL     1      46.663   2.424   7.395  0.00  0.00    +0.000 A 
ATOM     16  C   UNL     1      46.517   3.802   7.426  0.00  0.00    +0.000 A 
ATOM     17  N   UNL     1      45.728   4.431   8.328  0.00  0.00    +0.000 NA
ENDBRANCH  11  12
ENDBRANCH   9  11
ENDBRANCH   8   9
ENDBRANCH   4   8
BRANCH   7  18
ATOM     18  C   UNL     1      48.786   6.557  16.265  0.00  0.00    +0.000 C 
BRANCH  18  19
ATOM     19  N   UNL     1      49.948   5.780  16.618  0.00  0.00    +0.000 N 
ATOM     20  C   UNL     1      50.234   5.455  17.920  0.00  0.00    +0.000 C 
ATOM     21  O   UNL     1      49.511   5.792  18.853  0.00  0.00    +0.000 OA
ATOM     22  H   UNL     1      50.689   5.738  15.927  0.00  0.00    +0.000 HD
BRANCH  20  23
ATOM     23  C   UNL     1      51.414   4.603  18.131  0.00  0.00    +0.000 A 
ATOM     24  C   UNL     1      52.559   5.132  18.713  0.00  0.00    +0.000 A 
ATOM     25  S   UNL     1      53.773   3.971  19.010  0.00  0.00    +0.000 S 
ATOM     26  C   UNL     1      52.834   2.731  18.321  0.00  0.00    +0.000 A 
ATOM     27  N   UNL     1      53.286   1.449  18.274  0.00  0.00    +0.000 NA
ATOM     28  C   UNL     1      52.478   0.619  17.705  0.00  0.00    +0.000 A 
ATOM     29  N   UNL     1      51.266   0.956  17.161  0.00  0.00    +0.000 N 
ATOM     30  C   UNL     1      50.775   2.240  17.174  0.00  0.00    +0.000 A 
ATOM     31  O   UNL     1      49.702   2.518  16.649  0.00  0.00    +0.000 OA
ATOM     32  C   UNL     1      51.623   3.203  17.847  0.00  0.00    +0.000 A 
ATOM     33  H   UNL     1      50.690   0.264  16.705  0.00  0.00    +0.000 HD
ENDBRANCH  20  23
ENDBRANCH  18  19
ENDBRANCH   7  18
TORSDOF 7
ENDMDL
MODEL 5
REMARK VINA RESULT:    -7.101      4.659      9.399
REMARK INTER + INTRA:         -10.950
REMARK INTER:                 -10.234
REMARK INTRA:                  -0.716
REMARK UNBOUND:                -0.944
REMARK  Name = 
REMARK  8 active torsions:
REMARK  status: ('A' for Active; 'I' for Inactive)
REMARK    1  A    between atoms: C_1  and  C_2
REMARK    2  A    between atoms: C_4  and  C_5
REMARK    3  A    between atoms: C_5  and  N_6
REMARK    4  A    between atoms: N_6  and  C_7
REMARK    5  A    between atoms: C_7  and  C_8
REMARK    6  A    between atoms: C_16  and  C_17
REMARK    7  A    between atoms: C_17  and  N_18
REMARK    8  A    between atoms: C_19  and  C_21
REMARK                            x       y       z     vdW  Elec       q    Type
REMARK                         _______ _______ _______ _____ _____    ______ ____
ROOT
ATOM      1  C   UNL     1      48.561   5.369  18.686  0.00  0.00    +0.000 C 
ATOM      2  C   UNL     1      49.257   4.176  18.092  0.00  0.00    +0.000 A 
ATOM      3  C   UNL     1      50.640   4.038  18.319  0.00  0.00    +0.000 A 
ATOM      4  C   UNL     1      51.368   2.944  17.827  0.00  0.00    +0.000 A 
ATOM      5  C   UNL     1      50.700   1.996  17.051  0.00  0.00    +0.000 A 
ATOM      6  C   UNL     1      49.333   2.133  16.792  0.00  0.00    +0.000 A 
ATOM      7  C   UNL     1      48.588   3.208  17.316  0.00  0.00    +0.000 A 
ENDROOT
BRANCH   4   8
ATOM      8  C   UNL     1      52.838   2.807  18.154  0.00  0.00    +0.000 C 
BRANCH   8   9
ATOM      9  N   UNL     1      53.126   1.445  18.600  0.00  0.00    +0.000 NA
ATOM     10  H   UNL     1      52.294   0.873  18.445  0.00  0.00    +0.000 HD
BRANCH   9  11
ATOM     11  C   UNL     1      54.246   0.848  17.872  0.00  0.00    +0.000 C 
BRANCH  11  12
ATOM     12  C   UNL     1      54.314  -0.649  18.081  0.00  0.00    +0.000 A 
ATOM     13  C   UNL     1      54.931  -1.469  17.136  0.00  0.00    +0.000 A 
ATOM     14  N   UNL     1      55.032  -2.814  17.277  0.00  0.00    +0.000 NA
ATOM     15  C   UNL     1      54.496  -3.313  18.411  0.00  0.00    +0.000 A 
ATOM     16  C   UNL     1      53.884  -2.508  19.359  0.00  0.00    +0.000 A 
ATOM     17  N   UNL     1      53.779  -1.166  19.217  0.00  0.00    +0.000 NA
ENDBRANCH  11  12
ENDBRANCH   9  11
ENDBRANCH   8   9
ENDBRANCH   4   8
BRANCH   7  18
ATOM     18  C   UNL     1      47.116   3.287  16.976  0.00  0.00    +0.000 C 
BRANCH  18  19
ATOM     19  N   UNL     1      46.864   4.339  16.022  0.00  0.00    +0.000 N 
ATOM     20  C   UNL     1      46.941   4.124  14.669  0.00  0.00    +0.000 C 
ATOM     21  O   UNL     1      47.211   3.024  14.196  0.00  0.00    +0.000 OA
ATOM     22  H   UNL     1      46.924   5.289  16.374  0.00  0.00    +0.000 HD
BRANCH  20  23
ATOM     23  C   UNL     1      46.595   5.267  13.812  0.00  0.00    +0.000 A 
ATOM     24  C   UNL     1      47.500   6.308  13.644  0.00  0.00    +0.000 A 
ATOM     25  S   UNL     1      46.994   7.476  12.508  0.00  0.00    +0.000 S 
ATOM     26  C   UNL     1      45.524   6.661  12.242  0.00  0.00    +0.000 A 
ATOM     27  N   UNL     1      44.614   7.127  11.345  0.00  0.00    +0.000 NA
ATOM     28  C   UNL     1      43.536   6.420  11.263  0.00  0.00    +0.000 A 
ATOM     29  N   UNL     1      43.279   5.299  12.008  0.00  0.00    +0.000 N 
ATOM     30  C   UNL     1      44.163   4.800  12.933  0.00  0.00    +0.000 A 
ATOM     31  O   UNL     1      43.890   3.814  13.610  0.00  0.00    +0.000 OA
ATOM     32  C   UNL     1      45.412   5.529  13.030  0.00  0.00    +0.000 A 
ATOM     33  H   UNL     1      42.404   4.804  11.915  0.00  0.00    +0.000 HD
ENDBRANCH  20  23
ENDBRANCH  18  19
ENDBRANCH   7  18
TORSDOF 7
ENDMDL
MODEL 6
REMARK VINA RESULT:    -7.067      2.956      8.159
REMARK INTER + INTRA:         -10.903
REMARK INTER:                  -9.441
REMARK INTRA:                  -1.462
REMARK UNBOUND:                -0.944
REMARK  Name = 
REMARK  8 active torsions:
REMARK  status: ('A' for Active; 'I' for Inactive)
REMARK    1  A    between atoms: C_1  and  C_2
REMARK    2  A    between atoms: C_4  and  C_5
REMARK    3  A    between atoms: C_5  and  N_6
REMARK    4  A    between atoms: N_6  and  C_7
REMARK    5  A    between atoms: C_7  and  C_8
REMARK    6  A    between atoms: C_16  and  C_17
REMARK    7  A    between atoms: C_17  and  N_18
REMARK    8  A    between atoms: C_19  and  C_21
REMARK                            x       y       z     vdW  Elec       q    Type
REMARK                         _______ _______ _______ _____ _____    ______ ____
ROOT
ATOM      1  C   UNL     1      50.509   7.766  11.577  0.00  0.00    +0.000 C 
ATOM      2  C   UNL     1      49.772   7.901  12.880  0.00  0.00    +0.000 A 
ATOM      3  C   UNL     1      50.527   7.893  14.068  0.00  0.00    +0.000 A 
ATOM      4  C   UNL     1      49.929   8.039  15.330  0.00  0.00    +0.000 A 
ATOM      5  C   UNL     1      48.539   8.148  15.398  0.00  0.00    +0.000 A 
ATOM      6  C   UNL     1      47.772   8.129  14.229  0.00  0.00    +0.000 A 
ATOM      7  C   UNL     1      48.370   8.022  12.958  0.00  0.00    +0.000 A 
ENDROOT
BRANCH   4   8
ATOM      8  C   UNL     1      50.789   8.091  16.572  0.00  0.00    +0.000 C 
BRANCH   8   9
ATOM      9  N   UNL     1      50.198   7.267  17.625  0.00  0.00    +0.000 NA
ATOM     10  H   UNL     1      49.181   7.320  17.542  0.00  0.00    +0.000 HD
BRANCH   9  11
ATOM     11  C   UNL     1      50.603   5.863  17.523  0.00  0.00    +0.000 C 
BRANCH  11  12
ATOM     12  C   UNL     1      49.405   4.941  17.452  0.00  0.00    +0.000 A 
ATOM     13  C   UNL     1      48.146   5.385  17.854  0.00  0.00    +0.000 A 
ATOM     14  N   UNL     1      47.036   4.607  17.801  0.00  0.00    +0.000 NA
ATOM     15  C   UNL     1      47.232   3.361  17.320  0.00  0.00    +0.000 A 
ATOM     16  C   UNL     1      48.478   2.911  16.913  0.00  0.00    +0.000 A 
ATOM     17  N   UNL     1      49.587   3.685  16.970  0.00  0.00    +0.000 NA
ENDBRANCH  11  12
ENDBRANCH   9  11
ENDBRANCH   8   9
ENDBRANCH   4   8
BRANCH   7  18
ATOM     18  C   UNL     1      47.465   7.995  11.746  0.00  0.00    +0.000 C 
BRANCH  18  19
ATOM     19  N   UNL     1      46.835   6.706  11.601  0.00  0.00    +0.000 N 
ATOM     20  C   UNL     1      45.481   6.541  11.743  0.00  0.00    +0.000 C 
ATOM     21  O   UNL     1      44.729   7.481  11.983  0.00  0.00    +0.000 OA
ATOM     22  H   UNL     1      47.441   5.897  11.688  0.00  0.00    +0.000 HD
BRANCH  20  23
ATOM     23  C   UNL     1      44.966   5.185  11.504  0.00  0.00    +0.000 A 
ATOM     24  C   UNL     1      44.317   4.499  12.523  0.00  0.00    +0.000 A 
ATOM     25  S   UNL     1      43.662   3.003  12.030  0.00  0.00    +0.000 S 
ATOM     26  C   UNL     1      44.269   3.194  10.452  0.00  0.00    +0.000 A 
ATOM     27  N   UNL     1      44.040   2.259   9.492  0.00  0.00    +0.000 NA
ATOM     28  C   UNL     1      44.578   2.525   8.348  0.00  0.00    +0.000 A 
ATOM     29  N   UNL     1      45.339   3.633   8.082  0.00  0.00    +0.000 N 
ATOM     30  C   UNL     1      45.607   4.597   9.024  0.00  0.00    +0.000 A 
ATOM     31  O   UNL     1      46.321   5.560   8.767  0.00  0.00    +0.000 OA
ATOM     32  C   UNL     1      44.984   4.370  10.313  0.00  0.00    +0.000 A 
ATOM     33  H   UNL     1      45.754   3.771   7.173  0.00  0.00    +0.000 HD
ENDBRANCH  20  23
ENDBRANCH  18  19
ENDBRANCH   7  18
TORSDOF 7
ENDMDL
MODEL 7
REMARK VINA RESULT:    -6.827      4.667      9.316
REMARK INTER + INTRA:         -10.565
REMARK INTER:                  -9.578
REMARK INTRA:                  -0.987
REMARK UNBOUND:                -0.944
REMARK  Name = 
REMARK  8 active torsions:
REMARK  status: ('A' for Active; 'I' for Inactive)
REMARK    1  A    between atoms: C_1  and  C_2
REMARK    2  A    between atoms: C_4  and  C_5
REMARK    3  A    between atoms: C_5  and  N_6
REMARK    4  A    between atoms: N_6  and  C_7
REMARK    5  A    between atoms: C_7  and  C_8
REMARK    6  A    between atoms: C_16  and  C_17
REMARK    7  A    between atoms: C_17  and  N_18
REMARK    8  A    between atoms: C_19  and  C_21
REMARK                            x       y       z     vdW  Elec       q    Type
REMARK                         _______ _______ _______ _____ _____    ______ ____
ROOT
ATOM      1  C   UNL     1      48.795   5.724  18.319  0.00  0.00    +0.000 C 
ATOM      2  C   UNL     1      49.350   4.405  17.858  0.00  0.00    +0.000 A 
ATOM      3  C   UNL     1      50.704   4.130  18.125  0.00  0.00    +0.000 A 
ATOM      4  C   UNL     1      51.302   2.915  17.756  0.00  0.00    +0.000 A 
ATOM      5  C   UNL     1      50.533   1.978  17.064  0.00  0.00    +0.000 A 
ATOM      6  C   UNL     1      49.194   2.248  16.765  0.00  0.00    +0.000 A 
ATOM      7  C   UNL     1      48.577   3.449  17.167  0.00  0.00    +0.000 A 
ENDROOT
BRANCH   4   8
ATOM      8  C   UNL     1      52.743   2.639  18.124  0.00  0.00    +0.000 C 
BRANCH   8   9
ATOM      9  N   UNL     1      52.900   1.240  18.518  0.00  0.00    +0.000 NA
ATOM     10  H   UNL     1      52.269   0.673  17.949  0.00  0.00    +0.000 HD
BRANCH   9  11
ATOM     11  C   UNL     1      54.269   0.759  18.322  0.00  0.00    +0.000 C 
BRANCH  11  12
ATOM     12  C   UNL     1      54.328  -0.752  18.280  0.00  0.00    +0.000 A 
ATOM     13  C   UNL     1      54.923  -1.406  17.202  0.00  0.00    +0.000 A 
ATOM     14  N   UNL     1      55.017  -2.756  17.116  0.00  0.00    +0.000 NA
ATOM     15  C   UNL     1      54.495  -3.434  18.161  0.00  0.00    +0.000 A 
ATOM     16  C   UNL     1      53.905  -2.795  19.239  0.00  0.00    +0.000 A 
ATOM     17  N   UNL     1      53.808  -1.447  19.323  0.00  0.00    +0.000 NA
ENDBRANCH  11  12
ENDBRANCH   9  11
ENDBRANCH   8   9
ENDBRANCH   4   8
BRANCH   7  18
ATOM     18  C   UNL     1      47.128   3.666  16.792  0.00  0.00    +0.000 C 
BRANCH  18  19
ATOM     19  N   UNL     1      47.009   4.642  15.738  0.00  0.00    +0.000 N 
ATOM     20  C   UNL     1      47.063   4.290  14.413  0.00  0.00    +0.000 C 
ATOM     21  O   UNL     1      47.198   3.124  14.052  0.00  0.00    +0.000 OA
ATOM     22  H   UNL     1      47.183   5.608  15.998  0.00  0.00    +0.000 HD
BRANCH  20  23
ATOM     23  C   UNL     1      46.863   5.378  13.445  0.00  0.00    +0.000 A 
ATOM     24  C   UNL     1      45.849   5.289  12.500  0.00  0.00    +0.000 A 
ATOM     25  S   UNL     1      45.671   6.698  11.555  0.00  0.00    +0.000 S 
ATOM     26  C   UNL     1      46.979   7.455  12.338  0.00  0.00    +0.000 A 
ATOM     27  N   UNL     1      47.355   8.721  12.015  0.00  0.00    +0.000 NA
ATOM     28  C   UNL     1      48.375   9.160  12.674  0.00  0.00    +0.000 A 
ATOM     29  N   UNL     1      49.065   8.441  13.615  0.00  0.00    +0.000 N 
ATOM     30  C   UNL     1      48.729   7.155  13.963  0.00  0.00    +0.000 A 
ATOM     31  O   UNL     1      49.386   6.523  14.784  0.00  0.00    +0.000 OA
ATOM     32  C   UNL     1      47.558   6.632  13.287  0.00  0.00    +0.000 A 
ATOM     33  H   UNL     1      49.872   8.831  14.078  0.00  0.00    +0.000 HD
ENDBRANCH  20  23
ENDBRANCH  18  19
ENDBRANCH   7  18
TORSDOF 7
ENDMDL
MODEL 8
REMARK VINA RESULT:    -6.720      3.348      7.729
REMARK INTER + INTRA:         -10.413
REMARK INTER:                  -8.644
REMARK INTRA:                  -1.769
REMARK UNBOUND:                -0.944
REMARK  Name = 
REMARK  8 active torsions:
REMARK  status: ('A' for Active; 'I' for Inactive)
REMARK    1  A    between atoms: C_1  and  C_2
REMARK    2  A    between atoms: C_4  and  C_5
REMARK    3  A    between atoms: C_5  and  N_6
REMARK    4  A    between atoms: N_6  and  C_7
REMARK    5  A    between atoms: C_7  and  C_8
REMARK    6  A    between atoms: C_16  and  C_17
REMARK    7  A    between atoms: C_17  and  N_18
REMARK    8  A    between atoms: C_19  and  C_21
REMARK                            x       y       z     vdW  Elec       q    Type
REMARK                         _______ _______ _______ _____ _____    ______ ____
ROOT
ATOM      1  C   UNL     1      47.613   9.648  18.281  0.00  0.00    +0.000 C 
ATOM      2  C   UNL     1      48.720   8.801  17.719  0.00  0.00    +0.000 A 
ATOM      3  C   UNL     1      49.539   8.100  18.624  0.00  0.00    +0.000 A 
ATOM      4  C   UNL     1      50.580   7.264  18.191  0.00  0.00    +0.000 A 
ATOM      5  C   UNL     1      50.831   7.171  16.822  0.00  0.00    +0.000 A 
ATOM      6  C   UNL     1      50.046   7.883  15.910  0.00  0.00    +0.000 A 
ATOM      7  C   UNL     1      48.975   8.692  16.337  0.00  0.00    +0.000 A 
ENDROOT
BRANCH   4   8
ATOM      8  C   UNL     1      51.389   6.481  19.200  0.00  0.00    +0.000 C 
BRANCH   8   9
ATOM      9  N   UNL     1      50.703   5.234  19.532  0.00  0.00    +0.000 NA
ATOM     10  H   UNL     1      49.718   5.332  19.280  0.00  0.00    +0.000 HD
BRANCH   9  11
ATOM     11  C   UNL     1      51.258   4.086  18.812  0.00  0.00    +0.000 C 
BRANCH  11  12
ATOM     12  C   UNL     1      50.223   3.431  17.923  0.00  0.00    +0.000 A 
ATOM     13  C   UNL     1      50.581   2.384  17.075  0.00  0.00    +0.000 A 
ATOM     14  N   UNL     1      49.694   1.752  16.267  0.00  0.00    +0.000 NA
ATOM     15  C   UNL     1      48.424   2.204  16.344  0.00  0.00    +0.000 A 
ATOM     16  C   UNL     1      48.057   3.241  17.186  0.00  0.00    +0.000 A 
ATOM     17  N   UNL     1      48.942   3.876  17.990  0.00  0.00    +0.000 NA
ENDBRANCH  11  12
ENDBRANCH   9  11
ENDBRANCH   8   9
ENDBRANCH   4   8
BRANCH   7  18
ATOM     18  C   UNL     1      48.183   9.438  15.285  0.00  0.00    +0.000 C 
BRANCH  18  19
ATOM     19  N   UNL     1      47.222   8.571  14.651  0.00  0.00    +0.000 N 
ATOM     20  C   UNL     1      47.253   8.315  13.304  0.00  0.00    +0.000 C 
ATOM     21  O   UNL     1      48.109   8.795  12.567  0.00  0.00    +0.000 OA
ATOM     22  H   UNL     1      46.363   8.400  15.164  0.00  0.00    +0.000 HD
BRANCH  20  23
ATOM     23  C   UNL     1      46.253   7.361  12.802  0.00  0.00    +0.000 A 
ATOM     24  C   UNL     1      45.191   7.810  12.027  0.00  0.00    +0.000 A 
ATOM     25  S   UNL     1      44.213   6.554  11.416  0.00  0.00    +0.000 S 
ATOM     26  C   UNL     1      45.140   5.369  12.210  0.00  0.00    +0.000 A 
ATOM     27  N   UNL     1      44.849   4.047  12.085  0.00  0.00    +0.000 NA
ATOM     28  C   UNL     1      45.623   3.264  12.760  0.00  0.00    +0.000 A 
ATOM     29  N   UNL     1      46.651   3.684  13.563  0.00  0.00    +0.000 N 
ATOM     30  C   UNL     1      46.973   5.009  13.729  0.00  0.00    +0.000 A 
ATOM     31  O   UNL     1      47.877   5.357  14.481  0.00  0.00    +0.000 OA
ATOM     32  C   UNL     1      46.165   5.928  12.953  0.00  0.00    +0.000 A 
ATOM     33  H   UNL     1      47.205   3.022  14.086  0.00  0.00    +0.000 HD
ENDBRANCH  20  23
ENDBRANCH  18  19
ENDBRANCH   7  18
TORSDOF 7
ENDMDL
MODEL 9
REMARK VINA RESULT:    -6.523      3.377      5.167
REMARK INTER + INTRA:         -10.136
REMARK INTER:                  -9.069
REMARK INTRA:                  -1.067
REMARK UNBOUND:                -0.944
REMARK  Name = 
REMARK  8 active torsions:
REMARK  status: ('A' for Active; 'I' for Inactive)
REMARK    1  A    between atoms: C_1  and  C_2
REMARK    2  A    between atoms: C_4  and  C_5
REMARK    3  A    between atoms: C_5  and  N_6
REMARK    4  A    between atoms: N_6  and  C_7
REMARK    5  A    between atoms: C_7  and  C_8
REMARK    6  A    between atoms: C_16  and  C_17
REMARK    7  A    between atoms: C_17  and  N_18
REMARK    8  A    between atoms: C_19  and  C_21
REMARK                            x       y       z     vdW  Elec       q    Type
REMARK                         _______ _______ _______ _____ _____    ______ ____
ROOT
ATOM      1  C   UNL     1      47.190   3.633  16.505  0.00  0.00    +0.000 C 
ATOM      2  C   UNL     1      47.656   4.850  15.756  0.00  0.00    +0.000 A 
ATOM      3  C   UNL     1      47.222   5.013  14.427  0.00  0.00    +0.000 A 
ATOM      4  C   UNL     1      47.585   6.131  13.659  0.00  0.00    +0.000 A 
ATOM      5  C   UNL     1      48.439   7.078  14.226  0.00  0.00    +0.000 A 
ATOM      6  C   UNL     1      48.903   6.916  15.535  0.00  0.00    +0.000 A 
ATOM      7  C   UNL     1      48.511   5.817  16.324  0.00  0.00    +0.000 A 
ENDROOT
BRANCH   4   8
ATOM      8  C   UNL     1      47.040   6.294  12.259  0.00  0.00    +0.000 C 
BRANCH   8   9
ATOM      9  N   UNL     1      45.882   7.187  12.273  0.00  0.00    +0.000 NA
ATOM     10  H   UNL     1      46.194   8.121  12.000  0.00  0.00    +0.000 HD
BRANCH   9  11
ATOM     11  C   UNL     1      44.835   6.753  11.346  0.00  0.00    +0.000 C 
BRANCH  11  12
ATOM     12  C   UNL     1      44.394   5.333  11.628  0.00  0.00    +0.000 A 
ATOM     13  C   UNL     1      43.888   4.985  12.879  0.00  0.00    +0.000 A 
ATOM     14  N   UNL     1      43.466   3.733  13.184  0.00  0.00    +0.000 NA
ATOM     15  C   UNL     1      43.563   2.835  12.180  0.00  0.00    +0.000 A 
ATOM     16  C   UNL     1      44.061   3.171  10.931  0.00  0.00    +0.000 A 
ATOM     17  N   UNL     1      44.486   4.420  10.628  0.00  0.00    +0.000 NA
ENDBRANCH  11  12
ENDBRANCH   9  11
ENDBRANCH   8   9
ENDBRANCH   4   8
BRANCH   7  18
ATOM     18  C   UNL     1      49.069   5.712  17.726  0.00  0.00    +0.000 C 
BRANCH  18  19
ATOM     19  N   UNL     1      50.332   5.016  17.727  0.00  0.00    +0.000 N 
ATOM     20  C   UNL     1      50.994   4.717  18.891  0.00  0.00    +0.000 C 
ATOM     21  O   UNL     1      50.541   5.008  19.995  0.00  0.00    +0.000 OA
ATOM     22  H   UNL     1      50.850   5.023  16.855  0.00  0.00    +0.000 HD
BRANCH  20  23
ATOM     23  C   UNL     1      52.238   3.948  18.749  0.00  0.00    +0.000 A 
ATOM     24  C   UNL     1      53.434   4.465  19.231  0.00  0.00    +0.000 A 
ATOM     25  S   UNL     1      54.746   3.381  19.109  0.00  0.00    +0.000 S 
ATOM     26  C   UNL     1      53.774   2.203  18.358  0.00  0.00    +0.000 A 
ATOM     27  N   UNL     1      54.284   0.994  18.001  0.00  0.00    +0.000 NA
ATOM     28  C   UNL     1      53.439   0.208  17.422  0.00  0.00    +0.000 A 
ATOM     29  N   UNL     1      52.134   0.528  17.150  0.00  0.00    +0.000 N 
ATOM     30  C   UNL     1      51.581   1.742  17.480  0.00  0.00    +0.000 A 
ATOM     31  O   UNL     1      50.420   2.013  17.193  0.00  0.00    +0.000 OA
ATOM     32  C   UNL     1      52.475   2.643  18.179  0.00  0.00    +0.000 A 
ATOM     33  H   UNL     1      51.529  -0.121  16.670  0.00  0.00    +0.000 HD
ENDBRANCH  20  23
ENDBRANCH  18  19
ENDBRANCH   7  18
TORSDOF 7
ENDMDL
