MODEL 1
REMARK VINA RESULT:    -8.285      0.000      0.000
REMARK INTER + INTRA:         -13.756
REMARK INTER:                 -12.159
REMARK INTRA:                  -1.597
REMARK UNBOUND:                -1.597
REMARK  Name = 
REMARK  9 active torsions:
REMARK  status: ('A' for Active; 'I' for Inactive)
REMARK    1  A    between atoms: C_1  and  O_2
REMARK    2  A    between atoms: O_2  and  C_3
REMARK    3  A    between atoms: C_10  and  C_11
REMARK    4  A    between atoms: N_13  and  C_14
REMARK    5  A    between atoms: C_14  and  C_15
REMARK    6  A    between atoms: C_18  and  C_19
REMARK    7  A    between atoms: C_19  and  C_20
REMARK    8  A    between atoms: C_20  and  C_21
REMARK    9  A    between atoms: C_21  and  C_22
REMARK                            x       y       z     vdW  Elec       q    Type
REMARK                         _______ _______ _______ _____ _____    ______ ____
ROOT
ATOM      1  C   UNL     1      46.867   8.183  13.170  0.00  0.00    +0.000 C 
ENDROOT
BRANCH   1   2
ATOM      2  C   UNL     1      46.001   7.254  12.343  0.00  0.00    +0.000 A 
ATOM      3  C   UNL     1      46.495   6.691  11.156  0.00  0.00    +0.000 A 
ATOM      4  C   UNL     1      45.781   5.692  10.479  0.00  0.00    +0.000 A 
ATOM      5  C   UNL     1      44.520   5.280  10.927  0.00  0.00    +0.000 A 
ATOM      6  C   UNL     1      43.979   5.916  12.051  0.00  0.00    +0.000 A 
ATOM      7  C   UNL     1      44.714   6.883  12.758  0.00  0.00    +0.000 A 
BRANCH   5   8
ATOM      8  C   UNL     1      43.766   4.179  10.211  0.00  0.00    +0.000 C 
BRANCH   8   9
ATOM      9  C   UNL     1      44.400   2.779  10.288  0.00  0.00    +0.000 C 
BRANCH   9  10
ATOM     10  C   UNL     1      44.340   1.975   8.984  0.00  0.00    +0.000 C 
BRANCH  10  11
ATOM     11  C   UNL     1      45.604   2.134   8.168  0.00  0.00    +0.000 A 
ATOM     12  C   UNL     1      45.916   3.346   7.554  0.00  0.00    +0.000 A 
ATOM     13  C   UNL     1      47.091   3.444   6.808  0.00  0.00    +0.000 A 
ATOM     14  C   UNL     1      47.918   2.336   6.692  0.00  0.00    +0.000 A 
ATOM     15  C   UNL     1      47.535   1.170   7.330  0.00  0.00    +0.000 A 
ATOM     16  N   UNL     1      46.402   1.043   8.056  0.00  0.00    +0.000 NA
ENDBRANCH  10  11
ENDBRANCH   9  10
ENDBRANCH   8   9
ENDBRANCH   5   8
ENDBRANCH   1   2
BRANCH   1  19
ATOM     17  C   UNL     1      48.547   6.918  14.480  0.00  0.00    +0.000 C 
ATOM     18  O   UNL     1      49.275   6.789  13.494  0.00  0.00    +0.000 OA
ATOM     19  N   UNL     1      47.345   7.586  14.392  0.00  0.00    +0.000 N 
ATOM     20  H   UNL     1      46.812   7.763  15.231  0.00  0.00    +0.000 HD
BRANCH  17  28
ATOM     21  C   UNL     1      47.415   4.200  16.252  0.00  0.00    +0.000 A 
ATOM     22  N   UNL     1      47.243   3.146  17.073  0.00  0.00    +0.000 NA
ATOM     23  C   UNL     1      48.031   3.048  18.145  0.00  0.00    +0.000 A 
ATOM     24  N   UNL     1      48.983   3.899  18.518  0.00  0.00    +0.000 NA
ATOM     25  C   UNL     1      49.134   4.925  17.662  0.00  0.00    +0.000 A 
ATOM     26  S   UNL     1      50.294   6.122  17.982  0.00  0.00    +0.000 S 
ATOM     27  C   UNL     1      49.905   6.952  16.545  0.00  0.00    +0.000 A 
ATOM     28  C   UNL     1      48.913   6.339  15.788  0.00  0.00    +0.000 A 
ATOM     29  C   UNL     1      48.419   5.153  16.485  0.00  0.00    +0.000 A 
BRANCH  21  31
ATOM     30  C   UNL     1      46.983   3.689  13.998  0.00  0.00    +0.000 C 
ATOM     31  O   UNL     1      46.555   4.350  15.185  0.00  0.00    +0.000 OA
ENDBRANCH  21  31
ENDBRANCH  17  28
ENDBRANCH   1  19
TORSDOF 8
ENDMDL
MODEL 2
REMARK VINA RESULT:    -7.809      1.826      2.281
REMARK INTER + INTRA:         -13.057
REMARK INTER:                 -11.780
REMARK INTRA:                  -1.278
REMARK UNBOUND:                -1.597
REMARK  Name = 
REMARK  9 active torsions:
REMARK  status: ('A' for Active; 'I' for Inactive)
REMARK    1  A    between atoms: C_1  and  O_2
REMARK    2  A    between atoms: O_2  and  C_3
REMARK    3  A    between atoms: C_10  and  C_11
REMARK    4  A    between atoms: N_13  and  C_14
REMARK    5  A    between atoms: C_14  and  C_15
REMARK    6  A    between atoms: C_18  and  C_19
REMARK    7  A    between atoms: C_19  and  C_20
REMARK    8  A    between atoms: C_20  and  C_21
REMARK    9  A    between atoms: C_21  and  C_22
REMARK                            x       y       z     vdW  Elec       q    Type
REMARK                         _______ _______ _______ _____ _____    ______ ____
ROOT
ATOM      1  C   UNL     1      48.431   7.051  13.738  0.00  0.00    +0.000 C 
ENDROOT
BRANCH   1   2
ATOM      2  C   UNL     1      47.337   6.313  12.994  0.00  0.00    +0.000 A 
ATOM      3  C   UNL     1      46.611   5.292  13.627  0.00  0.00    +0.000 A 
ATOM      4  C   UNL     1      45.480   4.727  13.020  0.00  0.00    +0.000 A 
ATOM      5  C   UNL     1      45.086   5.112  11.733  0.00  0.00    +0.000 A 
ATOM      6  C   UNL     1      45.871   6.054  11.057  0.00  0.00    +0.000 A 
ATOM      7  C   UNL     1      46.976   6.656  11.683  0.00  0.00    +0.000 A 
BRANCH   5   8
ATOM      8  C   UNL     1      43.847   4.522  11.094  0.00  0.00    +0.000 C 
BRANCH   8   9
ATOM      9  C   UNL     1      44.049   3.903   9.699  0.00  0.00    +0.000 C 
BRANCH   9  10
ATOM     10  C   UNL     1      44.779   2.556   9.695  0.00  0.00    +0.000 C 
BRANCH  10  11
ATOM     11  C   UNL     1      45.678   2.407   8.487  0.00  0.00    +0.000 A 
ATOM     12  C   UNL     1      45.884   3.470   7.609  0.00  0.00    +0.000 A 
ATOM     13  C   UNL     1      46.719   3.285   6.507  0.00  0.00    +0.000 A 
ATOM     14  C   UNL     1      47.323   2.052   6.310  0.00  0.00    +0.000 A 
ATOM     15  C   UNL     1      47.065   1.048   7.226  0.00  0.00    +0.000 A 
ATOM     16  N   UNL     1      46.258   1.195   8.301  0.00  0.00    +0.000 NA
ENDBRANCH  10  11
ENDBRANCH   9  10
ENDBRANCH   8   9
ENDBRANCH   5   8
ENDBRANCH   1   2
BRANCH   1  19
ATOM     17  C   UNL     1      49.049   6.803  16.125  0.00  0.00    +0.000 C 
ATOM     18  O   UNL     1      50.124   6.277  15.831  0.00  0.00    +0.000 OA
ATOM     19  N   UNL     1      48.165   7.203  15.147  0.00  0.00    +0.000 N 
ATOM     20  H   UNL     1      47.336   7.718  15.407  0.00  0.00    +0.000 HD
BRANCH  17  28
ATOM     21  C   UNL     1      48.774   4.684  18.815  0.00  0.00    +0.000 A 
ATOM     22  N   UNL     1      48.705   4.104  20.029  0.00  0.00    +0.000 NA
ATOM     23  C   UNL     1      48.408   4.873  21.078  0.00  0.00    +0.000 A 
ATOM     24  N   UNL     1      48.150   6.178  21.065  0.00  0.00    +0.000 NA
ATOM     25  C   UNL     1      48.248   6.720  19.838  0.00  0.00    +0.000 A 
ATOM     26  S   UNL     1      47.938   8.374  19.624  0.00  0.00    +0.000 S 
ATOM     27  C   UNL     1      48.278   8.272  17.957  0.00  0.00    +0.000 A 
ATOM     28  C   UNL     1      48.649   7.002  17.532  0.00  0.00    +0.000 A 
ATOM     29  C   UNL     1      48.581   6.065  18.652  0.00  0.00    +0.000 A 
BRANCH  21  31
ATOM     30  C   UNL     1      47.820   3.357  17.125  0.00  0.00    +0.000 C 
ATOM     31  O   UNL     1      49.004   3.883  17.716  0.00  0.00    +0.000 OA
ENDBRANCH  21  31
ENDBRANCH  17  28
ENDBRANCH   1  19
TORSDOF 8
ENDMDL
MODEL 3
REMARK VINA RESULT:    -7.374      2.578      3.482
REMARK INTER + INTRA:         -12.420
REMARK INTER:                 -11.205
REMARK INTRA:                  -1.215
REMARK UNBOUND:                -1.597
REMARK  Name = 
REMARK  9 active torsions:
REMARK  status: ('A' for Active; 'I' for Inactive)
REMARK    1  A    between atoms: C_1  and  O_2
REMARK    2  A    between atoms: O_2  and  C_3
REMARK    3  A    between atoms: C_10  and  C_11
REMARK    4  A    between atoms: N_13  and  C_14
REMARK    5  A    between atoms: C_14  and  C_15
REMARK    6  A    between atoms: C_18  and  C_19
REMARK    7  A    between atoms: C_19  and  C_20
REMARK    8  A    between atoms: C_20  and  C_21
REMARK    9  A    between atoms: C_21  and  C_22
REMARK                            x       y       z     vdW  Elec       q    Type
REMARK                         _______ _______ _______ _____ _____    ______ ____
ROOT
ATOM      1  C   UNL     1      48.307   6.212  14.357  0.00  0.00    +0.000 C 
ENDROOT
BRANCH   1   2
ATOM      2  C   UNL     1      47.065   5.748  13.624  0.00  0.00    +0.000 A 
ATOM      3  C   UNL     1      46.390   6.614  12.750  0.00  0.00    +0.000 A 
ATOM      4  C   UNL     1      45.354   6.147  11.928  0.00  0.00    +0.000 A 
ATOM      5  C   UNL     1      44.913   4.821  12.009  0.00  0.00    +0.000 A 
ATOM      6  C   UNL     1      45.514   3.982  12.956  0.00  0.00    +0.000 A 
ATOM      7  C   UNL     1      46.584   4.436  13.746  0.00  0.00    +0.000 A 
BRANCH   5   8
ATOM      8  C   UNL     1      43.815   4.312  11.099  0.00  0.00    +0.000 C 
BRANCH   8   9
ATOM      9  C   UNL     1      44.239   4.007   9.651  0.00  0.00    +0.000 C 
BRANCH   9  10
ATOM     10  C   UNL     1      44.549   2.532   9.371  0.00  0.00    +0.000 C 
BRANCH  10  11
ATOM     11  C   UNL     1      45.622   2.373   8.317  0.00  0.00    +0.000 A 
ATOM     12  C   UNL     1      45.932   3.414   7.444  0.00  0.00    +0.000 A 
ATOM     13  C   UNL     1      46.928   3.220   6.486  0.00  0.00    +0.000 A 
ATOM     14  C   UNL     1      47.582   1.999   6.422  0.00  0.00    +0.000 A 
ATOM     15  C   UNL     1      47.213   1.016   7.322  0.00  0.00    +0.000 A 
ATOM     16  N   UNL     1      46.251   1.172   8.259  0.00  0.00    +0.000 NA
ENDBRANCH  10  11
ENDBRANCH   9  10
ENDBRANCH   8   9
ENDBRANCH   5   8
ENDBRANCH   1   2
BRANCH   1  19
ATOM     17  C   UNL     1      48.645   5.831  16.782  0.00  0.00    +0.000 C 
ATOM     18  O   UNL     1      49.394   4.876  16.565  0.00  0.00    +0.000 OA
ATOM     19  N   UNL     1      48.070   6.530  15.743  0.00  0.00    +0.000 N 
ATOM     20  H   UNL     1      47.540   7.366  15.940  0.00  0.00    +0.000 HD
BRANCH  17  28
ATOM     21  C   UNL     1      48.086   8.891  18.240  0.00  0.00    +0.000 A 
ATOM     22  N   UNL     1      47.711   9.930  19.010  0.00  0.00    +0.000 NA
ATOM     23  C   UNL     1      47.332   9.680  20.264  0.00  0.00    +0.000 A 
ATOM     24  N   UNL     1      47.296   8.495  20.867  0.00  0.00    +0.000 NA
ATOM     25  C   UNL     1      47.660   7.484  20.058  0.00  0.00    +0.000 A 
ATOM     26  S   UNL     1      47.689   5.897  20.658  0.00  0.00    +0.000 S 
ATOM     27  C   UNL     1      48.176   5.282  19.145  0.00  0.00    +0.000 A 
ATOM     28  C   UNL     1      48.308   6.249  18.157  0.00  0.00    +0.000 A 
ATOM     29  C   UNL     1      48.047   7.573  18.720  0.00  0.00    +0.000 A 
BRANCH  21  31
ATOM     30  C   UNL     1      48.763  10.532  16.698  0.00  0.00    +0.000 C 
ATOM     31  O   UNL     1      48.552   9.150  16.968  0.00  0.00    +0.000 OA
ENDBRANCH  21  31
ENDBRANCH  17  28
ENDBRANCH   1  19
TORSDOF 8
ENDMDL
MODEL 4
REMARK VINA RESULT:    -7.309      2.378      3.259
REMARK INTER + INTRA:         -12.324
REMARK INTER:                 -11.375
REMARK INTRA:                  -0.948
REMARK UNBOUND:                -1.597
REMARK  Name = 
REMARK  9 active torsions:
REMARK  status: ('A' for Active; 'I' for Inactive)
REMARK    1  A    between atoms: C_1  and  O_2
REMARK    2  A    between atoms: O_2  and  C_3
REMARK    3  A    between atoms: C_10  and  C_11
REMARK    4  A    between atoms: N_13  and  C_14
REMARK    5  A    between atoms: C_14  and  C_15
REMARK    6  A    between atoms: C_18  and  C_19
REMARK    7  A    between atoms: C_19  and  C_20
REMARK    8  A    between atoms: C_20  and  C_21
REMARK    9  A    between atoms: C_21  and  C_22
REMARK                            x       y       z     vdW  Elec       q    Type
REMARK                         _______ _______ _______ _____ _____    ______ ____
ROOT
ATOM      1  C   UNL     1      49.177   7.568  15.411  0.00  0.00    +0.000 C 
ENDROOT
BRANCH   1   2
ATOM      2  C   UNL     1      48.461   7.070  14.172  0.00  0.00    +0.000 A 
ATOM      3  C   UNL     1      47.575   5.984  14.252  0.00  0.00    +0.000 A 
ATOM      4  C   UNL     1      46.769   5.628  13.161  0.00  0.00    +0.000 A 
ATOM      5  C   UNL     1      46.878   6.299  11.937  0.00  0.00    +0.000 A 
ATOM      6  C   UNL     1      47.837   7.314  11.823  0.00  0.00    +0.000 A 
ATOM      7  C   UNL     1      48.611   7.702  12.930  0.00  0.00    +0.000 A 
BRANCH   5   8
ATOM      8  C   UNL     1      45.984   5.932  10.771  0.00  0.00    +0.000 C 
BRANCH   8   9
ATOM      9  C   UNL     1      44.760   5.066  11.117  0.00  0.00    +0.000 C 
BRANCH   9  10
ATOM     10  C   UNL     1      44.024   4.482   9.906  0.00  0.00    +0.000 C 
BRANCH  10  11
ATOM     11  C   UNL     1      44.952   3.685   9.016  0.00  0.00    +0.000 A 
ATOM     12  C   UNL     1      45.139   2.317   9.213  0.00  0.00    +0.000 A 
ATOM     13  C   UNL     1      46.006   1.624   8.368  0.00  0.00    +0.000 A 
ATOM     14  C   UNL     1      46.663   2.309   7.357  0.00  0.00    +0.000 A 
ATOM     15  C   UNL     1      46.426   3.666   7.230  0.00  0.00    +0.000 A 
ATOM     16  N   UNL     1      45.594   4.366   8.034  0.00  0.00    +0.000 NA
ENDBRANCH  10  11
ENDBRANCH   9  10
ENDBRANCH   8   9
ENDBRANCH   5   8
ENDBRANCH   1   2
BRANCH   1  19
ATOM     17  C   UNL     1      49.959   6.111  17.257  0.00  0.00    +0.000 C 
ATOM     18  O   UNL     1      49.048   6.494  17.995  0.00  0.00    +0.000 OA
ATOM     19  N   UNL     1      50.086   6.602  15.976  0.00  0.00    +0.000 N 
ATOM     20  H   UNL     1      50.778   6.204  15.358  0.00  0.00    +0.000 HD
BRANCH  17  28
ATOM     21  C   UNL     1      50.193   2.690  17.042  0.00  0.00    +0.000 A 
ATOM     22  N   UNL     1      50.579   1.401  16.987  0.00  0.00    +0.000 NA
ATOM     23  C   UNL     1      51.774   1.079  17.485  0.00  0.00    +0.000 A 
ATOM     24  N   UNL     1      52.647   1.901  18.061  0.00  0.00    +0.000 NA
ATOM     25  C   UNL     1      52.232   3.180  18.079  0.00  0.00    +0.000 A 
ATOM     26  S   UNL     1      53.210   4.371  18.789  0.00  0.00    +0.000 S 
ATOM     27  C   UNL     1      52.086   5.593  18.404  0.00  0.00    +0.000 A 
ATOM     28  C   UNL     1      50.966   5.136  17.720  0.00  0.00    +0.000 A 
ATOM     29  C   UNL     1      51.033   3.683  17.572  0.00  0.00    +0.000 A 
BRANCH  21  31
ATOM     30  C   UNL     1      47.928   2.961  17.611  0.00  0.00    +0.000 C 
ATOM     31  O   UNL     1      48.929   3.018  16.600  0.00  0.00    +0.000 OA
ENDBRANCH  21  31
ENDBRANCH  17  28
ENDBRANCH   1  19
TORSDOF 8
ENDMDL
MODEL 5
REMARK VINA RESULT:    -6.969      2.054      3.593
REMARK INTER + INTRA:         -11.825
REMARK INTER:                 -10.447
REMARK INTRA:                  -1.378
REMARK UNBOUND:                -1.597
REMARK  Name = 
REMARK  9 active torsions:
REMARK  status: ('A' for Active; 'I' for Inactive)
REMARK    1  A    between atoms: C_1  and  O_2
REMARK    2  A    between atoms: O_2  and  C_3
REMARK    3  A    between atoms: C_10  and  C_11
REMARK    4  A    between atoms: N_13  and  C_14
REMARK    5  A    between atoms: C_14  and  C_15
REMARK    6  A    between atoms: C_18  and  C_19
REMARK    7  A    between atoms: C_19  and  C_20
REMARK    8  A    between atoms: C_20  and  C_21
REMARK    9  A    between atoms: C_21  and  C_22
REMARK                            x       y       z     vdW  Elec       q    Type
REMARK                         _______ _______ _______ _____ _____    ______ ____
ROOT
ATOM      1  C   UNL     1      47.441   4.073  15.225  0.00  0.00    +0.000 C 
ENDROOT
BRANCH   1   2
ATOM      2  C   UNL     1      46.657   4.325  13.953  0.00  0.00    +0.000 A 
ATOM      3  C   UNL     1      46.166   3.249  13.197  0.00  0.00    +0.000 A 
ATOM      4  C   UNL     1      45.287   3.462  12.124  0.00  0.00    +0.000 A 
ATOM      5  C   UNL     1      44.933   4.758  11.731  0.00  0.00    +0.000 A 
ATOM      6  C   UNL     1      45.506   5.836  12.417  0.00  0.00    +0.000 A 
ATOM      7  C   UNL     1      46.348   5.623  13.522  0.00  0.00    +0.000 A 
BRANCH   5   8
ATOM      8  C   UNL     1      43.961   4.983  10.592  0.00  0.00    +0.000 C 
BRANCH   8   9
ATOM      9  C   UNL     1      44.171   4.096   9.353  0.00  0.00    +0.000 C 
BRANCH   9  10
ATOM     10  C   UNL     1      45.358   4.498   8.470  0.00  0.00    +0.000 C 
BRANCH  10  11
ATOM     11  C   UNL     1      46.037   3.293   7.859  0.00  0.00    +0.000 A 
ATOM     12  C   UNL     1      46.814   3.411   6.708  0.00  0.00    +0.000 A 
ATOM     13  C   UNL     1      47.419   2.271   6.179  0.00  0.00    +0.000 A 
ATOM     14  C   UNL     1      47.232   1.048   6.807  0.00  0.00    +0.000 A 
ATOM     15  C   UNL     1      46.444   1.014   7.943  0.00  0.00    +0.000 A 
ATOM     16  N   UNL     1      45.842   2.101   8.477  0.00  0.00    +0.000 NA
ENDBRANCH  10  11
ENDBRANCH   9  10
ENDBRANCH   8   9
ENDBRANCH   5   8
ENDBRANCH   1   2
BRANCH   1  19
ATOM     17  C   UNL     1      48.805   5.406  16.808  0.00  0.00    +0.000 C 
ATOM     18  O   UNL     1      49.608   4.481  16.953  0.00  0.00    +0.000 OA
ATOM     19  N   UNL     1      47.713   5.272  15.978  0.00  0.00    +0.000 N 
ATOM     20  H   UNL     1      47.124   6.073  15.799  0.00  0.00    +0.000 HD
BRANCH  17  28
ATOM     21  C   UNL     1      48.840   8.693  15.809  0.00  0.00    +0.000 A 
ATOM     22  N   UNL     1      48.769  10.033  15.700  0.00  0.00    +0.000 NA
ATOM     23  C   UNL     1      48.829  10.760  16.817  0.00  0.00    +0.000 A 
ATOM     24  N   UNL     1      48.970  10.306  18.059  0.00  0.00    +0.000 NA
ATOM     25  C   UNL     1      49.018   8.963  18.125  0.00  0.00    +0.000 A 
ATOM     26  S   UNL     1      49.210   8.202  19.629  0.00  0.00    +0.000 S 
ATOM     27  C   UNL     1      49.146   6.658  18.911  0.00  0.00    +0.000 A 
ATOM     28  C   UNL     1      48.960   6.681  17.534  0.00  0.00    +0.000 A 
ATOM     29  C   UNL     1      48.934   8.065  17.061  0.00  0.00    +0.000 A 
BRANCH  21  31
ATOM     30  C   UNL     1      50.091   7.992  13.946  0.00  0.00    +0.000 C 
ATOM     31  O   UNL     1      48.857   7.939  14.654  0.00  0.00    +0.000 OA
ENDBRANCH  21  31
ENDBRANCH  17  28
ENDBRANCH   1  19
TORSDOF 8
ENDMDL
MODEL 6
REMARK VINA RESULT:    -6.703      4.667      9.293
REMARK INTER + INTRA:         -11.435
REMARK INTER:                 -10.494
REMARK INTRA:                  -0.940
REMARK UNBOUND:                -1.597
REMARK  Name = 
REMARK  9 active torsions:
REMARK  status: ('A' for Active; 'I' for Inactive)
REMARK    1  A    between atoms: C_1  and  O_2
REMARK    2  A    between atoms: O_2  and  C_3
REMARK    3  A    between atoms: C_10  and  C_11
REMARK    4  A    between atoms: N_13  and  C_14
REMARK    5  A    between atoms: C_14  and  C_15
REMARK    6  A    between atoms: C_18  and  C_19
REMARK    7  A    between atoms: C_19  and  C_20
REMARK    8  A    between atoms: C_20  and  C_21
REMARK    9  A    between atoms: C_21  and  C_22
REMARK                            x       y       z     vdW  Elec       q    Type
REMARK                         _______ _______ _______ _____ _____    ______ ____
ROOT
ATOM      1  C   UNL     1      47.206   3.464  16.819  0.00  0.00    +0.000 C 
ENDROOT
BRANCH   1   2
ATOM      2  C   UNL     1      48.702   3.367  17.033  0.00  0.00    +0.000 A 
ATOM      3  C   UNL     1      49.442   4.500  17.406  0.00  0.00    +0.000 A 
ATOM      4  C   UNL     1      50.788   4.391  17.786  0.00  0.00    +0.000 A 
ATOM      5  C   UNL     1      51.453   3.160  17.732  0.00  0.00    +0.000 A 
ATOM      6  C   UNL     1      50.746   2.048  17.258  0.00  0.00    +0.000 A 
ATOM      7  C   UNL     1      49.384   2.147  16.923  0.00  0.00    +0.000 A 
BRANCH   5   8
ATOM      8  C   UNL     1      52.897   3.040  18.171  0.00  0.00    +0.000 C 
BRANCH   8   9
ATOM      9  C   UNL     1      53.676   1.853  17.578  0.00  0.00    +0.000 C 
BRANCH   9  10
ATOM     10  C   UNL     1      54.636   1.164  18.554  0.00  0.00    +0.000 C 
BRANCH  10  11
ATOM     11  C   UNL     1      54.636  -0.338  18.376  0.00  0.00    +0.000 A 
ATOM     12  C   UNL     1      55.066  -0.921  17.185  0.00  0.00    +0.000 A 
ATOM     13  C   UNL     1      55.045  -2.311  17.065  0.00  0.00    +0.000 A 
ATOM     14  C   UNL     1      54.597  -3.079  18.130  0.00  0.00    +0.000 A 
ATOM     15  C   UNL     1      54.185  -2.424  19.276  0.00  0.00    +0.000 A 
ATOM     16  N   UNL     1      54.190  -1.079  19.421  0.00  0.00    +0.000 NA
ENDBRANCH  10  11
ENDBRANCH   9  10
ENDBRANCH   8   9
ENDBRANCH   5   8
ENDBRANCH   1   2
BRANCH   1  19
ATOM     17  C   UNL     1      46.864   4.210  14.480  0.00  0.00    +0.000 C 
ATOM     18  O   UNL     1      47.237   3.121  14.039  0.00  0.00    +0.000 OA
ATOM     19  N   UNL     1      46.829   4.451  15.836  0.00  0.00    +0.000 N 
ATOM     20  H   UNL     1      46.429   5.312  16.178  0.00  0.00    +0.000 HD
BRANCH  17  28
ATOM     21  C   UNL     1      44.050   4.814  12.604  0.00  0.00    +0.000 A 
ATOM     22  N   UNL     1      43.033   5.337  11.894  0.00  0.00    +0.000 NA
ATOM     23  C   UNL     1      43.191   6.554  11.368  0.00  0.00    +0.000 A 
ATOM     24  N   UNL     1      44.271   7.326  11.452  0.00  0.00    +0.000 NA
ATOM     25  C   UNL     1      45.255   6.774  12.185  0.00  0.00    +0.000 A 
ATOM     26  S   UNL     1      46.718   7.609  12.391  0.00  0.00    +0.000 S 
ATOM     27  C   UNL     1      47.346   6.365  13.372  0.00  0.00    +0.000 A 
ATOM     28  C   UNL     1      46.467   5.310  13.580  0.00  0.00    +0.000 A 
ATOM     29  C   UNL     1      45.234   5.536  12.826  0.00  0.00    +0.000 A 
BRANCH  21  31
ATOM     30  C   UNL     1      43.501   2.583  12.107  0.00  0.00    +0.000 C 
ATOM     31  O   UNL     1      43.924   3.528  13.085  0.00  0.00    +0.000 OA
ENDBRANCH  21  31
ENDBRANCH  17  28
ENDBRANCH   1  19
TORSDOF 8
ENDMDL
MODEL 7
REMARK VINA RESULT:    -6.691      3.051      7.752
REMARK INTER + INTRA:         -11.417
REMARK INTER:                  -9.733
REMARK INTRA:                  -1.684
REMARK UNBOUND:                -1.597
REMARK  Name = 
REMARK  9 active torsions:
REMARK  status: ('A' for Active; 'I' for Inactive)
REMARK    1  A    between atoms: C_1  and  O_2
REMARK    2  A    between atoms: O_2  and  C_3
REMARK    3  A    between atoms: C_10  and  C_11
REMARK    4  A    between atoms: N_13  and  C_14
REMARK    5  A    between atoms: C_14  and  C_15
REMARK    6  A    between atoms: C_18  and  C_19
REMARK    7  A    between atoms: C_19  and  C_20
REMARK    8  A    between atoms: C_20  and  C_21
REMARK    9  A    between atoms: C_21  and  C_22
REMARK                            x       y       z     vdW  Elec       q    Type
REMARK                         _______ _______ _______ _____ _____    ______ ____
ROOT
ATOM      1  C   UNL     1      48.410   8.108  11.981  0.00  0.00    +0.000 C 
ENDROOT
BRANCH   1   2
ATOM      2  C   UNL     1      48.519   8.031  13.490  0.00  0.00    +0.000 A 
ATOM      3  C   UNL     1      49.188   6.959  14.101  0.00  0.00    +0.000 A 
ATOM      4  C   UNL     1      49.457   6.966  15.477  0.00  0.00    +0.000 A 
ATOM      5  C   UNL     1      49.000   8.006  16.295  0.00  0.00    +0.000 A 
ATOM      6  C   UNL     1      48.240   9.024  15.705  0.00  0.00    +0.000 A 
ATOM      7  C   UNL     1      48.011   9.043  14.318  0.00  0.00    +0.000 A 
BRANCH   5   8
ATOM      8  C   UNL     1      49.318   8.025  17.775  0.00  0.00    +0.000 C 
BRANCH   8   9
ATOM      9  C   UNL     1      48.380   7.195  18.668  0.00  0.00    +0.000 C 
BRANCH   9  10
ATOM     10  C   UNL     1      49.020   5.948  19.288  0.00  0.00    +0.000 C 
BRANCH  10  11
ATOM     11  C   UNL     1      48.842   4.729  18.411  0.00  0.00    +0.000 A 
ATOM     12  C   UNL     1      47.596   4.403  17.877  0.00  0.00    +0.000 A 
ATOM     13  C   UNL     1      47.480   3.267  17.076  0.00  0.00    +0.000 A 
ATOM     14  C   UNL     1      48.601   2.488  16.831  0.00  0.00    +0.000 A 
ATOM     15  C   UNL     1      49.800   2.878  17.400  0.00  0.00    +0.000 A 
ATOM     16  N   UNL     1      49.944   3.972  18.184  0.00  0.00    +0.000 NA
ENDBRANCH  10  11
ENDBRANCH   9  10
ENDBRANCH   8   9
ENDBRANCH   5   8
ENDBRANCH   1   2
BRANCH   1  19
ATOM     17  C   UNL     1      46.332   6.917  11.346  0.00  0.00    +0.000 C 
ATOM     18  O   UNL     1      45.629   7.815  11.816  0.00  0.00    +0.000 OA
ATOM     19  N   UNL     1      47.706   6.993  11.398  0.00  0.00    +0.000 N 
ATOM     20  H   UNL     1      48.261   6.296  10.923  0.00  0.00    +0.000 HD
BRANCH  17  28
ATOM     21  C   UNL     1      44.546   4.272  12.619  0.00  0.00    +0.000 A 
ATOM     22  N   UNL     1      43.741   3.214  12.837  0.00  0.00    +0.000 NA
ATOM     23  C   UNL     1      43.364   2.482  11.788  0.00  0.00    +0.000 A 
ATOM     24  N   UNL     1      43.712   2.668  10.517  0.00  0.00    +0.000 NA
ATOM     25  C   UNL     1      44.500   3.744  10.341  0.00  0.00    +0.000 A 
ATOM     26  S   UNL     1      45.057   4.131   8.786  0.00  0.00    +0.000 S 
ATOM     27  C   UNL     1      45.878   5.506   9.369  0.00  0.00    +0.000 A 
ATOM     28  C   UNL     1      45.736   5.712  10.735  0.00  0.00    +0.000 A 
ATOM     29  C   UNL     1      44.951   4.627  11.322  0.00  0.00    +0.000 A 
BRANCH  21  31
ATOM     30  C   UNL     1      46.331   4.662  14.098  0.00  0.00    +0.000 C 
ATOM     31  O   UNL     1      45.001   4.987  13.705  0.00  0.00    +0.000 OA
ENDBRANCH  21  31
ENDBRANCH  17  28
ENDBRANCH   1  19
TORSDOF 8
ENDMDL
MODEL 8
REMARK VINA RESULT:    -6.538      3.201      5.640
REMARK INTER + INTRA:         -11.192
REMARK INTER:                  -9.526
REMARK INTRA:                  -1.666
REMARK UNBOUND:                -1.597
REMARK  Name = 
REMARK  9 active torsions:
REMARK  status: ('A' for Active; 'I' for Inactive)
REMARK    1  A    between atoms: C_1  and  O_2
REMARK    2  A    between atoms: O_2  and  C_3
REMARK    3  A    between atoms: C_10  and  C_11
REMARK    4  A    between atoms: N_13  and  C_14
REMARK    5  A    between atoms: C_14  and  C_15
REMARK    6  A    between atoms: C_18  and  C_19
REMARK    7  A    between atoms: C_19  and  C_20
REMARK    8  A    between atoms: C_20  and  C_21
REMARK    9  A    between atoms: C_21  and  C_22
REMARK                            x       y       z     vdW  Elec       q    Type
REMARK                         _______ _______ _______ _____ _____    ______ ____
ROOT
ATOM      1  C   UNL     1      47.962   3.744  17.286  0.00  0.00    +0.000 C 
ENDROOT
BRANCH   1   2
ATOM      2  C   UNL     1      47.849   4.542  16.003  0.00  0.00    +0.000 A 
ATOM      3  C   UNL     1      47.128   4.033  14.912  0.00  0.00    +0.000 A 
ATOM      4  C   UNL     1      46.858   4.830  13.790  0.00  0.00    +0.000 A 
ATOM      5  C   UNL     1      47.363   6.132  13.694  0.00  0.00    +0.000 A 
ATOM      6  C   UNL     1      48.172   6.604  14.736  0.00  0.00    +0.000 A 
ATOM      7  C   UNL     1      48.403   5.824  15.881  0.00  0.00    +0.000 A 
BRANCH   5   8
ATOM      8  C   UNL     1      47.044   7.000  12.495  0.00  0.00    +0.000 C 
BRANCH   8   9
ATOM      9  C   UNL     1      45.699   7.745  12.552  0.00  0.00    +0.000 C 
BRANCH   9  10
ATOM     10  C   UNL     1      44.686   7.322  11.482  0.00  0.00    +0.000 C 
BRANCH  10  11
ATOM     11  C   UNL     1      44.268   5.878  11.643  0.00  0.00    +0.000 A 
ATOM     12  C   UNL     1      44.556   4.931  10.661  0.00  0.00    +0.000 A 
ATOM     13  C   UNL     1      44.147   3.611  10.853  0.00  0.00    +0.000 A 
ATOM     14  C   UNL     1      43.463   3.272  12.011  0.00  0.00    +0.000 A 
ATOM     15  C   UNL     1      43.214   4.270  12.935  0.00  0.00    +0.000 A 
ATOM     16  N   UNL     1      43.594   5.558  12.777  0.00  0.00    +0.000 NA
ENDBRANCH  10  11
ENDBRANCH   9  10
ENDBRANCH   8   9
ENDBRANCH   5   8
ENDBRANCH   1   2
BRANCH   1  19
ATOM     17  C   UNL     1      50.043   2.420  17.039  0.00  0.00    +0.000 C 
ATOM     18  O   UNL     1      49.541   1.728  16.150  0.00  0.00    +0.000 OA
ATOM     19  N   UNL     1      49.322   3.425  17.646  0.00  0.00    +0.000 N 
ATOM     20  H   UNL     1      49.782   4.041  18.300  0.00  0.00    +0.000 HD
BRANCH  17  28
ATOM     21  C   UNL     1      52.503   4.498  18.236  0.00  0.00    +0.000 A 
ATOM     22  N   UNL     1      53.568   5.063  18.837  0.00  0.00    +0.000 NA
ATOM     23  C   UNL     1      54.571   4.269  19.217  0.00  0.00    +0.000 A 
ATOM     24  N   UNL     1      54.654   2.952  19.053  0.00  0.00    +0.000 NA
ATOM     25  C   UNL     1      53.563   2.426  18.467  0.00  0.00    +0.000 A 
ATOM     26  S   UNL     1      53.495   0.759  18.162  0.00  0.00    +0.000 S 
ATOM     27  C   UNL     1      51.931   0.894  17.499  0.00  0.00    +0.000 A 
ATOM     28  C   UNL     1      51.422   2.187  17.510  0.00  0.00    +0.000 A 
ATOM     29  C   UNL     1      52.422   3.109  18.044  0.00  0.00    +0.000 A 
BRANCH  21  31
ATOM     30  C   UNL     1      51.890   6.161  16.692  0.00  0.00    +0.000 C 
ATOM     31  O   UNL     1      51.498   5.319  17.771  0.00  0.00    +0.000 OA
ENDBRANCH  21  31
ENDBRANCH  17  28
ENDBRANCH   1  19
TORSDOF 8
ENDMDL
MODEL 9
REMARK VINA RESULT:    -6.414      3.595      8.733
REMARK INTER + INTRA:         -11.010
REMARK INTER:                  -9.524
REMARK INTRA:                  -1.486
REMARK UNBOUND:                -1.597
REMARK  Name = 
REMARK  9 active torsions:
REMARK  status: ('A' for Active; 'I' for Inactive)
REMARK    1  A    between atoms: C_1  and  O_2
REMARK    2  A    between atoms: O_2  and  C_3
REMARK    3  A    between atoms: C_10  and  C_11
REMARK    4  A    between atoms: N_13  and  C_14
REMARK    5  A    between atoms: C_14  and  C_15
REMARK    6  A    between atoms: C_18  and  C_19
REMARK    7  A    between atoms: C_19  and  C_20
REMARK    8  A    between atoms: C_20  and  C_21
REMARK    9  A    between atoms: C_21  and  C_22
REMARK                            x       y       z     vdW  Elec       q    Type
REMARK                         _______ _______ _______ _____ _____    ______ ____
ROOT
ATOM      1  C   UNL     1      47.138   3.542  16.968  0.00  0.00    +0.000 C 
ENDROOT
BRANCH   1   2
ATOM      2  C   UNL     1      48.599   3.395  17.344  0.00  0.00    +0.000 A 
ATOM      3  C   UNL     1      49.308   2.235  16.994  0.00  0.00    +0.000 A 
ATOM      4  C   UNL     1      50.698   2.159  17.169  0.00  0.00    +0.000 A 
ATOM      5  C   UNL     1      51.407   3.208  17.766  0.00  0.00    +0.000 A 
ATOM      6  C   UNL     1      50.684   4.322  18.213  0.00  0.00    +0.000 A 
ATOM      7  C   UNL     1      49.300   4.420  17.994  0.00  0.00    +0.000 A 
BRANCH   5   8
ATOM      8  C   UNL     1      52.910   3.134  17.926  0.00  0.00    +0.000 C 
BRANCH   8   9
ATOM      9  C   UNL     1      53.604   4.455  18.304  0.00  0.00    +0.000 C 
BRANCH   9  10
ATOM     10  C   UNL     1      54.073   5.298  17.112  0.00  0.00    +0.000 C 
BRANCH  10  11
ATOM     11  C   UNL     1      53.223   6.535  16.930  0.00  0.00    +0.000 A 
ATOM     12  C   UNL     1      52.871   6.986  15.659  0.00  0.00    +0.000 A 
ATOM     13  C   UNL     1      52.087   8.134  15.540  0.00  0.00    +0.000 A 
ATOM     14  C   UNL     1      51.680   8.801  16.686  0.00  0.00    +0.000 A 
ATOM     15  C   UNL     1      52.074   8.291  17.910  0.00  0.00    +0.000 A 
ATOM     16  N   UNL     1      52.835   7.183  18.057  0.00  0.00    +0.000 NA
ENDBRANCH  10  11
ENDBRANCH   9  10
ENDBRANCH   8   9
ENDBRANCH   5   8
ENDBRANCH   1   2
BRANCH   1  19
ATOM     17  C   UNL     1      47.011   4.202  14.583  0.00  0.00    +0.000 C 
ATOM     18  O   UNL     1      47.319   3.067  14.214  0.00  0.00    +0.000 OA
ATOM     19  N   UNL     1      46.909   4.508  15.922  0.00  0.00    +0.000 N 
ATOM     20  H   UNL     1      46.562   5.415  16.200  0.00  0.00    +0.000 HD
BRANCH  17  28
ATOM     21  C   UNL     1      44.273   5.115  12.718  0.00  0.00    +0.000 A 
ATOM     22  N   UNL     1      43.331   5.743  11.990  0.00  0.00    +0.000 NA
ATOM     23  C   UNL     1      43.663   6.880  11.375  0.00  0.00    +0.000 A 
ATOM     24  N   UNL     1      44.853   7.475  11.384  0.00  0.00    +0.000 NA
ATOM     25  C   UNL     1      45.758   6.826  12.138  0.00  0.00    +0.000 A 
ATOM     26  S   UNL     1      47.340   7.430  12.256  0.00  0.00    +0.000 S 
ATOM     27  C   UNL     1      47.793   6.173  13.313  0.00  0.00    +0.000 A 
ATOM     28  C   UNL     1      46.765   5.287  13.613  0.00  0.00    +0.000 A 
ATOM     29  C   UNL     1      45.562   5.653  12.867  0.00  0.00    +0.000 A 
BRANCH  21  31
ATOM     30  C   UNL     1      43.620   2.887  12.353  0.00  0.00    +0.000 C 
ATOM     31  O   UNL     1      43.961   3.902  13.292  0.00  0.00    +0.000 OA
ENDBRANCH  21  31
ENDBRANCH  17  28
ENDBRANCH   1  19
TORSDOF 8
ENDMDL
