MODEL 1
REMARK VINA RESULT:    -8.438      0.000      0.000
REMARK INTER + INTRA:         -13.075
REMARK INTER:                 -11.891
REMARK INTRA:                  -1.184
REMARK UNBOUND:                -1.184
REMARK  Name = 
REMARK  8 active torsions:
REMARK  status: ('A' for Active; 'I' for Inactive)
REMARK    1  A    between atoms: C_1  and  C_2
REMARK    2  A    between atoms: C_7  and  C_8
REMARK    3  A    between atoms: C_8  and  N_9
REMARK    4  A    between atoms: N_9  and  C_10
REMARK    5  A    between atoms: C_10  and  C_11
REMARK    6  A    between atoms: C_14  and  C_15
REMARK    7  A    between atoms: C_15  and  N_16
REMARK    8  A    between atoms: C_17  and  C_19
REMARK                            x       y       z     vdW  Elec       q    Type
REMARK                         _______ _______ _______ _____ _____    ______ ____
ROOT
ATOM      1  C   UNL     1      44.637   4.287  11.370  0.00  0.00    +0.000 A 
ATOM      2  C   UNL     1      45.059   5.362  10.589  0.00  0.00    +0.000 A 
ATOM      3  C   UNL     1      45.903   6.320  11.151  0.00  0.00    +0.000 A 
ATOM      4  C   UNL     1      46.314   6.189  12.477  0.00  0.00    +0.000 A 
ATOM      5  C   UNL     1      45.817   5.103  13.190  0.00  0.00    +0.000 A 
ATOM      6  N   UNL     1      45.000   4.155  12.670  0.00  0.00    +0.000 NA
ENDROOT
BRANCH   1   7
ATOM      7  C   UNL     1      43.749   3.206  10.781  0.00  0.00    +0.000 C 
BRANCH   7   8
ATOM      8  N   UNL     1      44.009   2.891   9.369  0.00  0.00    +0.000 NA
ATOM      9  H   UNL     1      43.142   2.565   8.942  0.00  0.00    +0.000 HD
BRANCH   8  10
ATOM     10  C   UNL     1      45.012   1.831   9.202  0.00  0.00    +0.000 C 
BRANCH  10  17
ATOM     11  C   UNL     1      46.699  -0.266   7.719  0.00  0.00    +0.000 C 
ATOM     12  C   UNL     1      46.715   1.193   7.360  0.00  0.00    +0.000 A 
ATOM     13  C   UNL     1      47.558   1.609   6.311  0.00  0.00    +0.000 A 
ATOM     14  C   UNL     1      47.630   2.948   5.929  0.00  0.00    +0.000 A 
ATOM     15  C   UNL     1      46.866   3.897   6.594  0.00  0.00    +0.000 A 
ATOM     16  C   UNL     1      46.034   3.505   7.642  0.00  0.00    +0.000 A 
ATOM     17  C   UNL     1      45.937   2.157   8.040  0.00  0.00    +0.000 A 
ENDBRANCH  10  17
ENDBRANCH   8  10
ENDBRANCH   7   8
ENDBRANCH   1   7
BRANCH   4  18
ATOM     18  C   UNL     1      47.233   7.181  13.127  0.00  0.00    +0.000 C 
BRANCH  18  19
ATOM     19  N   UNL     1      47.534   6.815  14.489  0.00  0.00    +0.000 N 
ATOM     20  C   UNL     1      48.829   6.724  14.930  0.00  0.00    +0.000 C 
ATOM     21  O   UNL     1      49.785   6.996  14.207  0.00  0.00    +0.000 OA
ATOM     22  H   UNL     1      46.796   6.368  15.024  0.00  0.00    +0.000 HD
BRANCH  20  23
ATOM     23  C   UNL     1      49.019   6.344  16.336  0.00  0.00    +0.000 A 
ATOM     24  C   UNL     1      49.620   7.231  17.217  0.00  0.00    +0.000 A 
ATOM     25  S   UNL     1      49.717   6.648  18.818  0.00  0.00    +0.000 S 
ATOM     26  C   UNL     1      49.010   5.163  18.378  0.00  0.00    +0.000 A 
ATOM     27  N   UNL     1      48.828   4.176  19.293  0.00  0.00    +0.000 NA
ATOM     28  C   UNL     1      48.312   3.092  18.815  0.00  0.00    +0.000 A 
ATOM     29  N   UNL     1      47.955   2.910  17.503  0.00  0.00    +0.000 N 
ATOM     30  C   UNL     1      48.088   3.893  16.551  0.00  0.00    +0.000 A 
ATOM     31  O   UNL     1      47.710   3.719  15.398  0.00  0.00    +0.000 OA
ATOM     32  C   UNL     1      48.680   5.123  17.034  0.00  0.00    +0.000 A 
ATOM     33  H   UNL     1      47.547   2.041  17.193  0.00  0.00    +0.000 HD
ENDBRANCH  20  23
ENDBRANCH  18  19
ENDBRANCH   4  18
TORSDOF 7
ENDMDL
MODEL 2
REMARK VINA RESULT:    -7.814      1.657      2.423
REMARK INTER + INTRA:         -12.196
REMARK INTER:                 -11.131
REMARK INTRA:                  -1.064
REMARK UNBOUND:                -1.184
REMARK  Name = 
REMARK  8 active torsions:
REMARK  status: ('A' for Active; 'I' for Inactive)
REMARK    1  A    between atoms: C_1  and  C_2
REMARK    2  A    between atoms: C_7  and  C_8
REMARK    3  A    between atoms: C_8  and  N_9
REMARK    4  A    between atoms: N_9  and  C_10
REMARK    5  A    between atoms: C_10  and  C_11
REMARK    6  A    between atoms: C_14  and  C_15
REMARK    7  A    between atoms: C_15  and  N_16
REMARK    8  A    between atoms: C_17  and  C_19
REMARK                            x       y       z     vdW  Elec       q    Type
REMARK                         _______ _______ _______ _____ _____    ______ ____
ROOT
ATOM      1  C   UNL     1      44.785   4.811  11.942  0.00  0.00    +0.000 A 
ATOM      2  C   UNL     1      45.922   4.812  12.750  0.00  0.00    +0.000 A 
ATOM      3  C   UNL     1      46.512   6.029  13.091  0.00  0.00    +0.000 A 
ATOM      4  C   UNL     1      45.958   7.222  12.625  0.00  0.00    +0.000 A 
ATOM      5  C   UNL     1      44.845   7.123  11.798  0.00  0.00    +0.000 A 
ATOM      6  N   UNL     1      44.248   5.957  11.453  0.00  0.00    +0.000 NA
ENDROOT
BRANCH   1   7
ATOM      7  C   UNL     1      44.095   3.508  11.581  0.00  0.00    +0.000 C 
BRANCH   7   8
ATOM      8  N   UNL     1      44.940   2.532  10.878  0.00  0.00    +0.000 NA
ATOM      9  H   UNL     1      45.884   2.910  10.804  0.00  0.00    +0.000 HD
BRANCH   8  10
ATOM     10  C   UNL     1      44.464   2.249   9.518  0.00  0.00    +0.000 C 
BRANCH  10  17
ATOM     11  C   UNL     1      45.652   4.845   8.380  0.00  0.00    +0.000 C 
ATOM     12  C   UNL     1      46.167   3.483   8.009  0.00  0.00    +0.000 A 
ATOM     13  C   UNL     1      47.226   3.404   7.083  0.00  0.00    +0.000 A 
ATOM     14  C   UNL     1      47.750   2.174   6.687  0.00  0.00    +0.000 A 
ATOM     15  C   UNL     1      47.218   1.000   7.202  0.00  0.00    +0.000 A 
ATOM     16  C   UNL     1      46.163   1.059   8.110  0.00  0.00    +0.000 A 
ATOM     17  C   UNL     1      45.623   2.290   8.534  0.00  0.00    +0.000 A 
ENDBRANCH  10  17
ENDBRANCH   8  10
ENDBRANCH   7   8
ENDBRANCH   1   7
BRANCH   4  18
ATOM     18  C   UNL     1      46.543   8.559  12.974  0.00  0.00    +0.000 C 
BRANCH  18  19
ATOM     19  N   UNL     1      46.946   8.619  14.357  0.00  0.00    +0.000 N 
ATOM     20  C   UNL     1      48.270   8.592  14.713  0.00  0.00    +0.000 C 
ATOM     21  O   UNL     1      49.169   8.566  13.876  0.00  0.00    +0.000 OA
ATOM     22  H   UNL     1      46.241   8.407  15.057  0.00  0.00    +0.000 HD
BRANCH  20  23
ATOM     23  C   UNL     1      48.566   8.658  16.150  0.00  0.00    +0.000 A 
ATOM     24  C   UNL     1      48.589   9.886  16.795  0.00  0.00    +0.000 A 
ATOM     25  S   UNL     1      48.900   9.776  18.469  0.00  0.00    +0.000 S 
ATOM     26  C   UNL     1      49.072   8.085  18.381  0.00  0.00    +0.000 A 
ATOM     27  N   UNL     1      49.380   7.354  19.484  0.00  0.00    +0.000 NA
ATOM     28  C   UNL     1      49.513   6.087  19.267  0.00  0.00    +0.000 A 
ATOM     29  N   UNL     1      49.358   5.485  18.044  0.00  0.00    +0.000 N 
ATOM     30  C   UNL     1      49.011   6.180  16.909  0.00  0.00    +0.000 A 
ATOM     31  O   UNL     1      48.826   5.605  15.842  0.00  0.00    +0.000 OA
ATOM     32  C   UNL     1      48.868   7.608  17.098  0.00  0.00    +0.000 A 
ATOM     33  H   UNL     1      49.465   4.487  17.941  0.00  0.00    +0.000 HD
ENDBRANCH  20  23
ENDBRANCH  18  19
ENDBRANCH   4  18
TORSDOF 7
ENDMDL
MODEL 3
REMARK VINA RESULT:    -7.686      1.682      2.519
REMARK INTER + INTRA:         -12.015
REMARK INTER:                 -10.925
REMARK INTRA:                  -1.090
REMARK UNBOUND:                -1.184
REMARK  Name = 
REMARK  8 active torsions:
REMARK  status: ('A' for Active; 'I' for Inactive)
REMARK    1  A    between atoms: C_1  and  C_2
REMARK    2  A    between atoms: C_7  and  C_8
REMARK    3  A    between atoms: C_8  and  N_9
REMARK    4  A    between atoms: N_9  and  C_10
REMARK    5  A    between atoms: C_10  and  C_11
REMARK    6  A    between atoms: C_14  and  C_15
REMARK    7  A    between atoms: C_15  and  N_16
REMARK    8  A    between atoms: C_17  and  C_19
REMARK                            x       y       z     vdW  Elec       q    Type
REMARK                         _______ _______ _______ _____ _____    ______ ____
ROOT
ATOM      1  C   UNL     1      44.721   4.360  11.413  0.00  0.00    +0.000 A 
ATOM      2  C   UNL     1      44.918   4.340  12.794  0.00  0.00    +0.000 A 
ATOM      3  C   UNL     1      45.761   5.288  13.373  0.00  0.00    +0.000 A 
ATOM      4  C   UNL     1      46.389   6.240  12.570  0.00  0.00    +0.000 A 
ATOM      5  C   UNL     1      46.161   6.163  11.201  0.00  0.00    +0.000 A 
ATOM      6  N   UNL     1      45.344   5.257  10.609  0.00  0.00    +0.000 NA
ENDROOT
BRANCH   1   7
ATOM      7  C   UNL     1      43.782   3.367  10.753  0.00  0.00    +0.000 C 
BRANCH   7   8
ATOM      8  N   UNL     1      44.075   3.078   9.342  0.00  0.00    +0.000 NA
ATOM      9  H   UNL     1      43.210   2.803   8.878  0.00  0.00    +0.000 HD
BRANCH   8  10
ATOM     10  C   UNL     1      45.037   1.979   9.179  0.00  0.00    +0.000 C 
BRANCH  10  17
ATOM     11  C   UNL     1      46.679  -0.200   7.766  0.00  0.00    +0.000 C 
ATOM     12  C   UNL     1      46.698   1.240   7.337  0.00  0.00    +0.000 A 
ATOM     13  C   UNL     1      47.524   1.598   6.253  0.00  0.00    +0.000 A 
ATOM     14  C   UNL     1      47.598   2.917   5.806  0.00  0.00    +0.000 A 
ATOM     15  C   UNL     1      46.854   3.903   6.439  0.00  0.00    +0.000 A 
ATOM     16  C   UNL     1      46.040   3.568   7.520  0.00  0.00    +0.000 A 
ATOM     17  C   UNL     1      45.941   2.242   7.985  0.00  0.00    +0.000 A 
ENDBRANCH  10  17
ENDBRANCH   8  10
ENDBRANCH   7   8
ENDBRANCH   1   7
BRANCH   4  18
ATOM     18  C   UNL     1      47.293   7.292  13.143  0.00  0.00    +0.000 C 
BRANCH  18  19
ATOM     19  N   UNL     1      47.519   7.088  14.552  0.00  0.00    +0.000 N 
ATOM     20  C   UNL     1      48.773   6.815  15.038  0.00  0.00    +0.000 C 
ATOM     21  O   UNL     1      49.761   6.780  14.309  0.00  0.00    +0.000 OA
ATOM     22  H   UNL     1      46.709   6.882  15.128  0.00  0.00    +0.000 HD
BRANCH  20  23
ATOM     23  C   UNL     1      48.887   6.626  16.490  0.00  0.00    +0.000 A 
ATOM     24  C   UNL     1      49.286   5.398  16.997  0.00  0.00    +0.000 A 
ATOM     25  S   UNL     1      49.413   5.367  18.699  0.00  0.00    +0.000 S 
ATOM     26  C   UNL     1      48.881   6.979  18.822  0.00  0.00    +0.000 A 
ATOM     27  N   UNL     1      48.732   7.577  20.033  0.00  0.00    +0.000 NA
ATOM     28  C   UNL     1      48.290   8.790  19.979  0.00  0.00    +0.000 A 
ATOM     29  N   UNL     1      47.991   9.461  18.821  0.00  0.00    +0.000 N 
ATOM     30  C   UNL     1      48.160   8.909  17.574  0.00  0.00    +0.000 A 
ATOM     31  O   UNL     1      47.935   9.554  16.555  0.00  0.00    +0.000 OA
ATOM     32  C   UNL     1      48.637   7.542  17.581  0.00  0.00    +0.000 A 
ATOM     33  H   UNL     1      47.658  10.414  18.846  0.00  0.00    +0.000 HD
ENDBRANCH  20  23
ENDBRANCH  18  19
ENDBRANCH   4  18
TORSDOF 7
ENDMDL
MODEL 4
REMARK VINA RESULT:    -7.422      1.891      2.399
REMARK INTER + INTRA:         -11.643
REMARK INTER:                 -10.629
REMARK INTRA:                  -1.014
REMARK UNBOUND:                -1.184
REMARK  Name = 
REMARK  8 active torsions:
REMARK  status: ('A' for Active; 'I' for Inactive)
REMARK    1  A    between atoms: C_1  and  C_2
REMARK    2  A    between atoms: C_7  and  C_8
REMARK    3  A    between atoms: C_8  and  N_9
REMARK    4  A    between atoms: N_9  and  C_10
REMARK    5  A    between atoms: C_10  and  C_11
REMARK    6  A    between atoms: C_14  and  C_15
REMARK    7  A    between atoms: C_15  and  N_16
REMARK    8  A    between atoms: C_17  and  C_19
REMARK                            x       y       z     vdW  Elec       q    Type
REMARK                         _______ _______ _______ _____ _____    ______ ____
ROOT
ATOM      1  C   UNL     1      45.447   5.002  12.226  0.00  0.00    +0.000 A 
ATOM      2  C   UNL     1      45.500   6.200  11.513  0.00  0.00    +0.000 A 
ATOM      3  C   UNL     1      46.423   7.174  11.890  0.00  0.00    +0.000 A 
ATOM      4  C   UNL     1      47.280   6.938  12.966  0.00  0.00    +0.000 A 
ATOM      5  C   UNL     1      47.134   5.730  13.638  0.00  0.00    +0.000 A 
ATOM      6  N   UNL     1      46.250   4.763  13.293  0.00  0.00    +0.000 NA
ENDROOT
BRANCH   1   7
ATOM      7  C   UNL     1      44.481   3.904  11.821  0.00  0.00    +0.000 C 
BRANCH   7   8
ATOM      8  N   UNL     1      45.078   2.803  11.051  0.00  0.00    +0.000 NA
ATOM      9  H   UNL     1      46.074   2.988  10.936  0.00  0.00    +0.000 HD
BRANCH   8  10
ATOM     10  C   UNL     1      44.492   2.667   9.712  0.00  0.00    +0.000 C 
BRANCH  10  17
ATOM     11  C   UNL     1      46.002   4.903   8.242  0.00  0.00    +0.000 C 
ATOM     12  C   UNL     1      46.274   3.445   8.003  0.00  0.00    +0.000 A 
ATOM     13  C   UNL     1      47.250   3.100   7.048  0.00  0.00    +0.000 A 
ATOM     14  C   UNL     1      47.550   1.767   6.769  0.00  0.00    +0.000 A 
ATOM     15  C   UNL     1      46.872   0.755   7.434  0.00  0.00    +0.000 A 
ATOM     16  C   UNL     1      45.896   1.078   8.375  0.00  0.00    +0.000 A 
ATOM     17  C   UNL     1      45.582   2.417   8.681  0.00  0.00    +0.000 A 
ENDBRANCH  10  17
ENDBRANCH   8  10
ENDBRANCH   7   8
ENDBRANCH   1   7
BRANCH   4  18
ATOM     18  C   UNL     1      48.303   7.945  13.404  0.00  0.00    +0.000 C 
BRANCH  18  19
ATOM     19  N   UNL     1      49.402   7.320  14.096  0.00  0.00    +0.000 N 
ATOM     20  C   UNL     1      49.579   7.488  15.446  0.00  0.00    +0.000 C 
ATOM     21  O   UNL     1      48.789   8.133  16.131  0.00  0.00    +0.000 OA
ATOM     22  H   UNL     1      50.179   6.989  13.533  0.00  0.00    +0.000 HD
BRANCH  20  23
ATOM     23  C   UNL     1      50.732   6.805  16.047  0.00  0.00    +0.000 A 
ATOM     24  C   UNL     1      52.016   7.266  15.796  0.00  0.00    +0.000 A 
ATOM     25  S   UNL     1      53.231   6.388  16.610  0.00  0.00    +0.000 S 
ATOM     26  C   UNL     1      52.087   5.322  17.283  0.00  0.00    +0.000 A 
ATOM     27  N   UNL     1      52.473   4.289  18.077  0.00  0.00    +0.000 NA
ATOM     28  C   UNL     1      51.504   3.541  18.490  0.00  0.00    +0.000 A 
ATOM     29  N   UNL     1      50.182   3.739  18.186  0.00  0.00    +0.000 N 
ATOM     30  C   UNL     1      49.742   4.790  17.417  0.00  0.00    +0.000 A 
ATOM     31  O   UNL     1      48.547   4.971  17.207  0.00  0.00    +0.000 OA
ATOM     32  C   UNL     1      50.794   5.648  16.913  0.00  0.00    +0.000 A 
ATOM     33  H   UNL     1      49.469   3.123  18.549  0.00  0.00    +0.000 HD
ENDBRANCH  20  23
ENDBRANCH  18  19
ENDBRANCH   4  18
TORSDOF 7
ENDMDL
MODEL 5
REMARK VINA RESULT:    -7.245      1.656      2.279
REMARK INTER + INTRA:         -11.394
REMARK INTER:                 -10.429
REMARK INTRA:                  -0.965
REMARK UNBOUND:                -1.184
REMARK  Name = 
REMARK  8 active torsions:
REMARK  status: ('A' for Active; 'I' for Inactive)
REMARK    1  A    between atoms: C_1  and  C_2
REMARK    2  A    between atoms: C_7  and  C_8
REMARK    3  A    between atoms: C_8  and  N_9
REMARK    4  A    between atoms: N_9  and  C_10
REMARK    5  A    between atoms: C_10  and  C_11
REMARK    6  A    between atoms: C_14  and  C_15
REMARK    7  A    between atoms: C_15  and  N_16
REMARK    8  A    between atoms: C_17  and  C_19
REMARK                            x       y       z     vdW  Elec       q    Type
REMARK                         _______ _______ _______ _____ _____    ______ ____
ROOT
ATOM      1  C   UNL     1      46.213   5.861  11.679  0.00  0.00    +0.000 A 
ATOM      2  C   UNL     1      47.007   6.913  11.224  0.00  0.00    +0.000 A 
ATOM      3  C   UNL     1      47.909   7.513  12.102  0.00  0.00    +0.000 A 
ATOM      4  C   UNL     1      48.008   7.053  13.416  0.00  0.00    +0.000 A 
ATOM      5  C   UNL     1      47.154   6.022  13.791  0.00  0.00    +0.000 A 
ATOM      6  N   UNL     1      46.271   5.417  12.960  0.00  0.00    +0.000 NA
ENDROOT
BRANCH   1   7
ATOM      7  C   UNL     1      45.248   5.160  10.741  0.00  0.00    +0.000 C 
BRANCH   7   8
ATOM      8  N   UNL     1      45.513   5.365   9.310  0.00  0.00    +0.000 NA
ATOM      9  H   UNL     1      45.208   6.303   9.052  0.00  0.00    +0.000 HD
BRANCH   8  10
ATOM     10  C   UNL     1      44.790   4.411   8.459  0.00  0.00    +0.000 C 
BRANCH  10  17
ATOM     11  C   UNL     1      44.501   1.460   9.264  0.00  0.00    +0.000 C 
ATOM     12  C   UNL     1      45.594   1.953   8.358  0.00  0.00    +0.000 A 
ATOM     13  C   UNL     1      46.532   1.017   7.881  0.00  0.00    +0.000 A 
ATOM     14  C   UNL     1      47.577   1.404   7.043  0.00  0.00    +0.000 A 
ATOM     15  C   UNL     1      47.708   2.736   6.674  0.00  0.00    +0.000 A 
ATOM     16  C   UNL     1      46.795   3.677   7.146  0.00  0.00    +0.000 A 
ATOM     17  C   UNL     1      45.725   3.309   7.986  0.00  0.00    +0.000 A 
ENDBRANCH  10  17
ENDBRANCH   8  10
ENDBRANCH   7   8
ENDBRANCH   1   7
BRANCH   4  18
ATOM     18  C   UNL     1      48.971   7.652  14.398  0.00  0.00    +0.000 C 
BRANCH  18  19
ATOM     19  N   UNL     1      48.646   7.285  15.753  0.00  0.00    +0.000 N 
ATOM     20  C   UNL     1      49.090   8.028  16.817  0.00  0.00    +0.000 C 
ATOM     21  O   UNL     1      49.739   9.061  16.664  0.00  0.00    +0.000 OA
ATOM     22  H   UNL     1      48.323   6.335  15.914  0.00  0.00    +0.000 HD
BRANCH  20  23
ATOM     23  C   UNL     1      48.698   7.562  18.154  0.00  0.00    +0.000 A 
ATOM     24  C   UNL     1      48.127   8.450  19.054  0.00  0.00    +0.000 A 
ATOM     25  S   UNL     1      47.689   7.732  20.539  0.00  0.00    +0.000 S 
ATOM     26  C   UNL     1      48.301   6.220  20.052  0.00  0.00    +0.000 A 
ATOM     27  N   UNL     1      48.267   5.149  20.886  0.00  0.00    +0.000 NA
ATOM     28  C   UNL     1      48.795   4.075  20.399  0.00  0.00    +0.000 A 
ATOM     29  N   UNL     1      49.348   3.975  19.148  0.00  0.00    +0.000 N 
ATOM     30  C   UNL     1      49.372   5.023  18.258  0.00  0.00    +0.000 A 
ATOM     31  O   UNL     1      49.825   4.887  17.126  0.00  0.00    +0.000 OA
ATOM     32  C   UNL     1      48.808   6.256  18.764  0.00  0.00    +0.000 A 
ATOM     33  H   UNL     1      49.738   3.103  18.822  0.00  0.00    +0.000 HD
ENDBRANCH  20  23
ENDBRANCH  18  19
ENDBRANCH   4  18
TORSDOF 7
ENDMDL
MODEL 6
REMARK VINA RESULT:    -7.156      3.163      8.719
REMARK INTER + INTRA:         -11.269
REMARK INTER:                  -9.949
REMARK INTRA:                  -1.321
REMARK UNBOUND:                -1.184
REMARK  Name = 
REMARK  8 active torsions:
REMARK  status: ('A' for Active; 'I' for Inactive)
REMARK    1  A    between atoms: C_1  and  C_2
REMARK    2  A    between atoms: C_7  and  C_8
REMARK    3  A    between atoms: C_8  and  N_9
REMARK    4  A    between atoms: N_9  and  C_10
REMARK    5  A    between atoms: C_10  and  C_11
REMARK    6  A    between atoms: C_14  and  C_15
REMARK    7  A    between atoms: C_15  and  N_16
REMARK    8  A    between atoms: C_17  and  C_19
REMARK                            x       y       z     vdW  Elec       q    Type
REMARK                         _______ _______ _______ _____ _____    ______ ____
ROOT
ATOM      1  C   UNL     1      49.332   7.722  15.801  0.00  0.00    +0.000 A 
ATOM      2  C   UNL     1      48.625   8.886  15.503  0.00  0.00    +0.000 A 
ATOM      3  C   UNL     1      47.912   8.960  14.307  0.00  0.00    +0.000 A 
ATOM      4  C   UNL     1      47.912   7.874  13.432  0.00  0.00    +0.000 A 
ATOM      5  C   UNL     1      48.671   6.768  13.796  0.00  0.00    +0.000 A 
ATOM      6  N   UNL     1      49.371   6.665  14.952  0.00  0.00    +0.000 NA
ENDROOT
BRANCH   1   7
ATOM      7  C   UNL     1      50.089   7.592  17.111  0.00  0.00    +0.000 C 
BRANCH   7   8
ATOM      8  N   UNL     1      49.245   7.413  18.301  0.00  0.00    +0.000 NA
ATOM      9  H   UNL     1      49.406   8.193  18.936  0.00  0.00    +0.000 HD
BRANCH   8  10
ATOM     10  C   UNL     1      49.552   6.175  19.030  0.00  0.00    +0.000 C 
BRANCH  10  17
ATOM     11  C   UNL     1      51.347   3.890  18.031  0.00  0.00    +0.000 C 
ATOM     12  C   UNL     1      49.862   3.918  17.801  0.00  0.00    +0.000 A 
ATOM     13  C   UNL     1      49.283   2.857  17.077  0.00  0.00    +0.000 A 
ATOM     14  C   UNL     1      47.913   2.821  16.820  0.00  0.00    +0.000 A 
ATOM     15  C   UNL     1      47.099   3.851  17.273  0.00  0.00    +0.000 A 
ATOM     16  C   UNL     1      47.657   4.913  17.981  0.00  0.00    +0.000 A 
ATOM     17  C   UNL     1      49.037   4.967  18.262  0.00  0.00    +0.000 A 
ENDBRANCH  10  17
ENDBRANCH   8  10
ENDBRANCH   7   8
ENDBRANCH   1   7
BRANCH   4  18
ATOM     18  C   UNL     1      47.149   7.894  12.140  0.00  0.00    +0.000 C 
BRANCH  18  19
ATOM     19  N   UNL     1      46.549   6.614  11.857  0.00  0.00    +0.000 N 
ATOM     20  C   UNL     1      45.197   6.491  11.661  0.00  0.00    +0.000 C 
ATOM     21  O   UNL     1      44.447   7.464  11.668  0.00  0.00    +0.000 OA
ATOM     22  H   UNL     1      47.095   5.785  12.074  0.00  0.00    +0.000 HD
BRANCH  20  23
ATOM     23  C   UNL     1      44.694   5.140  11.380  0.00  0.00    +0.000 A 
ATOM     24  C   UNL     1      43.930   4.476  12.328  0.00  0.00    +0.000 A 
ATOM     25  S   UNL     1      43.389   2.940  11.820  0.00  0.00    +0.000 S 
ATOM     26  C   UNL     1      44.206   3.083  10.334  0.00  0.00    +0.000 A 
ATOM     27  N   UNL     1      44.180   2.078   9.420  0.00  0.00    +0.000 NA
ATOM     28  C   UNL     1      44.870   2.308   8.352  0.00  0.00    +0.000 A 
ATOM     29  N   UNL     1      45.579   3.458   8.114  0.00  0.00    +0.000 N 
ATOM     30  C   UNL     1      45.605   4.514   8.994  0.00  0.00    +0.000 A 
ATOM     31  O   UNL     1      46.205   5.551   8.728  0.00  0.00    +0.000 OA
ATOM     32  C   UNL     1      44.861   4.297  10.216  0.00  0.00    +0.000 A 
ATOM     33  H   UNL     1      46.092   3.581   7.253  0.00  0.00    +0.000 HD
ENDBRANCH  20  23
ENDBRANCH  18  19
ENDBRANCH   4  18
TORSDOF 7
ENDMDL
MODEL 7
REMARK VINA RESULT:    -6.574      2.885      4.301
REMARK INTER + INTRA:         -10.449
REMARK INTER:                  -9.452
REMARK INTRA:                  -0.997
REMARK UNBOUND:                -1.184
REMARK  Name = 
REMARK  8 active torsions:
REMARK  status: ('A' for Active; 'I' for Inactive)
REMARK    1  A    between atoms: C_1  and  C_2
REMARK    2  A    between atoms: C_7  and  C_8
REMARK    3  A    between atoms: C_8  and  N_9
REMARK    4  A    between atoms: N_9  and  C_10
REMARK    5  A    between atoms: C_10  and  C_11
REMARK    6  A    between atoms: C_14  and  C_15
REMARK    7  A    between atoms: C_15  and  N_16
REMARK    8  A    between atoms: C_17  and  C_19
REMARK                            x       y       z     vdW  Elec       q    Type
REMARK                         _______ _______ _______ _____ _____    ______ ____
ROOT
ATOM      1  C   UNL     1      47.781   7.013  13.018  0.00  0.00    +0.000 A 
ATOM      2  C   UNL     1      47.650   6.403  14.265  0.00  0.00    +0.000 A 
ATOM      3  C   UNL     1      48.655   6.579  15.216  0.00  0.00    +0.000 A 
ATOM      4  C   UNL     1      49.769   7.362  14.911  0.00  0.00    +0.000 A 
ATOM      5  C   UNL     1      49.830   7.904  13.633  0.00  0.00    +0.000 A 
ATOM      6  N   UNL     1      48.869   7.755  12.689  0.00  0.00    +0.000 NA
ENDROOT
BRANCH   1   7
ATOM      7  C   UNL     1      46.690   6.874  11.972  0.00  0.00    +0.000 C 
BRANCH   7   8
ATOM      8  N   UNL     1      45.936   5.614  12.025  0.00  0.00    +0.000 NA
ATOM      9  H   UNL     1      46.550   4.852  11.738  0.00  0.00    +0.000 HD
BRANCH   8  10
ATOM     10  C   UNL     1      44.775   5.612  11.126  0.00  0.00    +0.000 C 
BRANCH  10  17
ATOM     11  C   UNL     1      43.532   2.825  11.484  0.00  0.00    +0.000 C 
ATOM     12  C   UNL     1      44.330   3.210  10.270  0.00  0.00    +0.000 A 
ATOM     13  C   UNL     1      44.527   2.238   9.270  0.00  0.00    +0.000 A 
ATOM     14  C   UNL     1      45.263   2.522   8.120  0.00  0.00    +0.000 A 
ATOM     15  C   UNL     1      45.823   3.782   7.954  0.00  0.00    +0.000 A 
ATOM     16  C   UNL     1      45.647   4.752   8.938  0.00  0.00    +0.000 A 
ATOM     17  C   UNL     1      44.899   4.492  10.104  0.00  0.00    +0.000 A 
ENDBRANCH  10  17
ENDBRANCH   8  10
ENDBRANCH   7   8
ENDBRANCH   1   7
BRANCH   4  18
ATOM     18  C   UNL     1      50.871   7.598  15.902  0.00  0.00    +0.000 C 
BRANCH  18  19
ATOM     19  N   UNL     1      51.512   6.365  16.286  0.00  0.00    +0.000 N 
ATOM     20  C   UNL     1      51.937   6.157  17.574  0.00  0.00    +0.000 C 
ATOM     21  O   UNL     1      51.749   6.983  18.464  0.00  0.00    +0.000 OA
ATOM     22  H   UNL     1      51.882   5.781  15.543  0.00  0.00    +0.000 HD
BRANCH  20  23
ATOM     23  C   UNL     1      52.578   4.865  17.853  0.00  0.00    +0.000 A 
ATOM     24  C   UNL     1      53.905   4.824  18.254  0.00  0.00    +0.000 A 
ATOM     25  S   UNL     1      54.474   3.250  18.582  0.00  0.00    +0.000 S 
ATOM     26  C   UNL     1      52.981   2.560  18.145  0.00  0.00    +0.000 A 
ATOM     27  N   UNL     1      52.797   1.214  18.170  0.00  0.00    +0.000 NA
ATOM     28  C   UNL     1      51.627   0.827  17.782  0.00  0.00    +0.000 A 
ATOM     29  N   UNL     1      50.622   1.667  17.377  0.00  0.00    +0.000 N 
ATOM     30  C   UNL     1      50.752   3.036  17.369  0.00  0.00    +0.000 A 
ATOM     31  O   UNL     1      49.816   3.763  17.053  0.00  0.00    +0.000 OA
ATOM     32  C   UNL     1      52.053   3.519  17.779  0.00  0.00    +0.000 A 
ATOM     33  H   UNL     1      49.725   1.302  17.093  0.00  0.00    +0.000 HD
ENDBRANCH  20  23
ENDBRANCH  18  19
ENDBRANCH   4  18
TORSDOF 7
ENDMDL
MODEL 8
REMARK VINA RESULT:    -6.476      2.351      3.926
REMARK INTER + INTRA:         -10.311
REMARK INTER:                  -9.612
REMARK INTRA:                  -0.699
REMARK UNBOUND:                -1.184
REMARK  Name = 
REMARK  8 active torsions:
REMARK  status: ('A' for Active; 'I' for Inactive)
REMARK    1  A    between atoms: C_1  and  C_2
REMARK    2  A    between atoms: C_7  and  C_8
REMARK    3  A    between atoms: C_8  and  N_9
REMARK    4  A    between atoms: N_9  and  C_10
REMARK    5  A    between atoms: C_10  and  C_11
REMARK    6  A    between atoms: C_14  and  C_15
REMARK    7  A    between atoms: C_15  and  N_16
REMARK    8  A    between atoms: C_17  and  C_19
REMARK                            x       y       z     vdW  Elec       q    Type
REMARK                         _______ _______ _______ _____ _____    ______ ____
ROOT
ATOM      1  C   UNL     1      46.215   7.915  12.308  0.00  0.00    +0.000 A 
ATOM      2  C   UNL     1      47.167   7.024  11.814  0.00  0.00    +0.000 A 
ATOM      3  C   UNL     1      48.364   6.855  12.510  0.00  0.00    +0.000 A 
ATOM      4  C   UNL     1      48.590   7.572  13.686  0.00  0.00    +0.000 A 
ATOM      5  C   UNL     1      47.599   8.461  14.085  0.00  0.00    +0.000 A 
ATOM      6  N   UNL     1      46.425   8.644  13.433  0.00  0.00    +0.000 NA
ENDROOT
BRANCH   1   7
ATOM      7  C   UNL     1      44.886   8.097  11.598  0.00  0.00    +0.000 C 
BRANCH   7   8
ATOM      8  N   UNL     1      44.542   7.034  10.642  0.00  0.00    +0.000 NA
ATOM      9  H   UNL     1      43.689   7.299  10.152  0.00  0.00    +0.000 HD
BRANCH   8  10
ATOM     10  C   UNL     1      44.297   5.743  11.297  0.00  0.00    +0.000 C 
BRANCH  10  17
ATOM     11  C   UNL     1      43.358   2.852  11.745  0.00  0.00    +0.000 C 
ATOM     12  C   UNL     1      44.161   3.269  10.546  0.00  0.00    +0.000 A 
ATOM     13  C   UNL     1      44.509   2.281   9.604  0.00  0.00    +0.000 A 
ATOM     14  C   UNL     1      45.259   2.595   8.471  0.00  0.00    +0.000 A 
ATOM     15  C   UNL     1      45.682   3.901   8.264  0.00  0.00    +0.000 A 
ATOM     16  C   UNL     1      45.355   4.889   9.191  0.00  0.00    +0.000 A 
ATOM     17  C   UNL     1      44.590   4.599  10.339  0.00  0.00    +0.000 A 
ENDBRANCH  10  17
ENDBRANCH   8  10
ENDBRANCH   7   8
ENDBRANCH   1   7
BRANCH   4  18
ATOM     18  C   UNL     1      49.852   7.417  14.482  0.00  0.00    +0.000 C 
BRANCH  18  19
ATOM     19  N   UNL     1      49.578   7.277  15.891  0.00  0.00    +0.000 N 
ATOM     20  C   UNL     1      48.970   6.152  16.388  0.00  0.00    +0.000 C 
ATOM     21  O   UNL     1      48.678   5.198  15.670  0.00  0.00    +0.000 OA
ATOM     22  H   UNL     1      49.592   8.122  16.454  0.00  0.00    +0.000 HD
BRANCH  20  23
ATOM     23  C   UNL     1      48.740   6.117  17.838  0.00  0.00    +0.000 A 
ATOM     24  C   UNL     1      48.981   4.949  18.547  0.00  0.00    +0.000 A 
ATOM     25  S   UNL     1      48.708   5.098  20.225  0.00  0.00    +0.000 S 
ATOM     26  C   UNL     1      48.201   6.714  20.055  0.00  0.00    +0.000 A 
ATOM     27  N   UNL     1      47.790   7.436  21.130  0.00  0.00    +0.000 NA
ATOM     28  C   UNL     1      47.402   8.636  20.851  0.00  0.00    +0.000 A 
ATOM     29  N   UNL     1      47.396   9.182  19.593  0.00  0.00    +0.000 N 
ATOM     30  C   UNL     1      47.837   8.501  18.483  0.00  0.00    +0.000 A 
ATOM     31  O   UNL     1      47.870   9.035  17.379  0.00  0.00    +0.000 OA
ATOM     32  C   UNL     1      48.266   7.142  18.741  0.00  0.00    +0.000 A 
ATOM     33  H   UNL     1      47.089  10.131  19.442  0.00  0.00    +0.000 HD
ENDBRANCH  20  23
ENDBRANCH  18  19
ENDBRANCH   4  18
TORSDOF 7
ENDMDL
MODEL 9
REMARK VINA RESULT:    -6.406      3.577      8.831
REMARK INTER + INTRA:         -10.212
REMARK INTER:                  -9.519
REMARK INTRA:                  -0.692
REMARK UNBOUND:                -1.184
REMARK  Name = 
REMARK  8 active torsions:
REMARK  status: ('A' for Active; 'I' for Inactive)
REMARK    1  A    between atoms: C_1  and  C_2
REMARK    2  A    between atoms: C_7  and  C_8
REMARK    3  A    between atoms: C_8  and  N_9
REMARK    4  A    between atoms: N_9  and  C_10
REMARK    5  A    between atoms: C_10  and  C_11
REMARK    6  A    between atoms: C_14  and  C_15
REMARK    7  A    between atoms: C_15  and  N_16
REMARK    8  A    between atoms: C_17  and  C_19
REMARK                            x       y       z     vdW  Elec       q    Type
REMARK                         _______ _______ _______ _____ _____    ______ ____
ROOT
ATOM      1  C   UNL     1      48.925   5.303  17.198  0.00  0.00    +0.000 A 
ATOM      2  C   UNL     1      49.695   6.403  16.821  0.00  0.00    +0.000 A 
ATOM      3  C   UNL     1      49.481   6.985  15.573  0.00  0.00    +0.000 A 
ATOM      4  C   UNL     1      48.503   6.466  14.724  0.00  0.00    +0.000 A 
ATOM      5  C   UNL     1      47.807   5.348  15.170  0.00  0.00    +0.000 A 
ATOM      6  N   UNL     1      47.989   4.763  16.378  0.00  0.00    +0.000 NA
ENDROOT
BRANCH   1   7
ATOM      7  C   UNL     1      49.106   4.666  18.565  0.00  0.00    +0.000 C 
BRANCH   7   8
ATOM      8  N   UNL     1      50.345   3.894  18.731  0.00  0.00    +0.000 NA
ATOM      9  H   UNL     1      51.134   4.540  18.743  0.00  0.00    +0.000 HD
BRANCH   8  10
ATOM     10  C   UNL     1      50.568   2.940  17.637  0.00  0.00    +0.000 C 
BRANCH  10  17
ATOM     11  C   UNL     1      53.086   4.699  17.676  0.00  0.00    +0.000 C 
ATOM     12  C   UNL     1      53.142   3.198  17.710  0.00  0.00    +0.000 A 
ATOM     13  C   UNL     1      54.409   2.582  17.741  0.00  0.00    +0.000 A 
ATOM     14  C   UNL     1      54.537   1.194  17.767  0.00  0.00    +0.000 A 
ATOM     15  C   UNL     1      53.401   0.396  17.754  0.00  0.00    +0.000 A 
ATOM     16  C   UNL     1      52.140   0.989  17.712  0.00  0.00    +0.000 A 
ATOM     17  C   UNL     1      51.984   2.389  17.695  0.00  0.00    +0.000 A 
ENDBRANCH  10  17
ENDBRANCH   8  10
ENDBRANCH   7   8
ENDBRANCH   1   7
BRANCH   4  18
ATOM     18  C   UNL     1      48.220   7.064  13.377  0.00  0.00    +0.000 C 
BRANCH  18  19
ATOM     19  N   UNL     1      47.495   6.148  12.531  0.00  0.00    +0.000 N 
ATOM     20  C   UNL     1      46.407   6.562  11.806  0.00  0.00    +0.000 C 
ATOM     21  O   UNL     1      46.031   7.732  11.804  0.00  0.00    +0.000 OA
ATOM     22  H   UNL     1      47.634   5.156  12.693  0.00  0.00    +0.000 HD
BRANCH  20  23
ATOM     23  C   UNL     1      45.745   5.545  10.978  0.00  0.00    +0.000 A 
ATOM     24  C   UNL     1      45.810   5.631   9.595  0.00  0.00    +0.000 A 
ATOM     25  S   UNL     1      45.029   4.345   8.790  0.00  0.00    +0.000 S 
ATOM     26  C   UNL     1      44.527   3.656  10.263  0.00  0.00    +0.000 A 
ATOM     27  N   UNL     1      43.773   2.526  10.287  0.00  0.00    +0.000 NA
ATOM     28  C   UNL     1      43.436   2.133  11.471  0.00  0.00    +0.000 A 
ATOM     29  N   UNL     1      43.791   2.767  12.634  0.00  0.00    +0.000 N 
ATOM     30  C   UNL     1      44.581   3.892  12.659  0.00  0.00    +0.000 A 
ATOM     31  O   UNL     1      44.927   4.405  13.719  0.00  0.00    +0.000 OA
ATOM     32  C   UNL     1      44.971   4.383  11.354  0.00  0.00    +0.000 A 
ATOM     33  H   UNL     1      43.502   2.404  13.531  0.00  0.00    +0.000 HD
ENDBRANCH  20  23
ENDBRANCH  18  19
ENDBRANCH   4  18
TORSDOF 7
ENDMDL
