MODEL 1
REMARK VINA RESULT:    -7.771      0.000      0.000
REMARK INTER + INTRA:         -10.876
REMARK INTER:                 -10.270
REMARK INTRA:                  -0.606
REMARK UNBOUND:                -0.606
REMARK  Name = 
REMARK  6 active torsions:
REMARK  status: ('A' for Active; 'I' for Inactive)
REMARK    1  A    between atoms: N_1  and  C_2
REMARK    2  A    between atoms: C_2  and  C_3
REMARK    3  A    between atoms: C_6  and  O_7
REMARK    4  A    between atoms: O_7  and  C_8
REMARK    5  A    between atoms: C_8  and  C_9
REMARK    6  A    between atoms: C_9  and  C_12
REMARK                            x       y       z     vdW  Elec       q    Type
REMARK                         _______ _______ _______ _____ _____    ______ ____
ROOT
ATOM      1  C   UNL     1      46.560   2.332   7.653  0.00  0.00    +0.000 A 
ATOM      2  C   UNL     1      46.405   3.723   7.593  0.00  0.00    +0.000 A 
ATOM      3  C   UNL     1      45.402   4.363   8.333  0.00  0.00    +0.000 A 
ATOM      4  C   UNL     1      44.534   3.626   9.144  0.00  0.00    +0.000 A 
ATOM      5  C   UNL     1      44.683   2.236   9.189  0.00  0.00    +0.000 A 
ATOM      6  F   UNL     1      43.880   1.464   9.934  0.00  0.00    +0.000 F 
ATOM      7  C   UNL     1      45.681   1.597   8.457  0.00  0.00    +0.000 A 
ENDROOT
BRANCH   1   8
ATOM      8  C   UNL     1      47.654   1.635   6.890  0.00  0.00    +0.000 C 
BRANCH   8   9
ATOM      9  N   UNL     1      48.642   2.583   6.391  0.00  0.00    +0.000 NA
ATOM     10  H   UNL     1      48.578   3.446   6.928  0.00  0.00    +0.000 HD
ATOM     11  H   UNL     1      48.409   2.826   5.428  0.00  0.00    +0.000 HD
ENDBRANCH   8   9
ENDBRANCH   1   8
BRANCH   4  12
ATOM     12  O   UNL     1      43.611   4.381   9.821  0.00  0.00    +0.000 OA
BRANCH  12  13
ATOM     13  C   UNL     1      43.528   4.156  11.239  0.00  0.00    +0.000 C 
BRANCH  13  14
ATOM     14  C   UNL     1      43.656   5.471  12.021  0.00  0.00    +0.000 C 
ATOM     15  F   UNL     1      43.081   6.480  11.298  0.00  0.00    +0.000 F 
ATOM     16  F   UNL     1      42.901   5.373  13.161  0.00  0.00    +0.000 F 
BRANCH  14  17
ATOM     17  C   UNL     1      45.120   5.773  12.336  0.00  0.00    +0.000 A 
ATOM     18  C   UNL     1      45.857   6.572  11.461  0.00  0.00    +0.000 A 
ATOM     19  C   UNL     1      47.197   6.828  11.743  0.00  0.00    +0.000 A 
ATOM     20  C   UNL     1      47.774   6.281  12.882  0.00  0.00    +0.000 A 
ATOM     21  C   UNL     1      46.983   5.494  13.699  0.00  0.00    +0.000 A 
ATOM     22  N   UNL     1      45.683   5.227  13.451  0.00  0.00    +0.000 NA
ENDBRANCH  14  17
ENDBRANCH  13  14
ENDBRANCH  12  13
ENDBRANCH   4  12
TORSDOF 6
ENDMDL
MODEL 2
REMARK VINA RESULT:    -7.172      1.533      2.228
REMARK INTER + INTRA:         -10.085
REMARK INTER:                  -9.486
REMARK INTRA:                  -0.599
REMARK UNBOUND:                -0.606
REMARK  Name = 
REMARK  6 active torsions:
REMARK  status: ('A' for Active; 'I' for Inactive)
REMARK    1  A    between atoms: N_1  and  C_2
REMARK    2  A    between atoms: C_2  and  C_3
REMARK    3  A    between atoms: C_6  and  O_7
REMARK    4  A    between atoms: O_7  and  C_8
REMARK    5  A    between atoms: C_8  and  C_9
REMARK    6  A    between atoms: C_9  and  C_12
REMARK                            x       y       z     vdW  Elec       q    Type
REMARK                         _______ _______ _______ _____ _____    ______ ____
ROOT
ATOM      1  C   UNL     1      46.474   1.975   7.780  0.00  0.00    +0.000 A 
ATOM      2  C   UNL     1      45.418   1.444   8.533  0.00  0.00    +0.000 A 
ATOM      3  C   UNL     1      44.564   2.285   9.256  0.00  0.00    +0.000 A 
ATOM      4  C   UNL     1      44.748   3.671   9.244  0.00  0.00    +0.000 A 
ATOM      5  C   UNL     1      45.812   4.195   8.503  0.00  0.00    +0.000 A 
ATOM      6  F   UNL     1      46.058   5.511   8.455  0.00  0.00    +0.000 F 
ATOM      7  C   UNL     1      46.663   3.362   7.780  0.00  0.00    +0.000 A 
ENDROOT
BRANCH   1   8
ATOM      8  C   UNL     1      47.381   1.086   6.971  0.00  0.00    +0.000 C 
BRANCH   8   9
ATOM      9  N   UNL     1      48.316   1.866   6.172  0.00  0.00    +0.000 NA
ATOM     10  H   UNL     1      47.870   2.124   5.293  0.00  0.00    +0.000 HD
ATOM     11  H   UNL     1      49.113   1.278   5.928  0.00  0.00    +0.000 HD
ENDBRANCH   8   9
ENDBRANCH   1   8
BRANCH   4  12
ATOM     12  O   UNL     1      43.830   4.373   9.984  0.00  0.00    +0.000 OA
BRANCH  12  13
ATOM     13  C   UNL     1      43.355   3.726  11.178  0.00  0.00    +0.000 C 
BRANCH  13  14
ATOM     14  C   UNL     1      44.263   4.034  12.377  0.00  0.00    +0.000 C 
ATOM     15  F   UNL     1      43.515   4.016  13.522  0.00  0.00    +0.000 F 
ATOM     16  F   UNL     1      45.158   3.004  12.518  0.00  0.00    +0.000 F 
BRANCH  14  17
ATOM     17  C   UNL     1      44.970   5.375  12.191  0.00  0.00    +0.000 A 
ATOM     18  C   UNL     1      46.364   5.425  12.225  0.00  0.00    +0.000 A 
ATOM     19  C   UNL     1      47.002   6.654  12.074  0.00  0.00    +0.000 A 
ATOM     20  C   UNL     1      46.243   7.803  11.901  0.00  0.00    +0.000 A 
ATOM     21  C   UNL     1      44.866   7.678  11.884  0.00  0.00    +0.000 A 
ATOM     22  N   UNL     1      44.219   6.502  12.028  0.00  0.00    +0.000 NA
ENDBRANCH  14  17
ENDBRANCH  13  14
ENDBRANCH  12  13
ENDBRANCH   4  12
TORSDOF 6
ENDMDL
MODEL 3
REMARK VINA RESULT:    -7.105      1.558      5.860
REMARK INTER + INTRA:          -9.996
REMARK INTER:                  -9.654
REMARK INTRA:                  -0.341
REMARK UNBOUND:                -0.606
REMARK  Name = 
REMARK  6 active torsions:
REMARK  status: ('A' for Active; 'I' for Inactive)
REMARK    1  A    between atoms: N_1  and  C_2
REMARK    2  A    between atoms: C_2  and  C_3
REMARK    3  A    between atoms: C_6  and  O_7
REMARK    4  A    between atoms: O_7  and  C_8
REMARK    5  A    between atoms: C_8  and  C_9
REMARK    6  A    between atoms: C_9  and  C_12
REMARK                            x       y       z     vdW  Elec       q    Type
REMARK                         _______ _______ _______ _____ _____    ______ ____
ROOT
ATOM      1  C   UNL     1      46.364   6.807  12.596  0.00  0.00    +0.000 A 
ATOM      2  C   UNL     1      46.465   6.616  11.211  0.00  0.00    +0.000 A 
ATOM      3  C   UNL     1      45.520   5.842  10.527  0.00  0.00    +0.000 A 
ATOM      4  C   UNL     1      44.458   5.242  11.211  0.00  0.00    +0.000 A 
ATOM      5  C   UNL     1      44.370   5.424  12.594  0.00  0.00    +0.000 A 
ATOM      6  F   UNL     1      43.387   4.870  13.318  0.00  0.00    +0.000 F 
ATOM      7  C   UNL     1      45.307   6.196  13.279  0.00  0.00    +0.000 A 
ENDROOT
BRANCH   1   8
ATOM      8  C   UNL     1      47.354   7.664  13.340  0.00  0.00    +0.000 C 
BRANCH   8   9
ATOM      9  N   UNL     1      46.698   8.791  13.990  0.00  0.00    +0.000 NA
ATOM     10  H   UNL     1      47.287   9.127  14.750  0.00  0.00    +0.000 HD
ATOM     11  H   UNL     1      45.832   8.466  14.419  0.00  0.00    +0.000 HD
ENDBRANCH   8   9
ENDBRANCH   1   8
BRANCH   4  12
ATOM     12  O   UNL     1      43.601   4.526  10.414  0.00  0.00    +0.000 OA
BRANCH  12  13
ATOM     13  C   UNL     1      44.161   4.000   9.198  0.00  0.00    +0.000 C 
BRANCH  13  14
ATOM     14  C   UNL     1      44.828   2.638   9.434  0.00  0.00    +0.000 C 
ATOM     15  F   UNL     1      45.412   2.632  10.671  0.00  0.00    +0.000 F 
ATOM     16  F   UNL     1      43.848   1.681   9.497  0.00  0.00    +0.000 F 
BRANCH  14  17
ATOM     17  C   UNL     1      45.844   2.335   8.335  0.00  0.00    +0.000 A 
ATOM     18  C   UNL     1      46.249   3.359   7.477  0.00  0.00    +0.000 A 
ATOM     19  C   UNL     1      47.161   3.073   6.463  0.00  0.00    +0.000 A 
ATOM     20  C   UNL     1      47.644   1.779   6.321  0.00  0.00    +0.000 A 
ATOM     21  C   UNL     1      47.193   0.815   7.204  0.00  0.00    +0.000 A 
ATOM     22  N   UNL     1      46.309   1.061   8.195  0.00  0.00    +0.000 NA
ENDBRANCH  14  17
ENDBRANCH  13  14
ENDBRANCH  12  13
ENDBRANCH   4  12
TORSDOF 6
ENDMDL
MODEL 4
REMARK VINA RESULT:    -6.834      2.054      6.162
REMARK INTER + INTRA:          -9.637
REMARK INTER:                  -9.102
REMARK INTRA:                  -0.535
REMARK UNBOUND:                -0.606
REMARK  Name = 
REMARK  6 active torsions:
REMARK  status: ('A' for Active; 'I' for Inactive)
REMARK    1  A    between atoms: N_1  and  C_2
REMARK    2  A    between atoms: C_2  and  C_3
REMARK    3  A    between atoms: C_6  and  O_7
REMARK    4  A    between atoms: O_7  and  C_8
REMARK    5  A    between atoms: C_8  and  C_9
REMARK    6  A    between atoms: C_9  and  C_12
REMARK                            x       y       z     vdW  Elec       q    Type
REMARK                         _______ _______ _______ _____ _____    ______ ____
ROOT
ATOM      1  C   UNL     1      46.967   5.031  14.315  0.00  0.00    +0.000 A 
ATOM      2  C   UNL     1      45.775   4.381  13.968  0.00  0.00    +0.000 A 
ATOM      3  C   UNL     1      45.164   4.623  12.731  0.00  0.00    +0.000 A 
ATOM      4  C   UNL     1      45.731   5.518  11.819  0.00  0.00    +0.000 A 
ATOM      5  C   UNL     1      46.912   6.174  12.176  0.00  0.00    +0.000 A 
ATOM      6  F   UNL     1      47.505   7.055  11.358  0.00  0.00    +0.000 F 
ATOM      7  C   UNL     1      47.524   5.935  13.404  0.00  0.00    +0.000 A 
ENDROOT
BRANCH   1   8
ATOM      8  C   UNL     1      47.652   4.756  15.628  0.00  0.00    +0.000 C 
BRANCH   8   9
ATOM      9  N   UNL     1      47.483   3.367  16.035  0.00  0.00    +0.000 NA
ATOM     10  H   UNL     1      46.968   2.867  15.312  0.00  0.00    +0.000 HD
ATOM     11  H   UNL     1      46.905   3.337  16.874  0.00  0.00    +0.000 HD
ENDBRANCH   8   9
ENDBRANCH   1   8
BRANCH   4  12
ATOM     12  O   UNL     1      45.035   5.646  10.643  0.00  0.00    +0.000 OA
BRANCH  12  13
ATOM     13  C   UNL     1      45.665   5.096   9.473  0.00  0.00    +0.000 C 
BRANCH  13  14
ATOM     14  C   UNL     1      44.881   3.891   8.933  0.00  0.00    +0.000 C 
ATOM     15  F   UNL     1      44.337   3.203   9.983  0.00  0.00    +0.000 F 
ATOM     16  F   UNL     1      43.809   4.357   8.217  0.00  0.00    +0.000 F 
BRANCH  14  17
ATOM     17  C   UNL     1      45.783   2.996   8.085  0.00  0.00    +0.000 A 
ATOM     18  C   UNL     1      46.370   3.514   6.931  0.00  0.00    +0.000 A 
ATOM     19  C   UNL     1      47.176   2.688   6.150  0.00  0.00    +0.000 A 
ATOM     20  C   UNL     1      47.372   1.367   6.529  0.00  0.00    +0.000 A 
ATOM     21  C   UNL     1      46.752   0.920   7.683  0.00  0.00    +0.000 A 
ATOM     22  N   UNL     1      45.966   1.697   8.458  0.00  0.00    +0.000 NA
ENDBRANCH  14  17
ENDBRANCH  13  14
ENDBRANCH  12  13
ENDBRANCH   4  12
TORSDOF 6
ENDMDL
MODEL 5
REMARK VINA RESULT:    -6.782      1.761      6.140
REMARK INTER + INTRA:          -9.569
REMARK INTER:                  -8.980
REMARK INTRA:                  -0.589
REMARK UNBOUND:                -0.606
REMARK  Name = 
REMARK  6 active torsions:
REMARK  status: ('A' for Active; 'I' for Inactive)
REMARK    1  A    between atoms: N_1  and  C_2
REMARK    2  A    between atoms: C_2  and  C_3
REMARK    3  A    between atoms: C_6  and  O_7
REMARK    4  A    between atoms: O_7  and  C_8
REMARK    5  A    between atoms: C_8  and  C_9
REMARK    6  A    between atoms: C_9  and  C_12
REMARK                            x       y       z     vdW  Elec       q    Type
REMARK                         _______ _______ _______ _____ _____    ______ ____
ROOT
ATOM      1  C   UNL     1      45.844   7.543  12.721  0.00  0.00    +0.000 A 
ATOM      2  C   UNL     1      46.522   6.368  13.072  0.00  0.00    +0.000 A 
ATOM      3  C   UNL     1      46.029   5.116  12.684  0.00  0.00    +0.000 A 
ATOM      4  C   UNL     1      44.849   5.013  11.940  0.00  0.00    +0.000 A 
ATOM      5  C   UNL     1      44.169   6.188  11.605  0.00  0.00    +0.000 A 
ATOM      6  F   UNL     1      43.026   6.166  10.905  0.00  0.00    +0.000 F 
ATOM      7  C   UNL     1      44.658   7.435  11.986  0.00  0.00    +0.000 A 
ENDROOT
BRANCH   1   8
ATOM      8  C   UNL     1      46.381   8.897  13.102  0.00  0.00    +0.000 C 
BRANCH   8   9
ATOM      9  N   UNL     1      47.093   8.848  14.372  0.00  0.00    +0.000 NA
ATOM     10  H   UNL     1      46.538   8.325  15.047  0.00  0.00    +0.000 HD
ATOM     11  H   UNL     1      47.177   9.796  14.741  0.00  0.00    +0.000 HD
ENDBRANCH   8   9
ENDBRANCH   1   8
BRANCH   4  12
ATOM     12  O   UNL     1      44.491   3.729  11.618  0.00  0.00    +0.000 OA
BRANCH  12  13
ATOM     13  C   UNL     1      45.352   3.048  10.689  0.00  0.00    +0.000 C 
BRANCH  13  14
ATOM     14  C   UNL     1      44.650   2.820   9.342  0.00  0.00    +0.000 C 
ATOM     15  F   UNL     1      43.845   1.718   9.437  0.00  0.00    +0.000 F 
ATOM     16  F   UNL     1      43.797   3.869   9.116  0.00  0.00    +0.000 F 
BRANCH  14  17
ATOM     17  C   UNL     1      45.673   2.671   8.218  0.00  0.00    +0.000 A 
ATOM     18  C   UNL     1      46.387   1.478   8.096  0.00  0.00    +0.000 A 
ATOM     19  C   UNL     1      47.333   1.354   7.081  0.00  0.00    +0.000 A 
ATOM     20  C   UNL     1      47.553   2.418   6.216  0.00  0.00    +0.000 A 
ATOM     21  C   UNL     1      46.813   3.572   6.401  0.00  0.00    +0.000 A 
ATOM     22  N   UNL     1      45.890   3.721   7.376  0.00  0.00    +0.000 NA
ENDBRANCH  14  17
ENDBRANCH  13  14
ENDBRANCH  12  13
ENDBRANCH   4  12
TORSDOF 6
ENDMDL
MODEL 6
REMARK VINA RESULT:    -6.388      2.248      5.529
REMARK INTER + INTRA:          -9.049
REMARK INTER:                  -8.309
REMARK INTRA:                  -0.740
REMARK UNBOUND:                -0.606
REMARK  Name = 
REMARK  6 active torsions:
REMARK  status: ('A' for Active; 'I' for Inactive)
REMARK    1  A    between atoms: N_1  and  C_2
REMARK    2  A    between atoms: C_2  and  C_3
REMARK    3  A    between atoms: C_6  and  O_7
REMARK    4  A    between atoms: O_7  and  C_8
REMARK    5  A    between atoms: C_8  and  C_9
REMARK    6  A    between atoms: C_9  and  C_12
REMARK                            x       y       z     vdW  Elec       q    Type
REMARK                         _______ _______ _______ _____ _____    ______ ____
ROOT
ATOM      1  C   UNL     1      47.240   7.457  12.869  0.00  0.00    +0.000 A 
ATOM      2  C   UNL     1      45.946   7.512  12.335  0.00  0.00    +0.000 A 
ATOM      3  C   UNL     1      45.060   6.440  12.500  0.00  0.00    +0.000 A 
ATOM      4  C   UNL     1      45.449   5.293  13.198  0.00  0.00    +0.000 A 
ATOM      5  C   UNL     1      46.747   5.237  13.716  0.00  0.00    +0.000 A 
ATOM      6  F   UNL     1      47.195   4.166  14.385  0.00  0.00    +0.000 F 
ATOM      7  C   UNL     1      47.631   6.303  13.556  0.00  0.00    +0.000 A 
ENDROOT
BRANCH   1   8
ATOM      8  C   UNL     1      48.192   8.615  12.728  0.00  0.00    +0.000 C 
BRANCH   8   9
ATOM      9  N   UNL     1      49.171   8.374  11.675  0.00  0.00    +0.000 NA
ATOM     10  H   UNL     1      48.684   8.253  10.789  0.00  0.00    +0.000 HD
ATOM     11  H   UNL     1      49.649   7.494  11.864  0.00  0.00    +0.000 HD
ENDBRANCH   8   9
ENDBRANCH   1   8
BRANCH   4  12
ATOM     12  O   UNL     1      44.478   4.330  13.295  0.00  0.00    +0.000 OA
BRANCH  12  13
ATOM     13  C   UNL     1      44.690   3.138  12.518  0.00  0.00    +0.000 C 
BRANCH  13  14
ATOM     14  C   UNL     1      43.760   3.097  11.297  0.00  0.00    +0.000 C 
ATOM     15  F   UNL     1      43.013   1.951  11.341  0.00  0.00    +0.000 F 
ATOM     16  F   UNL     1      42.854   4.119  11.407  0.00  0.00    +0.000 F 
BRANCH  14  17
ATOM     17  C   UNL     1      44.564   3.190  10.001  0.00  0.00    +0.000 A 
ATOM     18  C   UNL     1      44.920   2.020   9.331  0.00  0.00    +0.000 A 
ATOM     19  C   UNL     1      45.671   2.110   8.160  0.00  0.00    +0.000 A 
ATOM     20  C   UNL     1      46.054   3.358   7.688  0.00  0.00    +0.000 A 
ATOM     21  C   UNL     1      45.671   4.474   8.409  0.00  0.00    +0.000 A 
ATOM     22  N   UNL     1      44.945   4.418   9.546  0.00  0.00    +0.000 NA
ENDBRANCH  14  17
ENDBRANCH  13  14
ENDBRANCH  12  13
ENDBRANCH   4  12
TORSDOF 6
ENDMDL
MODEL 7
REMARK VINA RESULT:    -6.153      2.346      6.178
REMARK INTER + INTRA:          -8.737
REMARK INTER:                  -8.259
REMARK INTRA:                  -0.478
REMARK UNBOUND:                -0.606
REMARK  Name = 
REMARK  6 active torsions:
REMARK  status: ('A' for Active; 'I' for Inactive)
REMARK    1  A    between atoms: N_1  and  C_2
REMARK    2  A    between atoms: C_2  and  C_3
REMARK    3  A    between atoms: C_6  and  O_7
REMARK    4  A    between atoms: O_7  and  C_8
REMARK    5  A    between atoms: C_8  and  C_9
REMARK    6  A    between atoms: C_9  and  C_12
REMARK                            x       y       z     vdW  Elec       q    Type
REMARK                         _______ _______ _______ _____ _____    ______ ____
ROOT
ATOM      1  C   UNL     1      47.177   8.997  12.166  0.00  0.00    +0.000 A 
ATOM      2  C   UNL     1      47.548   7.646  12.151  0.00  0.00    +0.000 A 
ATOM      3  C   UNL     1      46.615   6.653  11.826  0.00  0.00    +0.000 A 
ATOM      4  C   UNL     1      45.294   6.990  11.513  0.00  0.00    +0.000 A 
ATOM      5  C   UNL     1      44.926   8.338  11.543  0.00  0.00    +0.000 A 
ATOM      6  F   UNL     1      43.676   8.734  11.267  0.00  0.00    +0.000 F 
ATOM      7  C   UNL     1      45.851   9.329  11.863  0.00  0.00    +0.000 A 
ENDROOT
BRANCH   1   8
ATOM      8  C   UNL     1      48.177  10.077  12.480  0.00  0.00    +0.000 C 
BRANCH   8   9
ATOM      9  N   UNL     1      49.245  10.119  11.489  0.00  0.00    +0.000 NA
ATOM     10  H   UNL     1      49.051   9.433  10.761  0.00  0.00    +0.000 HD
ATOM     11  H   UNL     1      50.117   9.830  11.931  0.00  0.00    +0.000 HD
ENDBRANCH   8   9
ENDBRANCH   1   8
BRANCH   4  12
ATOM     12  O   UNL     1      44.494   5.920  11.201  0.00  0.00    +0.000 OA
BRANCH  12  13
ATOM     13  C   UNL     1      45.174   4.688  10.904  0.00  0.00    +0.000 C 
BRANCH  13  14
ATOM     14  C   UNL     1      44.406   3.866   9.859  0.00  0.00    +0.000 C 
ATOM     15  F   UNL     1      43.707   2.875  10.493  0.00  0.00    +0.000 F 
ATOM     16  F   UNL     1      43.451   4.669   9.291  0.00  0.00    +0.000 F 
BRANCH  14  17
ATOM     17  C   UNL     1      45.360   3.294   8.812  0.00  0.00    +0.000 A 
ATOM     18  C   UNL     1      45.606   1.921   8.787  0.00  0.00    +0.000 A 
ATOM     19  C   UNL     1      46.492   1.408   7.843  0.00  0.00    +0.000 A 
ATOM     20  C   UNL     1      47.118   2.269   6.952  0.00  0.00    +0.000 A 
ATOM     21  C   UNL     1      46.832   3.620   7.040  0.00  0.00    +0.000 A 
ATOM     22  N   UNL     1      45.978   4.146   7.945  0.00  0.00    +0.000 NA
ENDBRANCH  14  17
ENDBRANCH  13  14
ENDBRANCH  12  13
ENDBRANCH   4  12
TORSDOF 6
ENDMDL
MODEL 8
REMARK VINA RESULT:    -5.835      4.229      6.154
REMARK INTER + INTRA:          -8.318
REMARK INTER:                  -7.457
REMARK INTRA:                  -0.861
REMARK UNBOUND:                -0.606
REMARK  Name = 
REMARK  6 active torsions:
REMARK  status: ('A' for Active; 'I' for Inactive)
REMARK    1  A    between atoms: N_1  and  C_2
REMARK    2  A    between atoms: C_2  and  C_3
REMARK    3  A    between atoms: C_6  and  O_7
REMARK    4  A    between atoms: O_7  and  C_8
REMARK    5  A    between atoms: C_8  and  C_9
REMARK    6  A    between atoms: C_9  and  C_12
REMARK                            x       y       z     vdW  Elec       q    Type
REMARK                         _______ _______ _______ _____ _____    ______ ____
ROOT
ATOM      1  C   UNL     1      44.992   4.816  11.841  0.00  0.00    +0.000 A 
ATOM      2  C   UNL     1      45.593   6.073  11.697  0.00  0.00    +0.000 A 
ATOM      3  C   UNL     1      46.765   6.388  12.397  0.00  0.00    +0.000 A 
ATOM      4  C   UNL     1      47.356   5.456  13.255  0.00  0.00    +0.000 A 
ATOM      5  C   UNL     1      46.743   4.208  13.406  0.00  0.00    +0.000 A 
ATOM      6  F   UNL     1      47.246   3.269  14.220  0.00  0.00    +0.000 F 
ATOM      7  C   UNL     1      45.580   3.889  12.709  0.00  0.00    +0.000 A 
ENDROOT
BRANCH   1   8
ATOM      8  C   UNL     1      43.751   4.452  11.069  0.00  0.00    +0.000 C 
BRANCH   8   9
ATOM      9  N   UNL     1      43.066   5.638  10.572  0.00  0.00    +0.000 NA
ATOM     10  H   UNL     1      43.744   6.251  10.123  0.00  0.00    +0.000 HD
ATOM     11  H   UNL     1      42.690   6.158  11.365  0.00  0.00    +0.000 HD
ENDBRANCH   8   9
ENDBRANCH   1   8
BRANCH   4  12
ATOM     12  O   UNL     1      48.505   5.893  13.863  0.00  0.00    +0.000 OA
BRANCH  12  13
ATOM     13  C   UNL     1      48.336   6.875  14.900  0.00  0.00    +0.000 C 
BRANCH  13  14
ATOM     14  C   UNL     1      49.224   6.562  16.114  0.00  0.00    +0.000 C 
ATOM     15  F   UNL     1      50.538   6.630  15.738  0.00  0.00    +0.000 F 
ATOM     16  F   UNL     1      49.064   7.563  17.037  0.00  0.00    +0.000 F 
BRANCH  14  17
ATOM     17  C   UNL     1      48.880   5.193  16.698  0.00  0.00    +0.000 A 
ATOM     18  C   UNL     1      47.558   4.909  17.042  0.00  0.00    +0.000 A 
ATOM     19  C   UNL     1      47.252   3.667  17.592  0.00  0.00    +0.000 A 
ATOM     20  C   UNL     1      48.266   2.739  17.794  0.00  0.00    +0.000 A 
ATOM     21  C   UNL     1      49.554   3.093  17.435  0.00  0.00    +0.000 A 
ATOM     22  N   UNL     1      49.880   4.289  16.900  0.00  0.00    +0.000 NA
ENDBRANCH  14  17
ENDBRANCH  13  14
ENDBRANCH  12  13
ENDBRANCH   4  12
TORSDOF 6
ENDMDL
MODEL 9
REMARK VINA RESULT:    -5.815      4.711      6.599
REMARK INTER + INTRA:          -8.291
REMARK INTER:                  -7.704
REMARK INTRA:                  -0.587
REMARK UNBOUND:                -0.606
REMARK  Name = 
REMARK  6 active torsions:
REMARK  status: ('A' for Active; 'I' for Inactive)
REMARK    1  A    between atoms: N_1  and  C_2
REMARK    2  A    between atoms: C_2  and  C_3
REMARK    3  A    between atoms: C_6  and  O_7
REMARK    4  A    between atoms: O_7  and  C_8
REMARK    5  A    between atoms: C_8  and  C_9
REMARK    6  A    between atoms: C_9  and  C_12
REMARK                            x       y       z     vdW  Elec       q    Type
REMARK                         _______ _______ _______ _____ _____    ______ ____
ROOT
ATOM      1  C   UNL     1      45.571   5.232  11.599  0.00  0.00    +0.000 A 
ATOM      2  C   UNL     1      45.523   4.099  12.422  0.00  0.00    +0.000 A 
ATOM      3  C   UNL     1      46.321   4.015  13.569  0.00  0.00    +0.000 A 
ATOM      4  C   UNL     1      47.185   5.059  13.916  0.00  0.00    +0.000 A 
ATOM      5  C   UNL     1      47.240   6.181  13.084  0.00  0.00    +0.000 A 
ATOM      6  F   UNL     1      48.053   7.214  13.345  0.00  0.00    +0.000 F 
ATOM      7  C   UNL     1      46.445   6.270  11.943  0.00  0.00    +0.000 A 
ENDROOT
BRANCH   1   8
ATOM      8  C   UNL     1      44.694   5.351  10.381  0.00  0.00    +0.000 C 
BRANCH   8   9
ATOM      9  N   UNL     1      45.480   5.309   9.154  0.00  0.00    +0.000 NA
ATOM     10  H   UNL     1      46.443   5.072   9.383  0.00  0.00    +0.000 HD
ATOM     11  H   UNL     1      45.502   6.243   8.745  0.00  0.00    +0.000 HD
ENDBRANCH   8   9
ENDBRANCH   1   8
BRANCH   4  12
ATOM     12  O   UNL     1      47.896   4.849  15.070  0.00  0.00    +0.000 OA
BRANCH  12  13
ATOM     13  C   UNL     1      47.160   4.288  16.171  0.00  0.00    +0.000 C 
BRANCH  13  14
ATOM     14  C   UNL     1      47.922   3.119  16.812  0.00  0.00    +0.000 C 
ATOM     15  F   UNL     1      47.068   2.415  17.618  0.00  0.00    +0.000 F 
ATOM     16  F   UNL     1      48.283   2.242  15.822  0.00  0.00    +0.000 F 
BRANCH  14  17
ATOM     17  C   UNL     1      49.135   3.625  17.590  0.00  0.00    +0.000 A 
ATOM     18  C   UNL     1      48.942   4.283  18.806  0.00  0.00    +0.000 A 
ATOM     19  C   UNL     1      50.051   4.760  19.502  0.00  0.00    +0.000 A 
ATOM     20  C   UNL     1      51.321   4.580  18.972  0.00  0.00    +0.000 A 
ATOM     21  C   UNL     1      51.435   3.925  17.759  0.00  0.00    +0.000 A 
ATOM     22  N   UNL     1      50.380   3.452  17.062  0.00  0.00    +0.000 NA
ENDBRANCH  14  17
ENDBRANCH  13  14
ENDBRANCH  12  13
ENDBRANCH   4  12
TORSDOF 6
ENDMDL
