MODEL 1
REMARK VINA RESULT:    -6.844      0.000      0.000
REMARK INTER + INTRA:          -9.120
REMARK INTER:                  -8.445
REMARK INTRA:                  -0.675
REMARK UNBOUND:                -0.675
REMARK  Name = 
REMARK  5 active torsions:
REMARK  status: ('A' for Active; 'I' for Inactive)
REMARK    1  A    between atoms: N_1  and  C_2
REMARK    2  A    between atoms: C_2  and  C_3
REMARK    3  A    between atoms: C_6  and  C_7
REMARK    4  A    between atoms: C_7  and  N_8
REMARK    5  A    between atoms: C_14  and  O_15
REMARK                            x       y       z     vdW  Elec       q    Type
REMARK                         _______ _______ _______ _____ _____    ______ ____
ROOT
ATOM      1  C   UNL     1      44.569   6.513  11.389  0.00  0.00    +0.000 C 
ENDROOT
BRANCH   1   2
ATOM      2  N   UNL     1      44.348   5.107  11.072  0.00  0.00    +0.000 N 
ATOM      3  C   UNL     1      43.605   4.252  11.849  0.00  0.00    +0.000 A 
ATOM      4  C   UNL     1      43.672   2.998  11.289  0.00  0.00    +0.000 A 
ATOM      5  C   UNL     1      44.484   3.090  10.126  0.00  0.00    +0.000 A 
ATOM      6  C   UNL     1      44.909   2.151   9.166  0.00  0.00    +0.000 A 
ATOM      7  C   UNL     1      45.720   2.566   8.105  0.00  0.00    +0.000 A 
ATOM      8  C   UNL     1      46.104   3.898   8.005  0.00  0.00    +0.000 A 
ATOM      9  C   UNL     1      45.706   4.851   8.943  0.00  0.00    +0.000 A 
ATOM     10  C   UNL     1      44.891   4.421  10.004  0.00  0.00    +0.000 A 
BRANCH   8  11
ATOM     11  O   UNL     1      46.890   4.326   6.972  0.00  0.00    +0.000 OA
ATOM     12  H   UNL     1      46.507   4.003   6.142  0.00  0.00    +0.000 HD
ENDBRANCH   8  11
ENDBRANCH   1   2
BRANCH   1  16
ATOM     13  C   UNL     1      48.039   7.744  12.405  0.00  0.00    +0.000 C 
ATOM     14  C   UNL     1      47.636   6.279  12.180  0.00  0.00    +0.000 C 
ATOM     15  C   UNL     1      46.437   5.876  13.040  0.00  0.00    +0.000 C 
ATOM     16  C   UNL     1      45.205   6.759  12.774  0.00  0.00    +0.000 C 
ATOM     17  C   UNL     1      45.578   8.245  12.948  0.00  0.00    +0.000 C 
ATOM     18  C   UNL     1      46.827   8.661  12.162  0.00  0.00    +0.000 C 
BRANCH  13  19
ATOM     19  C   UNL     1      48.658   7.981  13.799  0.00  0.00    +0.000 C 
BRANCH  19  20
ATOM     20  N   UNL     1      49.732   7.032  14.073  0.00  0.00    +0.000 NA
ATOM     21  H   UNL     1      49.341   6.154  14.406  0.00  0.00    +0.000 HD
ATOM     22  H   UNL     1      50.328   7.388  14.819  0.00  0.00    +0.000 HD
ENDBRANCH  19  20
ENDBRANCH  13  19
ENDBRANCH   1  16
TORSDOF 5
ENDMDL
MODEL 2
REMARK VINA RESULT:    -6.355      2.470      5.865
REMARK INTER + INTRA:          -8.516
REMARK INTER:                  -7.816
REMARK INTRA:                  -0.701
REMARK UNBOUND:                -0.675
REMARK  Name = 
REMARK  5 active torsions:
REMARK  status: ('A' for Active; 'I' for Inactive)
REMARK    1  A    between atoms: N_1  and  C_2
REMARK    2  A    between atoms: C_2  and  C_3
REMARK    3  A    between atoms: C_6  and  C_7
REMARK    4  A    between atoms: C_7  and  N_8
REMARK    5  A    between atoms: C_14  and  O_15
REMARK                            x       y       z     vdW  Elec       q    Type
REMARK                         _______ _______ _______ _____ _____    ______ ____
ROOT
ATOM      1  C   UNL     1      44.934   2.942  10.411  0.00  0.00    +0.000 C 
ENDROOT
BRANCH   1   2
ATOM      2  N   UNL     1      44.320   4.127  10.997  0.00  0.00    +0.000 N 
ATOM      3  C   UNL     1      42.973   4.259  11.232  0.00  0.00    +0.000 A 
ATOM      4  C   UNL     1      42.746   5.524  11.720  0.00  0.00    +0.000 A 
ATOM      5  C   UNL     1      44.000   6.190  11.788  0.00  0.00    +0.000 A 
ATOM      6  C   UNL     1      44.389   7.482  12.194  0.00  0.00    +0.000 A 
ATOM      7  C   UNL     1      45.739   7.842  12.149  0.00  0.00    +0.000 A 
ATOM      8  C   UNL     1      46.687   6.929  11.703  0.00  0.00    +0.000 A 
ATOM      9  C   UNL     1      46.334   5.646  11.287  0.00  0.00    +0.000 A 
ATOM     10  C   UNL     1      44.974   5.295  11.338  0.00  0.00    +0.000 A 
BRANCH   8  11
ATOM     11  O   UNL     1      48.013   7.259  11.658  0.00  0.00    +0.000 OA
ATOM     12  H   UNL     1      48.372   6.963  10.806  0.00  0.00    +0.000 HD
ENDBRANCH   8  11
ENDBRANCH   1   2
BRANCH   1  16
ATOM     13  C   UNL     1      47.082   2.961   7.252  0.00  0.00    +0.000 C 
ATOM     14  C   UNL     1      46.368   4.177   7.860  0.00  0.00    +0.000 C 
ATOM     15  C   UNL     1      44.868   3.932   8.037  0.00  0.00    +0.000 C 
ATOM     16  C   UNL     1      44.577   2.711   8.927  0.00  0.00    +0.000 C 
ATOM     17  C   UNL     1      45.312   1.473   8.373  0.00  0.00    +0.000 C 
ATOM     18  C   UNL     1      46.802   1.711   8.108  0.00  0.00    +0.000 C 
BRANCH  13  19
ATOM     19  C   UNL     1      46.705   2.730   5.774  0.00  0.00    +0.000 C 
BRANCH  19  20
ATOM     20  N   UNL     1      47.892   2.618   4.933  0.00  0.00    +0.000 NA
ATOM     21  H   UNL     1      47.971   3.438   4.335  0.00  0.00    +0.000 HD
ATOM     22  H   UNL     1      47.804   1.813   4.314  0.00  0.00    +0.000 HD
ENDBRANCH  19  20
ENDBRANCH  13  19
ENDBRANCH   1  16
TORSDOF 5
ENDMDL
MODEL 3
REMARK VINA RESULT:    -5.933      3.773      7.073
REMARK INTER + INTRA:          -7.996
REMARK INTER:                  -7.661
REMARK INTRA:                  -0.336
REMARK UNBOUND:                -0.675
REMARK  Name = 
REMARK  5 active torsions:
REMARK  status: ('A' for Active; 'I' for Inactive)
REMARK    1  A    between atoms: N_1  and  C_2
REMARK    2  A    between atoms: C_2  and  C_3
REMARK    3  A    between atoms: C_6  and  C_7
REMARK    4  A    between atoms: C_7  and  N_8
REMARK    5  A    between atoms: C_14  and  O_15
REMARK                            x       y       z     vdW  Elec       q    Type
REMARK                         _______ _______ _______ _____ _____    ______ ____
ROOT
ATOM      1  C   UNL     1      47.559   5.648  13.354  0.00  0.00    +0.000 C 
ENDROOT
BRANCH   1   2
ATOM      2  N   UNL     1      48.127   6.039  14.638  0.00  0.00    +0.000 N 
ATOM      3  C   UNL     1      48.954   7.121  14.815  0.00  0.00    +0.000 A 
ATOM      4  C   UNL     1      49.354   7.142  16.130  0.00  0.00    +0.000 A 
ATOM      5  C   UNL     1      48.749   6.034  16.782  0.00  0.00    +0.000 A 
ATOM      6  C   UNL     1      48.793   5.546  18.103  0.00  0.00    +0.000 A 
ATOM      7  C   UNL     1      48.060   4.404  18.441  0.00  0.00    +0.000 A 
ATOM      8  C   UNL     1      47.297   3.758  17.477  0.00  0.00    +0.000 A 
ATOM      9  C   UNL     1      47.239   4.211  16.159  0.00  0.00    +0.000 A 
ATOM     10  C   UNL     1      47.979   5.359  15.831  0.00  0.00    +0.000 A 
BRANCH   8  11
ATOM     11  O   UNL     1      46.568   2.644  17.789  0.00  0.00    +0.000 OA
ATOM     12  H   UNL     1      46.543   2.556  18.755  0.00  0.00    +0.000 HD
ENDBRANCH   8  11
ENDBRANCH   1   2
BRANCH   1  16
ATOM     13  C   UNL     1      44.993   4.499  10.768  0.00  0.00    +0.000 C 
ATOM     14  C   UNL     1      45.843   5.776  10.684  0.00  0.00    +0.000 C 
ATOM     15  C   UNL     1      45.675   6.659  11.922  0.00  0.00    +0.000 C 
ATOM     16  C   UNL     1      46.046   5.920  13.220  0.00  0.00    +0.000 C 
ATOM     17  C   UNL     1      45.242   4.608  13.323  0.00  0.00    +0.000 C 
ATOM     18  C   UNL     1      45.324   3.737  12.065  0.00  0.00    +0.000 C 
BRANCH  13  19
ATOM     19  C   UNL     1      43.481   4.785  10.650  0.00  0.00    +0.000 C 
BRANCH  19  20
ATOM     20  N   UNL     1      42.691   3.771  11.341  0.00  0.00    +0.000 NA
ATOM     21  H   UNL     1      43.266   3.299  12.036  0.00  0.00    +0.000 HD
ATOM     22  H   UNL     1      42.389   3.057  10.680  0.00  0.00    +0.000 HD
ENDBRANCH  19  20
ENDBRANCH  13  19
ENDBRANCH   1  16
TORSDOF 5
ENDMDL
MODEL 4
REMARK VINA RESULT:    -5.264      2.735      6.372
REMARK INTER + INTRA:          -7.170
REMARK INTER:                  -6.784
REMARK INTRA:                  -0.386
REMARK UNBOUND:                -0.675
REMARK  Name = 
REMARK  5 active torsions:
REMARK  status: ('A' for Active; 'I' for Inactive)
REMARK    1  A    between atoms: N_1  and  C_2
REMARK    2  A    between atoms: C_2  and  C_3
REMARK    3  A    between atoms: C_6  and  C_7
REMARK    4  A    between atoms: C_7  and  N_8
REMARK    5  A    between atoms: C_14  and  O_15
REMARK                            x       y       z     vdW  Elec       q    Type
REMARK                         _______ _______ _______ _____ _____    ______ ____
ROOT
ATOM      1  C   UNL     1      47.087   6.460  11.998  0.00  0.00    +0.000 C 
ENDROOT
BRANCH   1   2
ATOM      2  N   UNL     1      47.456   7.871  11.988  0.00  0.00    +0.000 N 
ATOM      3  C   UNL     1      46.568   8.899  12.197  0.00  0.00    +0.000 A 
ATOM      4  C   UNL     1      47.245  10.085  12.044  0.00  0.00    +0.000 A 
ATOM      5  C   UNL     1      48.596   9.772  11.732  0.00  0.00    +0.000 A 
ATOM      6  C   UNL     1      49.735  10.559  11.466  0.00  0.00    +0.000 A 
ATOM      7  C   UNL     1      50.956   9.934  11.194  0.00  0.00    +0.000 A 
ATOM      8  C   UNL     1      51.040   8.548  11.185  0.00  0.00    +0.000 A 
ATOM      9  C   UNL     1      49.930   7.741  11.437  0.00  0.00    +0.000 A 
ATOM     10  C   UNL     1      48.709   8.380  11.710  0.00  0.00    +0.000 A 
BRANCH   8  11
ATOM     11  O   UNL     1      52.226   7.918  10.928  0.00  0.00    +0.000 OA
ATOM     12  H   UNL     1      52.076   6.960  10.963  0.00  0.00    +0.000 HD
ENDBRANCH   8  11
ENDBRANCH   1   2
BRANCH   1  16
ATOM     13  C   UNL     1      44.914   3.332  11.716  0.00  0.00    +0.000 C 
ATOM     14  C   UNL     1      45.050   4.430  10.650  0.00  0.00    +0.000 C 
ATOM     15  C   UNL     1      44.724   5.816  11.211  0.00  0.00    +0.000 C 
ATOM     16  C   UNL     1      45.622   6.190  12.402  0.00  0.00    +0.000 C 
ATOM     17  C   UNL     1      45.547   5.089  13.481  0.00  0.00    +0.000 C 
ATOM     18  C   UNL     1      45.788   3.677  12.935  0.00  0.00    +0.000 C 
BRANCH  13  19
ATOM     19  C   UNL     1      43.446   3.082  12.124  0.00  0.00    +0.000 C 
BRANCH  19  20
ATOM     20  N   UNL     1      42.955   1.814  11.596  0.00  0.00    +0.000 NA
ATOM     21  H   UNL     1      43.733   1.172  11.459  0.00  0.00    +0.000 HD
ATOM     22  H   UNL     1      42.532   1.960  10.680  0.00  0.00    +0.000 HD
ENDBRANCH  19  20
ENDBRANCH  13  19
ENDBRANCH   1  16
TORSDOF 5
ENDMDL
MODEL 5
REMARK VINA RESULT:    -5.247      2.247      3.228
REMARK INTER + INTRA:          -7.150
REMARK INTER:                  -6.733
REMARK INTRA:                  -0.416
REMARK UNBOUND:                -0.675
REMARK  Name = 
REMARK  5 active torsions:
REMARK  status: ('A' for Active; 'I' for Inactive)
REMARK    1  A    between atoms: N_1  and  C_2
REMARK    2  A    between atoms: C_2  and  C_3
REMARK    3  A    between atoms: C_6  and  C_7
REMARK    4  A    between atoms: C_7  and  N_8
REMARK    5  A    between atoms: C_14  and  O_15
REMARK                            x       y       z     vdW  Elec       q    Type
REMARK                         _______ _______ _______ _____ _____    ______ ____
ROOT
ATOM      1  C   UNL     1      47.469   7.039  11.779  0.00  0.00    +0.000 C 
ENDROOT
BRANCH   1   2
ATOM      2  N   UNL     1      46.685   5.951  12.350  0.00  0.00    +0.000 N 
ATOM      3  C   UNL     1      46.850   5.471  13.627  0.00  0.00    +0.000 A 
ATOM      4  C   UNL     1      45.999   4.406  13.797  0.00  0.00    +0.000 A 
ATOM      5  C   UNL     1      45.285   4.227  12.582  0.00  0.00    +0.000 A 
ATOM      6  C   UNL     1      44.301   3.310  12.163  0.00  0.00    +0.000 A 
ATOM      7  C   UNL     1      43.776   3.403  10.870  0.00  0.00    +0.000 A 
ATOM      8  C   UNL     1      44.226   4.395  10.008  0.00  0.00    +0.000 A 
ATOM      9  C   UNL     1      45.204   5.314  10.390  0.00  0.00    +0.000 A 
ATOM     10  C   UNL     1      45.724   5.210  11.691  0.00  0.00    +0.000 A 
BRANCH   8  11
ATOM     11  O   UNL     1      43.721   4.508   8.743  0.00  0.00    +0.000 OA
ATOM     12  H   UNL     1      44.301   4.021   8.137  0.00  0.00    +0.000 HD
ENDBRANCH   8  11
ENDBRANCH   1   2
BRANCH   1  16
ATOM     13  C   UNL     1      50.003   9.868  11.374  0.00  0.00    +0.000 C 
ATOM     14  C   UNL     1      50.331   8.369  11.426  0.00  0.00    +0.000 C 
ATOM     15  C   UNL     1      49.781   7.705  12.690  0.00  0.00    +0.000 C 
ATOM     16  C   UNL     1      48.257   7.866  12.817  0.00  0.00    +0.000 C 
ATOM     17  C   UNL     1      47.879   9.359  12.728  0.00  0.00    +0.000 C 
ATOM     18  C   UNL     1      48.483  10.074  11.515  0.00  0.00    +0.000 C 
BRANCH  13  19
ATOM     19  C   UNL     1      50.783  10.683  12.428  0.00  0.00    +0.000 C 
BRANCH  19  20
ATOM     20  N   UNL     1      52.224  10.528  12.260  0.00  0.00    +0.000 NA
ATOM     21  H   UNL     1      52.416   9.832  11.541  0.00  0.00    +0.000 HD
ATOM     22  H   UNL     1      52.639  10.178  13.123  0.00  0.00    +0.000 HD
ENDBRANCH  19  20
ENDBRANCH  13  19
ENDBRANCH   1  16
TORSDOF 5
ENDMDL
MODEL 6
REMARK VINA RESULT:    -5.155      2.754      6.355
REMARK INTER + INTRA:          -7.036
REMARK INTER:                  -6.586
REMARK INTRA:                  -0.450
REMARK UNBOUND:                -0.675
REMARK  Name = 
REMARK  5 active torsions:
REMARK  status: ('A' for Active; 'I' for Inactive)
REMARK    1  A    between atoms: N_1  and  C_2
REMARK    2  A    between atoms: C_2  and  C_3
REMARK    3  A    between atoms: C_6  and  C_7
REMARK    4  A    between atoms: C_7  and  N_8
REMARK    5  A    between atoms: C_14  and  O_15
REMARK                            x       y       z     vdW  Elec       q    Type
REMARK                         _______ _______ _______ _____ _____    ______ ____
ROOT
ATOM      1  C   UNL     1      46.763   6.665  13.421  0.00  0.00    +0.000 C 
ENDROOT
BRANCH   1   2
ATOM      2  N   UNL     1      47.321   7.867  12.814  0.00  0.00    +0.000 N 
ATOM      3  C   UNL     1      48.662   8.064  12.591  0.00  0.00    +0.000 A 
ATOM      4  C   UNL     1      48.828   9.328  12.076  0.00  0.00    +0.000 A 
ATOM      5  C   UNL     1      47.542   9.925  11.979  0.00  0.00    +0.000 A 
ATOM      6  C   UNL     1      47.091  11.185  11.538  0.00  0.00    +0.000 A 
ATOM      7  C   UNL     1      45.723  11.475  11.559  0.00  0.00    +0.000 A 
ATOM      8  C   UNL     1      44.820  10.524  12.015  0.00  0.00    +0.000 A 
ATOM      9  C   UNL     1      45.235   9.270  12.466  0.00  0.00    +0.000 A 
ATOM     10  C   UNL     1      46.611   8.991  12.439  0.00  0.00    +0.000 A 
BRANCH   8  11
ATOM     11  O   UNL     1      43.478  10.784  12.038  0.00  0.00    +0.000 OA
ATOM     12  H   UNL     1      43.353  11.727  12.228  0.00  0.00    +0.000 HD
ENDBRANCH   8  11
ENDBRANCH   1   2
BRANCH   1  16
ATOM     13  C   UNL     1      43.785   5.192  11.538  0.00  0.00    +0.000 C 
ATOM     14  C   UNL     1      44.241   4.793  12.949  0.00  0.00    +0.000 C 
ATOM     15  C   UNL     1      45.708   4.361  12.976  0.00  0.00    +0.000 C 
ATOM     16  C   UNL     1      46.651   5.462  12.461  0.00  0.00    +0.000 C 
ATOM     17  C   UNL     1      46.201   5.921  11.059  0.00  0.00    +0.000 C 
ATOM     18  C   UNL     1      44.715   6.284  10.978  0.00  0.00    +0.000 C 
BRANCH  13  19
ATOM     19  C   UNL     1      43.692   3.984  10.581  0.00  0.00    +0.000 C 
BRANCH  19  20
ATOM     20  N   UNL     1      43.696   4.408   9.185  0.00  0.00    +0.000 NA
ATOM     21  H   UNL     1      43.966   5.387   9.122  0.00  0.00    +0.000 HD
ATOM     22  H   UNL     1      42.755   4.339   8.799  0.00  0.00    +0.000 HD
ENDBRANCH  19  20
ENDBRANCH  13  19
ENDBRANCH   1  16
TORSDOF 5
ENDMDL
MODEL 7
REMARK VINA RESULT:    -5.107      2.888      6.563
REMARK INTER + INTRA:          -6.976
REMARK INTER:                  -6.346
REMARK INTRA:                  -0.631
REMARK UNBOUND:                -0.675
REMARK  Name = 
REMARK  5 active torsions:
REMARK  status: ('A' for Active; 'I' for Inactive)
REMARK    1  A    between atoms: N_1  and  C_2
REMARK    2  A    between atoms: C_2  and  C_3
REMARK    3  A    between atoms: C_6  and  C_7
REMARK    4  A    between atoms: C_7  and  N_8
REMARK    5  A    between atoms: C_14  and  O_15
REMARK                            x       y       z     vdW  Elec       q    Type
REMARK                         _______ _______ _______ _____ _____    ______ ____
ROOT
ATOM      1  C   UNL     1      46.647   6.644  11.421  0.00  0.00    +0.000 C 
ENDROOT
BRANCH   1   2
ATOM      2  N   UNL     1      47.035   7.740  12.300  0.00  0.00    +0.000 N 
ATOM      3  C   UNL     1      46.823   9.067  12.015  0.00  0.00    +0.000 A 
ATOM      4  C   UNL     1      47.378   9.816  13.024  0.00  0.00    +0.000 A 
ATOM      5  C   UNL     1      47.951   8.915  13.963  0.00  0.00    +0.000 A 
ATOM      6  C   UNL     1      48.649   9.094  15.173  0.00  0.00    +0.000 A 
ATOM      7  C   UNL     1      49.089   7.975  15.888  0.00  0.00    +0.000 A 
ATOM      8  C   UNL     1      48.837   6.698  15.402  0.00  0.00    +0.000 A 
ATOM      9  C   UNL     1      48.155   6.488  14.203  0.00  0.00    +0.000 A 
ATOM     10  C   UNL     1      47.718   7.620  13.494  0.00  0.00    +0.000 A 
BRANCH   8  11
ATOM     11  O   UNL     1      49.252   5.591  16.088  0.00  0.00    +0.000 OA
ATOM     12  H   UNL     1      48.686   5.487  16.869  0.00  0.00    +0.000 HD
ENDBRANCH   8  11
ENDBRANCH   1   2
BRANCH   1  16
ATOM     13  C   UNL     1      44.880   3.366  12.273  0.00  0.00    +0.000 C 
ATOM     14  C   UNL     1      45.325   3.809  10.871  0.00  0.00    +0.000 C 
ATOM     15  C   UNL     1      44.750   5.175  10.492  0.00  0.00    +0.000 C 
ATOM     16  C   UNL     1      45.150   6.274  11.491  0.00  0.00    +0.000 C 
ATOM     17  C   UNL     1      44.757   5.850  12.921  0.00  0.00    +0.000 C 
ATOM     18  C   UNL     1      45.249   4.449  13.303  0.00  0.00    +0.000 C 
BRANCH  13  19
ATOM     19  C   UNL     1      43.378   3.016  12.335  0.00  0.00    +0.000 C 
BRANCH  19  20
ATOM     20  N   UNL     1      43.076   1.827  11.543  0.00  0.00    +0.000 NA
ATOM     21  H   UNL     1      42.176   1.444  11.825  0.00  0.00    +0.000 HD
ATOM     22  H   UNL     1      43.771   1.104  11.724  0.00  0.00    +0.000 HD
ENDBRANCH  19  20
ENDBRANCH  13  19
ENDBRANCH   1  16
TORSDOF 5
ENDMDL
MODEL 8
REMARK VINA RESULT:    -5.084      2.353      6.009
REMARK INTER + INTRA:          -6.948
REMARK INTER:                  -7.070
REMARK INTRA:                   0.122
REMARK UNBOUND:                -0.675
REMARK  Name = 
REMARK  5 active torsions:
REMARK  status: ('A' for Active; 'I' for Inactive)
REMARK    1  A    between atoms: N_1  and  C_2
REMARK    2  A    between atoms: C_2  and  C_3
REMARK    3  A    between atoms: C_6  and  C_7
REMARK    4  A    between atoms: C_7  and  N_8
REMARK    5  A    between atoms: C_14  and  O_15
REMARK                            x       y       z     vdW  Elec       q    Type
REMARK                         _______ _______ _______ _____ _____    ______ ____
ROOT
ATOM      1  C   UNL     1      44.399   5.970  11.177  0.00  0.00    +0.000 C 
ENDROOT
BRANCH   1   2
ATOM      2  N   UNL     1      44.883   7.302  11.518  0.00  0.00    +0.000 N 
ATOM      3  C   UNL     1      44.171   8.457  11.301  0.00  0.00    +0.000 A 
ATOM      4  C   UNL     1      44.958   9.520  11.672  0.00  0.00    +0.000 A 
ATOM      5  C   UNL     1      46.196   8.998  12.135  0.00  0.00    +0.000 A 
ATOM      6  C   UNL     1      47.373   9.594  12.629  0.00  0.00    +0.000 A 
ATOM      7  C   UNL     1      48.445   8.784  13.021  0.00  0.00    +0.000 A 
ATOM      8  C   UNL     1      48.344   7.403  12.919  0.00  0.00    +0.000 A 
ATOM      9  C   UNL     1      47.195   6.782  12.427  0.00  0.00    +0.000 A 
ATOM     10  C   UNL     1      46.126   7.606  12.037  0.00  0.00    +0.000 A 
BRANCH   8  11
ATOM     11  O   UNL     1      49.376   6.593  13.303  0.00  0.00    +0.000 OA
ATOM     12  H   UNL     1      49.260   6.374  14.240  0.00  0.00    +0.000 HD
ENDBRANCH   8  11
ENDBRANCH   1   2
BRANCH   1  16
ATOM     13  C   UNL     1      44.413   2.791   9.060  0.00  0.00    +0.000 C 
ATOM     14  C   UNL     1      44.074   2.872  10.556  0.00  0.00    +0.000 C 
ATOM     15  C   UNL     1      45.195   3.530  11.363  0.00  0.00    +0.000 C 
ATOM     16  C   UNL     1      45.516   4.950  10.866  0.00  0.00    +0.000 C 
ATOM     17  C   UNL     1      45.822   4.919   9.355  0.00  0.00    +0.000 C 
ATOM     18  C   UNL     1      44.756   4.194   8.526  0.00  0.00    +0.000 C 
BRANCH  13  19
ATOM     19  C   UNL     1      45.542   1.780   8.762  0.00  0.00    +0.000 C 
BRANCH  19  20
ATOM     20  N   UNL     1      46.296   2.160   7.572  0.00  0.00    +0.000 NA
ATOM     21  H   UNL     1      47.275   2.305   7.814  0.00  0.00    +0.000 HD
ATOM     22  H   UNL     1      45.951   3.048   7.210  0.00  0.00    +0.000 HD
ENDBRANCH  19  20
ENDBRANCH  13  19
ENDBRANCH   1  16
TORSDOF 5
ENDMDL
MODEL 9
REMARK VINA RESULT:    -5.030      3.742      4.928
REMARK INTER + INTRA:          -6.881
REMARK INTER:                  -6.392
REMARK INTRA:                  -0.489
REMARK UNBOUND:                -0.675
REMARK  Name = 
REMARK  5 active torsions:
REMARK  status: ('A' for Active; 'I' for Inactive)
REMARK    1  A    between atoms: N_1  and  C_2
REMARK    2  A    between atoms: C_2  and  C_3
REMARK    3  A    between atoms: C_6  and  C_7
REMARK    4  A    between atoms: C_7  and  N_8
REMARK    5  A    between atoms: C_14  and  O_15
REMARK                            x       y       z     vdW  Elec       q    Type
REMARK                         _______ _______ _______ _____ _____    ______ ____
ROOT
ATOM      1  C   UNL     1      47.666   4.678  14.207  0.00  0.00    +0.000 C 
ENDROOT
BRANCH   1   2
ATOM      2  N   UNL     1      46.809   5.312  13.213  0.00  0.00    +0.000 N 
ATOM      3  C   UNL     1      46.983   6.596  12.754  0.00  0.00    +0.000 A 
ATOM      4  C   UNL     1      45.956   6.882  11.886  0.00  0.00    +0.000 A 
ATOM      5  C   UNL     1      45.124   5.733  11.810  0.00  0.00    +0.000 A 
ATOM      6  C   UNL     1      43.942   5.439  11.102  0.00  0.00    +0.000 A 
ATOM      7  C   UNL     1      43.352   4.179  11.236  0.00  0.00    +0.000 A 
ATOM      8  C   UNL     1      43.930   3.226  12.065  0.00  0.00    +0.000 A 
ATOM      9  C   UNL     1      45.096   3.488  12.786  0.00  0.00    +0.000 A 
ATOM     10  C   UNL     1      45.680   4.758  12.642  0.00  0.00    +0.000 A 
BRANCH   8  11
ATOM     11  O   UNL     1      43.374   1.986  12.206  0.00  0.00    +0.000 OA
ATOM     12  H   UNL     1      43.954   1.453  12.771  0.00  0.00    +0.000 HD
ENDBRANCH   8  11
ENDBRANCH   1   2
BRANCH   1  16
ATOM     13  C   UNL     1      49.383   3.884  17.525  0.00  0.00    +0.000 C 
ATOM     14  C   UNL     1      48.411   2.962  16.773  0.00  0.00    +0.000 C 
ATOM     15  C   UNL     1      47.074   3.649  16.489  0.00  0.00    +0.000 C 
ATOM     16  C   UNL     1      47.242   4.938  15.668  0.00  0.00    +0.000 C 
ATOM     17  C   UNL     1      48.245   5.877  16.369  0.00  0.00    +0.000 C 
ATOM     18  C   UNL     1      49.567   5.197  16.741  0.00  0.00    +0.000 C 
BRANCH  13  19
ATOM     19  C   UNL     1      48.941   4.151  18.980  0.00  0.00    +0.000 C 
BRANCH  19  20
ATOM     20  N   UNL     1      50.090   4.340  19.859  0.00  0.00    +0.000 NA
ATOM     21  H   UNL     1      49.872   5.040  20.566  0.00  0.00    +0.000 HD
ATOM     22  H   UNL     1      50.880   4.701  19.326  0.00  0.00    +0.000 HD
ENDBRANCH  19  20
ENDBRANCH  13  19
ENDBRANCH   1  16
TORSDOF 5
ENDMDL
