MODEL 1
REMARK VINA RESULT:    -7.339      0.000      0.000
REMARK INTER + INTRA:          -9.633
REMARK INTER:                  -9.269
REMARK INTRA:                  -0.364
REMARK UNBOUND:                -0.364
REMARK  Name = 
REMARK  5 active torsions:
REMARK  status: ('A' for Active; 'I' for Inactive)
REMARK    1  A    between atoms: N_1  and  C_2
REMARK    2  A    between atoms: C_2  and  C_3
REMARK    3  A    between atoms: C_3  and  C_4
REMARK    4  A    between atoms: C_9  and  C_10
REMARK    5  A    between atoms: C_10  and  N_11
REMARK                            x       y       z     vdW  Elec       q    Type
REMARK                         _______ _______ _______ _____ _____    ______ ____
ROOT
ATOM      1  C   UNL     1      44.674   3.998  12.377  0.00  0.00    +0.000 A 
ATOM      2  C   UNL     1      44.223   4.996  13.263  0.00  0.00    +0.000 A 
ATOM      3  C   UNL     1      43.054   5.698  13.009  0.00  0.00    +0.000 A 
ATOM      4  C   UNL     1      42.366   5.401  11.854  0.00  0.00    +0.000 A 
ATOM      5  N   UNL     1      42.763   4.464  10.969  0.00  0.00    +0.000 NA
ATOM      6  C   UNL     1      43.913   3.770  11.217  0.00  0.00    +0.000 A 
ENDROOT
BRANCH   1   7
ATOM      7  C   UNL     1      45.940   3.257  12.753  0.00  0.00    +0.000 C 
BRANCH   7   8
ATOM      8  C   UNL     1      46.864   4.071  13.678  0.00  0.00    +0.000 C 
BRANCH   8   9
ATOM      9  N   UNL     1      47.508   3.226  14.680  0.00  0.00    +0.000 NA
ATOM     10  H   UNL     1      48.222   3.762  15.172  0.00  0.00    +0.000 HD
ATOM     11  H   UNL     1      46.840   2.916  15.381  0.00  0.00    +0.000 HD
ENDBRANCH   8   9
ENDBRANCH   7   8
ENDBRANCH   1   7
BRANCH   6  12
ATOM     12  C   UNL     1      44.214   2.703  10.191  0.00  0.00    +0.000 C 
BRANCH  12  13
ATOM     13  N   UNL     1      45.003   3.164   9.049  0.00  0.00    +0.000 N 
ATOM     14  C   UNL     1      45.219   4.492   8.758  0.00  0.00    +0.000 A 
ATOM     15  C   UNL     1      46.220   4.574   7.820  0.00  0.00    +0.000 A 
ATOM     16  C   UNL     1      46.638   3.252   7.517  0.00  0.00    +0.000 A 
ATOM     17  C   UNL     1      47.641   2.720   6.679  0.00  0.00    +0.000 A 
ATOM     18  C   UNL     1      47.811   1.335   6.598  0.00  0.00    +0.000 A 
ATOM     19  C   UNL     1      46.988   0.480   7.326  0.00  0.00    +0.000 A 
ATOM     20  C   UNL     1      45.991   0.986   8.173  0.00  0.00    +0.000 A 
ATOM     21  C   UNL     1      45.841   2.380   8.268  0.00  0.00    +0.000 A 
ENDBRANCH  12  13
ENDBRANCH   6  12
TORSDOF 5
ENDMDL
MODEL 2
REMARK VINA RESULT:    -6.876      1.378      2.830
REMARK INTER + INTRA:          -9.049
REMARK INTER:                  -8.727
REMARK INTRA:                  -0.321
REMARK UNBOUND:                -0.364
REMARK  Name = 
REMARK  5 active torsions:
REMARK  status: ('A' for Active; 'I' for Inactive)
REMARK    1  A    between atoms: N_1  and  C_2
REMARK    2  A    between atoms: C_2  and  C_3
REMARK    3  A    between atoms: C_3  and  C_4
REMARK    4  A    between atoms: C_9  and  C_10
REMARK    5  A    between atoms: C_10  and  N_11
REMARK                            x       y       z     vdW  Elec       q    Type
REMARK                         _______ _______ _______ _____ _____    ______ ____
ROOT
ATOM      1  C   UNL     1      44.449   5.020  12.099  0.00  0.00    +0.000 A 
ATOM      2  C   UNL     1      45.078   5.546  13.244  0.00  0.00    +0.000 A 
ATOM      3  C   UNL     1      46.052   4.823  13.917  0.00  0.00    +0.000 A 
ATOM      4  C   UNL     1      46.365   3.571  13.439  0.00  0.00    +0.000 A 
ATOM      5  N   UNL     1      45.783   3.019  12.355  0.00  0.00    +0.000 NA
ATOM      6  C   UNL     1      44.824   3.727  11.690  0.00  0.00    +0.000 A 
ENDROOT
BRANCH   1   7
ATOM      7  C   UNL     1      43.423   5.893  11.408  0.00  0.00    +0.000 C 
BRANCH   7   8
ATOM      8  C   UNL     1      43.865   7.364  11.288  0.00  0.00    +0.000 C 
BRANCH   8   9
ATOM      9  N   UNL     1      42.754   8.234  10.913  0.00  0.00    +0.000 NA
ATOM     10  H   UNL     1      42.871   8.542   9.948  0.00  0.00    +0.000 HD
ATOM     11  H   UNL     1      41.869   7.736  10.955  0.00  0.00    +0.000 HD
ENDBRANCH   8   9
ENDBRANCH   7   8
ENDBRANCH   1   7
BRANCH   6  12
ATOM     12  C   UNL     1      44.297   3.034  10.456  0.00  0.00    +0.000 C 
BRANCH  12  13
ATOM     13  N   UNL     1      45.023   3.350   9.226  0.00  0.00    +0.000 N 
ATOM     14  C   UNL     1      45.298   4.635   8.812  0.00  0.00    +0.000 A 
ATOM     15  C   UNL     1      46.227   4.574   7.801  0.00  0.00    +0.000 A 
ATOM     16  C   UNL     1      46.538   3.207   7.579  0.00  0.00    +0.000 A 
ATOM     17  C   UNL     1      47.437   2.545   6.717  0.00  0.00    +0.000 A 
ATOM     18  C   UNL     1      47.514   1.149   6.739  0.00  0.00    +0.000 A 
ATOM     19  C   UNL     1      46.698   0.412   7.592  0.00  0.00    +0.000 A 
ATOM     20  C   UNL     1      45.802   1.049   8.463  0.00  0.00    +0.000 A 
ATOM     21  C   UNL     1      45.748   2.453   8.454  0.00  0.00    +0.000 A 
ENDBRANCH  12  13
ENDBRANCH   6  12
TORSDOF 5
ENDMDL
MODEL 3
REMARK VINA RESULT:    -6.578      2.117      3.397
REMARK INTER + INTRA:          -8.673
REMARK INTER:                  -8.510
REMARK INTRA:                  -0.163
REMARK UNBOUND:                -0.364
REMARK  Name = 
REMARK  5 active torsions:
REMARK  status: ('A' for Active; 'I' for Inactive)
REMARK    1  A    between atoms: N_1  and  C_2
REMARK    2  A    between atoms: C_2  and  C_3
REMARK    3  A    between atoms: C_3  and  C_4
REMARK    4  A    between atoms: C_9  and  C_10
REMARK    5  A    between atoms: C_10  and  N_11
REMARK                            x       y       z     vdW  Elec       q    Type
REMARK                         _______ _______ _______ _____ _____    ______ ____
ROOT
ATOM      1  C   UNL     1      45.505   6.493  12.828  0.00  0.00    +0.000 A 
ATOM      2  C   UNL     1      46.449   7.481  13.166  0.00  0.00    +0.000 A 
ATOM      3  C   UNL     1      46.391   8.746  12.600  0.00  0.00    +0.000 A 
ATOM      4  C   UNL     1      45.393   8.992  11.683  0.00  0.00    +0.000 A 
ATOM      5  N   UNL     1      44.473   8.076  11.317  0.00  0.00    +0.000 NA
ATOM      6  C   UNL     1      44.528   6.830  11.873  0.00  0.00    +0.000 A 
ENDROOT
BRANCH   1   7
ATOM      7  C   UNL     1      45.624   5.152  13.522  0.00  0.00    +0.000 C 
BRANCH   7   8
ATOM      8  C   UNL     1      47.083   4.697  13.709  0.00  0.00    +0.000 C 
BRANCH   8   9
ATOM      9  N   UNL     1      47.175   3.259  13.951  0.00  0.00    +0.000 NA
ATOM     10  H   UNL     1      48.009   3.057  14.501  0.00  0.00    +0.000 HD
ATOM     11  H   UNL     1      46.381   2.928  14.492  0.00  0.00    +0.000 HD
ENDBRANCH   8   9
ENDBRANCH   7   8
ENDBRANCH   1   7
BRANCH   6  12
ATOM     12  C   UNL     1      43.407   5.917  11.437  0.00  0.00    +0.000 C 
BRANCH  12  13
ATOM     13  N   UNL     1      43.819   4.543  11.151  0.00  0.00    +0.000 N 
ATOM     14  C   UNL     1      43.281   3.440  11.774  0.00  0.00    +0.000 A 
ATOM     15  C   UNL     1      43.665   2.318  11.079  0.00  0.00    +0.000 A 
ATOM     16  C   UNL     1      44.470   2.740   9.989  0.00  0.00    +0.000 A 
ATOM     17  C   UNL     1      45.099   2.056   8.927  0.00  0.00    +0.000 A 
ATOM     18  C   UNL     1      45.840   2.775   7.985  0.00  0.00    +0.000 A 
ATOM     19  C   UNL     1      45.973   4.155   8.098  0.00  0.00    +0.000 A 
ATOM     20  C   UNL     1      45.350   4.858   9.140  0.00  0.00    +0.000 A 
ATOM     21  C   UNL     1      44.587   4.132  10.069  0.00  0.00    +0.000 A 
ENDBRANCH  12  13
ENDBRANCH   6  12
TORSDOF 5
ENDMDL
MODEL 4
REMARK VINA RESULT:    -6.532      2.796      4.749
REMARK INTER + INTRA:          -8.615
REMARK INTER:                  -8.104
REMARK INTRA:                  -0.511
REMARK UNBOUND:                -0.364
REMARK  Name = 
REMARK  5 active torsions:
REMARK  status: ('A' for Active; 'I' for Inactive)
REMARK    1  A    between atoms: N_1  and  C_2
REMARK    2  A    between atoms: C_2  and  C_3
REMARK    3  A    between atoms: C_3  and  C_4
REMARK    4  A    between atoms: C_9  and  C_10
REMARK    5  A    between atoms: C_10  and  N_11
REMARK                            x       y       z     vdW  Elec       q    Type
REMARK                         _______ _______ _______ _____ _____    ______ ____
ROOT
ATOM      1  C   UNL     1      45.686   7.697  12.222  0.00  0.00    +0.000 A 
ATOM      2  C   UNL     1      46.988   8.168  12.482  0.00  0.00    +0.000 A 
ATOM      3  C   UNL     1      47.893   7.399  13.199  0.00  0.00    +0.000 A 
ATOM      4  C   UNL     1      47.468   6.175  13.663  0.00  0.00    +0.000 A 
ATOM      5  N   UNL     1      46.229   5.686  13.451  0.00  0.00    +0.000 NA
ATOM      6  C   UNL     1      45.336   6.439  12.745  0.00  0.00    +0.000 A 
ENDROOT
BRANCH   1   7
ATOM      7  C   UNL     1      44.778   8.587  11.400  0.00  0.00    +0.000 C 
BRANCH   7   8
ATOM      8  C   UNL     1      44.840  10.067  11.822  0.00  0.00    +0.000 C 
BRANCH   8   9
ATOM      9  N   UNL     1      43.523  10.582  12.185  0.00  0.00    +0.000 NA
ATOM     10  H   UNL     1      43.626  11.351  12.847  0.00  0.00    +0.000 HD
ATOM     11  H   UNL     1      43.041  10.959  11.373  0.00  0.00    +0.000 HD
ENDBRANCH   8   9
ENDBRANCH   7   8
ENDBRANCH   1   7
BRANCH   6  12
ATOM     12  C   UNL     1      44.008   5.757  12.515  0.00  0.00    +0.000 C 
BRANCH  12  13
ATOM     13  N   UNL     1      44.104   4.442  11.882  0.00  0.00    +0.000 N 
ATOM     14  C   UNL     1      43.471   3.317  12.362  0.00  0.00    +0.000 A 
ATOM     15  C   UNL     1      43.523   2.343  11.394  0.00  0.00    +0.000 A 
ATOM     16  C   UNL     1      44.213   2.881  10.276  0.00  0.00    +0.000 A 
ATOM     17  C   UNL     1      44.527   2.377   8.996  0.00  0.00    +0.000 A 
ATOM     18  C   UNL     1      45.234   3.175   8.093  0.00  0.00    +0.000 A 
ATOM     19  C   UNL     1      45.642   4.456   8.455  0.00  0.00    +0.000 A 
ATOM     20  C   UNL     1      45.334   4.982   9.719  0.00  0.00    +0.000 A 
ATOM     21  C   UNL     1      44.601   4.183  10.612  0.00  0.00    +0.000 A 
ENDBRANCH  12  13
ENDBRANCH   6  12
TORSDOF 5
ENDMDL
MODEL 5
REMARK VINA RESULT:    -6.234      1.397      2.093
REMARK INTER + INTRA:          -8.237
REMARK INTER:                  -7.959
REMARK INTRA:                  -0.278
REMARK UNBOUND:                -0.364
REMARK  Name = 
REMARK  5 active torsions:
REMARK  status: ('A' for Active; 'I' for Inactive)
REMARK    1  A    between atoms: N_1  and  C_2
REMARK    2  A    between atoms: C_2  and  C_3
REMARK    3  A    between atoms: C_3  and  C_4
REMARK    4  A    between atoms: C_9  and  C_10
REMARK    5  A    between atoms: C_10  and  N_11
REMARK                            x       y       z     vdW  Elec       q    Type
REMARK                         _______ _______ _______ _____ _____    ______ ____
ROOT
ATOM      1  C   UNL     1      45.108   5.678  11.709  0.00  0.00    +0.000 A 
ATOM      2  C   UNL     1      44.418   5.838  12.926  0.00  0.00    +0.000 A 
ATOM      3  C   UNL     1      43.056   5.587  13.012  0.00  0.00    +0.000 A 
ATOM      4  C   UNL     1      42.404   5.198  11.864  0.00  0.00    +0.000 A 
ATOM      5  N   UNL     1      43.017   5.042  10.673  0.00  0.00    +0.000 NA
ATOM      6  C   UNL     1      44.357   5.288  10.585  0.00  0.00    +0.000 A 
ENDROOT
BRANCH   1   7
ATOM      7  C   UNL     1      46.599   5.939  11.717  0.00  0.00    +0.000 C 
BRANCH   7   8
ATOM      8  C   UNL     1      47.245   5.709  13.096  0.00  0.00    +0.000 C 
BRANCH   8   9
ATOM      9  N   UNL     1      48.635   6.156  13.125  0.00  0.00    +0.000 NA
ATOM     10  H   UNL     1      48.697   7.106  12.759  0.00  0.00    +0.000 HD
ATOM     11  H   UNL     1      48.990   6.187  14.077  0.00  0.00    +0.000 HD
ENDBRANCH   8   9
ENDBRANCH   7   8
ENDBRANCH   1   7
BRANCH   6  12
ATOM     12  C   UNL     1      44.941   5.013   9.220  0.00  0.00    +0.000 C 
BRANCH  12  13
ATOM     13  N   UNL     1      45.361   3.628   9.007  0.00  0.00    +0.000 N 
ATOM     14  C   UNL     1      44.737   2.544   9.584  0.00  0.00    +0.000 A 
ATOM     15  C   UNL     1      45.181   1.404   8.958  0.00  0.00    +0.000 A 
ATOM     16  C   UNL     1      46.113   1.793   7.961  0.00  0.00    +0.000 A 
ATOM     17  C   UNL     1      46.849   1.080   6.992  0.00  0.00    +0.000 A 
ATOM     18  C   UNL     1      47.706   1.770   6.129  0.00  0.00    +0.000 A 
ATOM     19  C   UNL     1      47.848   3.150   6.232  0.00  0.00    +0.000 A 
ATOM     20  C   UNL     1      47.119   3.882   7.183  0.00  0.00    +0.000 A 
ATOM     21  C   UNL     1      46.242   3.185   8.030  0.00  0.00    +0.000 A 
ENDBRANCH  12  13
ENDBRANCH   6  12
TORSDOF 5
ENDMDL
MODEL 6
REMARK VINA RESULT:    -6.119      2.332      5.730
REMARK INTER + INTRA:          -8.093
REMARK INTER:                  -7.732
REMARK INTRA:                  -0.362
REMARK UNBOUND:                -0.364
REMARK  Name = 
REMARK  5 active torsions:
REMARK  status: ('A' for Active; 'I' for Inactive)
REMARK    1  A    between atoms: N_1  and  C_2
REMARK    2  A    between atoms: C_2  and  C_3
REMARK    3  A    between atoms: C_3  and  C_4
REMARK    4  A    between atoms: C_9  and  C_10
REMARK    5  A    between atoms: C_10  and  N_11
REMARK                            x       y       z     vdW  Elec       q    Type
REMARK                         _______ _______ _______ _____ _____    ______ ____
ROOT
ATOM      1  C   UNL     1      44.504   3.934  10.424  0.00  0.00    +0.000 A 
ATOM      2  C   UNL     1      44.552   2.857   9.518  0.00  0.00    +0.000 A 
ATOM      3  C   UNL     1      45.303   2.937   8.355  0.00  0.00    +0.000 A 
ATOM      4  C   UNL     1      45.980   4.111   8.108  0.00  0.00    +0.000 A 
ATOM      5  N   UNL     1      45.955   5.174   8.937  0.00  0.00    +0.000 NA
ATOM      6  C   UNL     1      45.217   5.099  10.084  0.00  0.00    +0.000 A 
ENDROOT
BRANCH   1   7
ATOM      7  C   UNL     1      43.688   3.746  11.685  0.00  0.00    +0.000 C 
BRANCH   7   8
ATOM      8  C   UNL     1      42.640   4.854  11.898  0.00  0.00    +0.000 C 
BRANCH   8   9
ATOM      9  N   UNL     1      42.653   5.355  13.270  0.00  0.00    +0.000 NA
ATOM     10  H   UNL     1      42.950   6.330  13.276  0.00  0.00    +0.000 HD
ATOM     11  H   UNL     1      41.721   5.331  13.676  0.00  0.00    +0.000 HD
ENDBRANCH   8   9
ENDBRANCH   7   8
ENDBRANCH   1   7
BRANCH   6  12
ATOM     12  C   UNL     1      45.324   6.323  10.961  0.00  0.00    +0.000 C 
BRANCH  12  13
ATOM     13  N   UNL     1      46.593   6.448  11.677  0.00  0.00    +0.000 N 
ATOM     14  C   UNL     1      47.569   7.362  11.346  0.00  0.00    +0.000 A 
ATOM     15  C   UNL     1      48.479   7.415  12.375  0.00  0.00    +0.000 A 
ATOM     16  C   UNL     1      48.055   6.504  13.376  0.00  0.00    +0.000 A 
ATOM     17  C   UNL     1      48.552   6.166  14.652  0.00  0.00    +0.000 A 
ATOM     18  C   UNL     1      47.889   5.204  15.420  0.00  0.00    +0.000 A 
ATOM     19  C   UNL     1      46.754   4.569  14.926  0.00  0.00    +0.000 A 
ATOM     20  C   UNL     1      46.236   4.894  13.663  0.00  0.00    +0.000 A 
ATOM     21  C   UNL     1      46.893   5.880  12.908  0.00  0.00    +0.000 A 
ENDBRANCH  12  13
ENDBRANCH   6  12
TORSDOF 5
ENDMDL
MODEL 7
REMARK VINA RESULT:    -5.912      2.868      5.890
REMARK INTER + INTRA:          -7.831
REMARK INTER:                  -7.850
REMARK INTRA:                   0.019
REMARK UNBOUND:                -0.364
REMARK  Name = 
REMARK  5 active torsions:
REMARK  status: ('A' for Active; 'I' for Inactive)
REMARK    1  A    between atoms: N_1  and  C_2
REMARK    2  A    between atoms: C_2  and  C_3
REMARK    3  A    between atoms: C_3  and  C_4
REMARK    4  A    between atoms: C_9  and  C_10
REMARK    5  A    between atoms: C_10  and  N_11
REMARK                            x       y       z     vdW  Elec       q    Type
REMARK                         _______ _______ _______ _____ _____    ______ ____
ROOT
ATOM      1  C   UNL     1      44.326   4.005  10.362  0.00  0.00    +0.000 A 
ATOM      2  C   UNL     1      44.427   2.952   9.433  0.00  0.00    +0.000 A 
ATOM      3  C   UNL     1      45.259   3.053   8.328  0.00  0.00    +0.000 A 
ATOM      4  C   UNL     1      45.964   4.224   8.163  0.00  0.00    +0.000 A 
ATOM      5  N   UNL     1      45.893   5.265   9.017  0.00  0.00    +0.000 NA
ATOM      6  C   UNL     1      45.075   5.169  10.105  0.00  0.00    +0.000 A 
ENDROOT
BRANCH   1   7
ATOM      7  C   UNL     1      43.421   3.794  11.557  0.00  0.00    +0.000 C 
BRANCH   7   8
ATOM      8  C   UNL     1      42.513   5.003  11.848  0.00  0.00    +0.000 C 
BRANCH   8   9
ATOM      9  N   UNL     1      42.558   5.387  13.257  0.00  0.00    +0.000 NA
ATOM     10  H   UNL     1      42.793   6.377  13.335  0.00  0.00    +0.000 HD
ATOM     11  H   UNL     1      41.649   5.268  13.697  0.00  0.00    +0.000 HD
ENDBRANCH   8   9
ENDBRANCH   7   8
ENDBRANCH   1   7
BRANCH   6  12
ATOM     12  C   UNL     1      45.133   6.368  11.021  0.00  0.00    +0.000 C 
BRANCH  12  13
ATOM     13  N   UNL     1      46.128   6.269  12.089  0.00  0.00    +0.000 N 
ATOM     14  C   UNL     1      46.224   5.194  12.944  0.00  0.00    +0.000 A 
ATOM     15  C   UNL     1      47.420   5.280  13.616  0.00  0.00    +0.000 A 
ATOM     16  C   UNL     1      48.087   6.449  13.165  0.00  0.00    +0.000 A 
ATOM     17  C   UNL     1      49.343   7.021  13.455  0.00  0.00    +0.000 A 
ATOM     18  C   UNL     1      49.723   8.210  12.826  0.00  0.00    +0.000 A 
ATOM     19  C   UNL     1      48.863   8.839  11.930  0.00  0.00    +0.000 A 
ATOM     20  C   UNL     1      47.613   8.284  11.619  0.00  0.00    +0.000 A 
ATOM     21  C   UNL     1      47.248   7.076  12.236  0.00  0.00    +0.000 A 
ENDBRANCH  12  13
ENDBRANCH   6  12
TORSDOF 5
ENDMDL
MODEL 8
REMARK VINA RESULT:    -5.763      3.727      6.291
REMARK INTER + INTRA:          -7.642
REMARK INTER:                  -7.244
REMARK INTRA:                  -0.398
REMARK UNBOUND:                -0.364
REMARK  Name = 
REMARK  5 active torsions:
REMARK  status: ('A' for Active; 'I' for Inactive)
REMARK    1  A    between atoms: N_1  and  C_2
REMARK    2  A    between atoms: C_2  and  C_3
REMARK    3  A    between atoms: C_3  and  C_4
REMARK    4  A    between atoms: C_9  and  C_10
REMARK    5  A    between atoms: C_10  and  N_11
REMARK                            x       y       z     vdW  Elec       q    Type
REMARK                         _______ _______ _______ _____ _____    ______ ____
ROOT
ATOM      1  C   UNL     1      44.852   4.707  10.559  0.00  0.00    +0.000 A 
ATOM      2  C   UNL     1      44.359   3.388  10.583  0.00  0.00    +0.000 A 
ATOM      3  C   UNL     1      43.611   2.925  11.656  0.00  0.00    +0.000 A 
ATOM      4  C   UNL     1      43.386   3.792  12.701  0.00  0.00    +0.000 A 
ATOM      5  N   UNL     1      43.847   5.060  12.731  0.00  0.00    +0.000 NA
ATOM      6  C   UNL     1      44.583   5.518  11.677  0.00  0.00    +0.000 A 
ENDROOT
BRANCH   1   7
ATOM      7  C   UNL     1      45.627   5.136   9.333  0.00  0.00    +0.000 C 
BRANCH   7   8
ATOM      8  C   UNL     1      45.642   4.068   8.223  0.00  0.00    +0.000 C 
BRANCH   8   9
ATOM      9  N   UNL     1      46.706   4.311   7.252  0.00  0.00    +0.000 NA
ATOM     10  H   UNL     1      47.575   4.521   7.741  0.00  0.00    +0.000 HD
ATOM     11  H   UNL     1      46.881   3.484   6.687  0.00  0.00    +0.000 HD
ENDBRANCH   8   9
ENDBRANCH   7   8
ENDBRANCH   1   7
BRANCH   6  12
ATOM     12  C   UNL     1      44.982   6.970  11.796  0.00  0.00    +0.000 C 
BRANCH  12  13
ATOM     13  N   UNL     1      46.352   7.187  12.259  0.00  0.00    +0.000 N 
ATOM     14  C   UNL     1      47.215   6.167  12.593  0.00  0.00    +0.000 A 
ATOM     15  C   UNL     1      48.482   6.688  12.698  0.00  0.00    +0.000 A 
ATOM     16  C   UNL     1      48.403   8.078  12.421  0.00  0.00    +0.000 A 
ATOM     17  C   UNL     1      49.366   9.106  12.336  0.00  0.00    +0.000 A 
ATOM     18  C   UNL     1      48.960  10.409  12.034  0.00  0.00    +0.000 A 
ATOM     19  C   UNL     1      47.614  10.700  11.834  0.00  0.00    +0.000 A 
ATOM     20  C   UNL     1      46.640   9.693  11.906  0.00  0.00    +0.000 A 
ATOM     21  C   UNL     1      47.057   8.381  12.185  0.00  0.00    +0.000 A 
ENDBRANCH  12  13
ENDBRANCH   6  12
TORSDOF 5
ENDMDL
MODEL 9
REMARK VINA RESULT:    -5.610      4.025      5.815
REMARK INTER + INTRA:          -7.450
REMARK INTER:                  -6.849
REMARK INTRA:                  -0.601
REMARK UNBOUND:                -0.364
REMARK  Name = 
REMARK  5 active torsions:
REMARK  status: ('A' for Active; 'I' for Inactive)
REMARK    1  A    between atoms: N_1  and  C_2
REMARK    2  A    between atoms: C_2  and  C_3
REMARK    3  A    between atoms: C_3  and  C_4
REMARK    4  A    between atoms: C_9  and  C_10
REMARK    5  A    between atoms: C_10  and  N_11
REMARK                            x       y       z     vdW  Elec       q    Type
REMARK                         _______ _______ _______ _____ _____    ______ ____
ROOT
ATOM      1  C   UNL     1      47.967   5.508  15.649  0.00  0.00    +0.000 A 
ATOM      2  C   UNL     1      48.368   6.038  16.891  0.00  0.00    +0.000 A 
ATOM      3  C   UNL     1      48.957   7.291  16.974  0.00  0.00    +0.000 A 
ATOM      4  C   UNL     1      49.155   7.985  15.803  0.00  0.00    +0.000 A 
ATOM      5  N   UNL     1      48.801   7.516  14.588  0.00  0.00    +0.000 NA
ATOM      6  C   UNL     1      48.220   6.284  14.502  0.00  0.00    +0.000 A 
ENDROOT
BRANCH   1   7
ATOM      7  C   UNL     1      47.300   4.149  15.656  0.00  0.00    +0.000 C 
BRANCH   7   8
ATOM      8  C   UNL     1      47.752   3.261  16.830  0.00  0.00    +0.000 C 
BRANCH   8   9
ATOM      9  N   UNL     1      46.632   2.888  17.690  0.00  0.00    +0.000 NA
ATOM     10  H   UNL     1      46.944   2.207  18.382  0.00  0.00    +0.000 HD
ATOM     11  H   UNL     1      46.285   3.692  18.207  0.00  0.00    +0.000 HD
ENDBRANCH   8   9
ENDBRANCH   7   8
ENDBRANCH   1   7
BRANCH   6  12
ATOM     12  C   UNL     1      47.807   5.900  13.102  0.00  0.00    +0.000 C 
BRANCH  12  13
ATOM     13  N   UNL     1      46.437   6.274  12.749  0.00  0.00    +0.000 N 
ATOM     14  C   UNL     1      46.059   7.555  12.415  0.00  0.00    +0.000 A 
ATOM     15  C   UNL     1      44.801   7.505  11.863  0.00  0.00    +0.000 A 
ATOM     16  C   UNL     1      44.384   6.149  11.856  0.00  0.00    +0.000 A 
ATOM     17  C   UNL     1      43.230   5.492  11.381  0.00  0.00    +0.000 A 
ATOM     18  C   UNL     1      43.115   4.107  11.523  0.00  0.00    +0.000 A 
ATOM     19  C   UNL     1      44.124   3.376  12.144  0.00  0.00    +0.000 A 
ATOM     20  C   UNL     1      45.285   4.006  12.616  0.00  0.00    +0.000 A 
ATOM     21  C   UNL     1      45.405   5.396  12.447  0.00  0.00    +0.000 A 
ENDBRANCH  12  13
ENDBRANCH   6  12
TORSDOF 5
ENDMDL
