MODEL 1
REMARK VINA RESULT:    -7.706      0.000      0.000
REMARK INTER + INTRA:          -9.439
REMARK INTER:                  -9.058
REMARK INTRA:                  -0.381
REMARK UNBOUND:                -0.381
REMARK  Name = 
REMARK  3 active torsions:
REMARK  status: ('A' for Active; 'I' for Inactive)
REMARK    1  A    between atoms: C_2  and  C_4
REMARK    2  A    between atoms: N_8  and  C_9
REMARK    3  A    between atoms: C_9  and  C_10
REMARK                            x       y       z     vdW  Elec       q    Type
REMARK                         _______ _______ _______ _____ _____    ______ ____
ROOT
ATOM      1  C   UNL     1      46.290   4.930  12.993  0.00  0.00    +0.000 A 
ATOM      2  C   UNL     1      46.507   6.003  12.134  0.00  0.00    +0.000 A 
ATOM      3  C   UNL     1      46.009   5.935  10.835  0.00  0.00    +0.000 A 
ATOM      4  C   UNL     1      45.338   4.792  10.404  0.00  0.00    +0.000 A 
ATOM      5  N   UNL     1      44.929   4.758   9.072  0.00  0.00    +0.000 N 
ATOM      6  N   UNL     1      45.136   3.740  11.221  0.00  0.00    +0.000 NA
ATOM      7  C   UNL     1      45.611   3.828  12.493  0.00  0.00    +0.000 A 
ATOM      8  H   UNL     1      44.257   5.495   8.885  0.00  0.00    +0.000 HD
ENDROOT
BRANCH   1  10
ATOM      9  N   UNL     1      47.506   5.982  14.817  0.00  0.00    +0.000 N 
ATOM     10  C   UNL     1      46.774   4.909  14.388  0.00  0.00    +0.000 C 
ATOM     11  O   UNL     1      46.505   3.987  15.146  0.00  0.00    +0.000 OA
ATOM     12  H   UNL     1      47.744   5.999  15.798  0.00  0.00    +0.000 HD
ATOM     13  H   UNL     1      47.559   6.853  14.307  0.00  0.00    +0.000 HD
ENDBRANCH   1  10
BRANCH   5  14
ATOM     14  C   UNL     1      44.505   3.469   8.550  0.00  0.00    +0.000 C 
BRANCH  14  15
ATOM     15  C   UNL     1      45.714   2.792   7.944  0.00  0.00    +0.000 A 
ATOM     16  C   UNL     1      45.973   1.440   8.210  0.00  0.00    +0.000 A 
ATOM     17  C   UNL     1      47.082   0.843   7.636  0.00  0.00    +0.000 A 
ATOM     18  N   UNL     1      47.938   1.488   6.816  0.00  0.00    +0.000 NA
ATOM     19  C   UNL     1      47.665   2.785   6.559  0.00  0.00    +0.000 A 
ATOM     20  C   UNL     1      46.582   3.473   7.088  0.00  0.00    +0.000 A 
ENDBRANCH  14  15
ENDBRANCH   5  14
TORSDOF 3
ENDMDL
MODEL 2
REMARK VINA RESULT:    -7.567      2.518      6.178
REMARK INTER + INTRA:          -9.276
REMARK INTER:                  -8.938
REMARK INTRA:                  -0.338
REMARK UNBOUND:                -0.381
REMARK  Name = 
REMARK  3 active torsions:
REMARK  status: ('A' for Active; 'I' for Inactive)
REMARK    1  A    between atoms: C_2  and  C_4
REMARK    2  A    between atoms: N_8  and  C_9
REMARK    3  A    between atoms: C_9  and  C_10
REMARK                            x       y       z     vdW  Elec       q    Type
REMARK                         _______ _______ _______ _____ _____    ______ ____
ROOT
ATOM      1  C   UNL     1      46.533   2.616   7.416  0.00  0.00    +0.000 A 
ATOM      2  C   UNL     1      45.974   1.643   8.240  0.00  0.00    +0.000 A 
ATOM      3  C   UNL     1      45.065   2.034   9.220  0.00  0.00    +0.000 A 
ATOM      4  C   UNL     1      44.755   3.383   9.386  0.00  0.00    +0.000 A 
ATOM      5  N   UNL     1      43.894   3.714  10.431  0.00  0.00    +0.000 N 
ATOM      6  N   UNL     1      45.301   4.335   8.606  0.00  0.00    +0.000 NA
ATOM      7  C   UNL     1      46.173   3.937   7.641  0.00  0.00    +0.000 A 
ATOM      8  H   UNL     1      42.983   3.292  10.291  0.00  0.00    +0.000 HD
ENDROOT
BRANCH   1  10
ATOM      9  N   UNL     1      47.474   3.078   5.223  0.00  0.00    +0.000 N 
ATOM     10  C   UNL     1      47.502   2.300   6.347  0.00  0.00    +0.000 C 
ATOM     11  O   UNL     1      48.323   1.402   6.473  0.00  0.00    +0.000 OA
ATOM     12  H   UNL     1      48.206   2.913   4.546  0.00  0.00    +0.000 HD
ATOM     13  H   UNL     1      46.977   3.956   5.171  0.00  0.00    +0.000 HD
ENDBRANCH   1  10
BRANCH   5  14
ATOM     14  C   UNL     1      43.810   5.122  10.788  0.00  0.00    +0.000 C 
BRANCH  14  15
ATOM     15  C   UNL     1      44.941   5.427  11.744  0.00  0.00    +0.000 A 
ATOM     16  C   UNL     1      45.102   4.668  12.911  0.00  0.00    +0.000 A 
ATOM     17  C   UNL     1      46.150   4.964  13.766  0.00  0.00    +0.000 A 
ATOM     18  N   UNL     1      47.047   5.945  13.537  0.00  0.00    +0.000 NA
ATOM     19  C   UNL     1      46.886   6.656  12.400  0.00  0.00    +0.000 A 
ATOM     20  C   UNL     1      45.866   6.440  11.484  0.00  0.00    +0.000 A 
ENDBRANCH  14  15
ENDBRANCH   5  14
TORSDOF 3
ENDMDL
MODEL 3
REMARK VINA RESULT:    -7.068      1.576      1.968
REMARK INTER + INTRA:          -8.689
REMARK INTER:                  -8.362
REMARK INTRA:                  -0.327
REMARK UNBOUND:                -0.381
REMARK  Name = 
REMARK  3 active torsions:
REMARK  status: ('A' for Active; 'I' for Inactive)
REMARK    1  A    between atoms: C_2  and  C_4
REMARK    2  A    between atoms: N_8  and  C_9
REMARK    3  A    between atoms: C_9  and  C_10
REMARK                            x       y       z     vdW  Elec       q    Type
REMARK                         _______ _______ _______ _____ _____    ______ ____
ROOT
ATOM      1  C   UNL     1      45.778   6.361  12.358  0.00  0.00    +0.000 A 
ATOM      2  C   UNL     1      45.146   5.242  12.891  0.00  0.00    +0.000 A 
ATOM      3  C   UNL     1      44.802   4.194  12.040  0.00  0.00    +0.000 A 
ATOM      4  C   UNL     1      45.062   4.292  10.674  0.00  0.00    +0.000 A 
ATOM      5  N   UNL     1      44.629   3.241   9.867  0.00  0.00    +0.000 N 
ATOM      6  N   UNL     1      45.659   5.376  10.143  0.00  0.00    +0.000 NA
ATOM      7  C   UNL     1      46.006   6.383  10.990  0.00  0.00    +0.000 A 
ATOM      8  H   UNL     1      45.096   2.378  10.122  0.00  0.00    +0.000 HD
ENDROOT
BRANCH   1  10
ATOM      9  N   UNL     1      47.243   7.349  14.028  0.00  0.00    +0.000 N 
ATOM     10  C   UNL     1      46.184   7.519  13.179  0.00  0.00    +0.000 C 
ATOM     11  O   UNL     1      45.621   8.601  13.082  0.00  0.00    +0.000 OA
ATOM     12  H   UNL     1      47.570   8.176  14.508  0.00  0.00    +0.000 HD
ATOM     13  H   UNL     1      47.870   6.559  13.977  0.00  0.00    +0.000 HD
ENDBRANCH   1  10
BRANCH   5  14
ATOM     14  C   UNL     1      44.629   3.475   8.432  0.00  0.00    +0.000 C 
BRANCH  14  15
ATOM     15  C   UNL     1      45.815   2.746   7.842  0.00  0.00    +0.000 A 
ATOM     16  C   UNL     1      46.030   1.392   8.139  0.00  0.00    +0.000 A 
ATOM     17  C   UNL     1      47.120   0.746   7.580  0.00  0.00    +0.000 A 
ATOM     18  N   UNL     1      47.995   1.343   6.746  0.00  0.00    +0.000 NA
ATOM     19  C   UNL     1      47.765   2.642   6.458  0.00  0.00    +0.000 A 
ATOM     20  C   UNL     1      46.705   3.378   6.971  0.00  0.00    +0.000 A 
ENDBRANCH  14  15
ENDBRANCH   5  14
TORSDOF 3
ENDMDL
MODEL 4
REMARK VINA RESULT:    -6.076      3.120      7.231
REMARK INTER + INTRA:          -7.523
REMARK INTER:                  -7.228
REMARK INTRA:                  -0.296
REMARK UNBOUND:                -0.381
REMARK  Name = 
REMARK  3 active torsions:
REMARK  status: ('A' for Active; 'I' for Inactive)
REMARK    1  A    between atoms: C_2  and  C_4
REMARK    2  A    between atoms: N_8  and  C_9
REMARK    3  A    between atoms: C_9  and  C_10
REMARK                            x       y       z     vdW  Elec       q    Type
REMARK                         _______ _______ _______ _____ _____    ______ ____
ROOT
ATOM      1  C   UNL     1      45.231   4.359  11.480  0.00  0.00    +0.000 A 
ATOM      2  C   UNL     1      45.771   5.618  11.721  0.00  0.00    +0.000 A 
ATOM      3  C   UNL     1      46.447   5.842  12.918  0.00  0.00    +0.000 A 
ATOM      4  C   UNL     1      46.542   4.823  13.865  0.00  0.00    +0.000 A 
ATOM      5  N   UNL     1      47.168   5.133  15.072  0.00  0.00    +0.000 N 
ATOM      6  N   UNL     1      46.010   3.605  13.651  0.00  0.00    +0.000 NA
ATOM      7  C   UNL     1      45.369   3.396  12.469  0.00  0.00    +0.000 A 
ATOM      8  H   UNL     1      48.138   5.386  14.917  0.00  0.00    +0.000 HD
ENDROOT
BRANCH   1  10
ATOM      9  N   UNL     1      44.701   4.831   9.154  0.00  0.00    +0.000 N 
ATOM     10  C   UNL     1      44.501   4.024  10.240  0.00  0.00    +0.000 C 
ATOM     11  O   UNL     1      43.772   3.043  10.171  0.00  0.00    +0.000 OA
ATOM     12  H   UNL     1      44.274   4.532   8.289  0.00  0.00    +0.000 HD
ATOM     13  H   UNL     1      45.453   5.504   9.097  0.00  0.00    +0.000 HD
ENDBRANCH   1  10
BRANCH   5  14
ATOM     14  C   UNL     1      47.004   4.180  16.158  0.00  0.00    +0.000 C 
BRANCH  14  15
ATOM     15  C   UNL     1      48.381   3.808  16.662  0.00  0.00    +0.000 A 
ATOM     16  C   UNL     1      49.248   4.800  17.141  0.00  0.00    +0.000 A 
ATOM     17  C   UNL     1      50.500   4.432  17.603  0.00  0.00    +0.000 A 
ATOM     18  N   UNL     1      50.941   3.157  17.633  0.00  0.00    +0.000 NA
ATOM     19  C   UNL     1      50.087   2.213  17.182  0.00  0.00    +0.000 A 
ATOM     20  C   UNL     1      48.815   2.481  16.695  0.00  0.00    +0.000 A 
ENDBRANCH  14  15
ENDBRANCH   5  14
TORSDOF 3
ENDMDL
MODEL 5
REMARK VINA RESULT:    -5.757      3.870      6.127
REMARK INTER + INTRA:          -7.148
REMARK INTER:                  -6.915
REMARK INTRA:                  -0.233
REMARK UNBOUND:                -0.381
REMARK  Name = 
REMARK  3 active torsions:
REMARK  status: ('A' for Active; 'I' for Inactive)
REMARK    1  A    between atoms: C_2  and  C_4
REMARK    2  A    between atoms: N_8  and  C_9
REMARK    3  A    between atoms: C_9  and  C_10
REMARK                            x       y       z     vdW  Elec       q    Type
REMARK                         _______ _______ _______ _____ _____    ______ ____
ROOT
ATOM      1  C   UNL     1      48.953   4.743  18.062  0.00  0.00    +0.000 A 
ATOM      2  C   UNL     1      48.157   3.603  18.064  0.00  0.00    +0.000 A 
ATOM      3  C   UNL     1      47.408   3.302  16.929  0.00  0.00    +0.000 A 
ATOM      4  C   UNL     1      47.439   4.156  15.828  0.00  0.00    +0.000 A 
ATOM      5  N   UNL     1      46.612   3.837  14.751  0.00  0.00    +0.000 N 
ATOM      6  N   UNL     1      48.194   5.272  15.818  0.00  0.00    +0.000 NA
ATOM      7  C   UNL     1      48.934   5.542  16.928  0.00  0.00    +0.000 A 
ATOM      8  H   UNL     1      46.878   2.945  14.349  0.00  0.00    +0.000 HD
ENDROOT
BRANCH   1  10
ATOM      9  N   UNL     1      49.736   4.353  20.331  0.00  0.00    +0.000 N 
ATOM     10  C   UNL     1      49.784   5.143  19.215  0.00  0.00    +0.000 C 
ATOM     11  O   UNL     1      50.517   6.122  19.167  0.00  0.00    +0.000 OA
ATOM     12  H   UNL     1      50.382   4.584  21.071  0.00  0.00    +0.000 HD
ATOM     13  H   UNL     1      49.329   3.428  20.335  0.00  0.00    +0.000 HD
ENDBRANCH   1  10
BRANCH   5  14
ATOM     14  C   UNL     1      46.420   4.869  13.745  0.00  0.00    +0.000 C 
BRANCH  14  15
ATOM     15  C   UNL     1      45.205   4.498  12.925  0.00  0.00    +0.000 A 
ATOM     16  C   UNL     1      44.087   5.344  12.899  0.00  0.00    +0.000 A 
ATOM     17  C   UNL     1      42.990   4.984  12.134  0.00  0.00    +0.000 A 
ATOM     18  N   UNL     1      42.934   3.859  11.391  0.00  0.00    +0.000 NA
ATOM     19  C   UNL     1      44.025   3.065  11.416  0.00  0.00    +0.000 A 
ATOM     20  C   UNL     1      45.169   3.335  12.154  0.00  0.00    +0.000 A 
ENDBRANCH  14  15
ENDBRANCH   5  14
TORSDOF 3
ENDMDL
MODEL 6
REMARK VINA RESULT:    -5.589      1.893      2.999
REMARK INTER + INTRA:          -6.950
REMARK INTER:                  -6.608
REMARK INTRA:                  -0.343
REMARK UNBOUND:                -0.381
REMARK  Name = 
REMARK  3 active torsions:
REMARK  status: ('A' for Active; 'I' for Inactive)
REMARK    1  A    between atoms: C_2  and  C_4
REMARK    2  A    between atoms: N_8  and  C_9
REMARK    3  A    between atoms: C_9  and  C_10
REMARK                            x       y       z     vdW  Elec       q    Type
REMARK                         _______ _______ _______ _____ _____    ______ ____
ROOT
ATOM      1  C   UNL     1      47.821   5.952  14.494  0.00  0.00    +0.000 A 
ATOM      2  C   UNL     1      47.145   4.840  14.986  0.00  0.00    +0.000 A 
ATOM      3  C   UNL     1      46.243   4.179  14.156  0.00  0.00    +0.000 A 
ATOM      4  C   UNL     1      46.006   4.655  12.867  0.00  0.00    +0.000 A 
ATOM      5  N   UNL     1      45.039   3.992  12.112  0.00  0.00    +0.000 N 
ATOM      6  N   UNL     1      46.642   5.739  12.384  0.00  0.00    +0.000 NA
ATOM      7  C   UNL     1      47.534   6.362  13.201  0.00  0.00    +0.000 A 
ATOM      8  H   UNL     1      45.311   3.029  11.948  0.00  0.00    +0.000 HD
ENDROOT
BRANCH   1  10
ATOM      9  N   UNL     1      48.358   7.266  16.468  0.00  0.00    +0.000 N 
ATOM     10  C   UNL     1      48.799   6.715  15.296  0.00  0.00    +0.000 C 
ATOM     11  O   UNL     1      49.966   6.825  14.947  0.00  0.00    +0.000 OA
ATOM     12  H   UNL     1      49.060   7.699  17.051  0.00  0.00    +0.000 HD
ATOM     13  H   UNL     1      47.480   7.014  16.900  0.00  0.00    +0.000 HD
ENDBRANCH   1  10
BRANCH   5  14
ATOM     14  C   UNL     1      44.583   4.658  10.903  0.00  0.00    +0.000 C 
BRANCH  14  15
ATOM     15  C   UNL     1      45.112   3.882   9.717  0.00  0.00    +0.000 A 
ATOM     16  C   UNL     1      45.686   4.558   8.631  0.00  0.00    +0.000 A 
ATOM     17  C   UNL     1      46.170   3.824   7.562  0.00  0.00    +0.000 A 
ATOM     18  N   UNL     1      46.132   2.477   7.502  0.00  0.00    +0.000 NA
ATOM     19  C   UNL     1      45.589   1.841   8.563  0.00  0.00    +0.000 A 
ATOM     20  C   UNL     1      45.074   2.487   9.678  0.00  0.00    +0.000 A 
ENDBRANCH  14  15
ENDBRANCH   5  14
TORSDOF 3
ENDMDL
MODEL 7
REMARK VINA RESULT:    -5.514      3.423      7.949
REMARK INTER + INTRA:          -6.863
REMARK INTER:                  -6.652
REMARK INTRA:                  -0.211
REMARK UNBOUND:                -0.381
REMARK  Name = 
REMARK  3 active torsions:
REMARK  status: ('A' for Active; 'I' for Inactive)
REMARK    1  A    between atoms: C_2  and  C_4
REMARK    2  A    between atoms: N_8  and  C_9
REMARK    3  A    between atoms: C_9  and  C_10
REMARK                            x       y       z     vdW  Elec       q    Type
REMARK                         _______ _______ _______ _____ _____    ______ ____
ROOT
ATOM      1  C   UNL     1      45.443   4.907  11.562  0.00  0.00    +0.000 A 
ATOM      2  C   UNL     1      46.123   6.069  11.909  0.00  0.00    +0.000 A 
ATOM      3  C   UNL     1      46.806   6.113  13.123  0.00  0.00    +0.000 A 
ATOM      4  C   UNL     1      46.770   5.015  13.981  0.00  0.00    +0.000 A 
ATOM      5  N   UNL     1      47.413   5.148  15.211  0.00  0.00    +0.000 N 
ATOM      6  N   UNL     1      46.102   3.890  13.664  0.00  0.00    +0.000 NA
ATOM      7  C   UNL     1      45.456   3.856  12.467  0.00  0.00    +0.000 A 
ATOM      8  H   UNL     1      48.408   5.298  15.081  0.00  0.00    +0.000 HD
ENDROOT
BRANCH   1  10
ATOM      9  N   UNL     1      43.401   5.208  10.276  0.00  0.00    +0.000 N 
ATOM     10  C   UNL     1      44.694   4.763  10.297  0.00  0.00    +0.000 C 
ATOM     11  O   UNL     1      45.217   4.298   9.293  0.00  0.00    +0.000 OA
ATOM     12  H   UNL     1      42.937   5.194   9.379  0.00  0.00    +0.000 HD
ATOM     13  H   UNL     1      43.008   5.795  10.998  0.00  0.00    +0.000 HD
ENDBRANCH   1  10
BRANCH   5  14
ATOM     14  C   UNL     1      47.126   4.134  16.213  0.00  0.00    +0.000 C 
BRANCH  14  15
ATOM     15  C   UNL     1      47.935   4.459  17.449  0.00  0.00    +0.000 A 
ATOM     16  C   UNL     1      49.241   3.969  17.586  0.00  0.00    +0.000 A 
ATOM     17  C   UNL     1      49.962   4.287  18.725  0.00  0.00    +0.000 A 
ATOM     18  N   UNL     1      49.483   5.061  19.721  0.00  0.00    +0.000 NA
ATOM     19  C   UNL     1      48.229   5.537  19.565  0.00  0.00    +0.000 A 
ATOM     20  C   UNL     1      47.425   5.271  18.465  0.00  0.00    +0.000 A 
ENDBRANCH  14  15
ENDBRANCH   5  14
TORSDOF 3
ENDMDL
MODEL 8
REMARK VINA RESULT:    -5.475      2.580      6.271
REMARK INTER + INTRA:          -6.816
REMARK INTER:                  -6.807
REMARK INTRA:                  -0.009
REMARK UNBOUND:                -0.381
REMARK  Name = 
REMARK  3 active torsions:
REMARK  status: ('A' for Active; 'I' for Inactive)
REMARK    1  A    between atoms: C_2  and  C_4
REMARK    2  A    between atoms: N_8  and  C_9
REMARK    3  A    between atoms: C_9  and  C_10
REMARK                            x       y       z     vdW  Elec       q    Type
REMARK                         _______ _______ _______ _____ _____    ______ ____
ROOT
ATOM      1  C   UNL     1      45.286   3.269   8.767  0.00  0.00    +0.000 A 
ATOM      2  C   UNL     1      44.384   2.699   9.659  0.00  0.00    +0.000 A 
ATOM      3  C   UNL     1      43.871   3.483  10.691  0.00  0.00    +0.000 A 
ATOM      4  C   UNL     1      44.290   4.805  10.835  0.00  0.00    +0.000 A 
ATOM      5  N   UNL     1      43.795   5.513  11.929  0.00  0.00    +0.000 N 
ATOM      6  N   UNL     1      45.174   5.364   9.987  0.00  0.00    +0.000 NA
ATOM      7  C   UNL     1      45.652   4.591   8.974  0.00  0.00    +0.000 A 
ATOM      8  H   UNL     1      42.786   5.603  11.870  0.00  0.00    +0.000 HD
ENDROOT
BRANCH   1  10
ATOM      9  N   UNL     1      46.408   1.289   7.911  0.00  0.00    +0.000 N 
ATOM     10  C   UNL     1      45.881   2.521   7.640  0.00  0.00    +0.000 C 
ATOM     11  O   UNL     1      45.873   2.967   6.501  0.00  0.00    +0.000 OA
ATOM     12  H   UNL     1      46.720   0.750   7.116  0.00  0.00    +0.000 HD
ATOM     13  H   UNL     1      46.235   0.793   8.775  0.00  0.00    +0.000 HD
ENDBRANCH   1  10
BRANCH   5  14
ATOM     14  C   UNL     1      44.452   6.771  12.245  0.00  0.00    +0.000 C 
BRANCH  14  15
ATOM     15  C   UNL     1      45.737   6.453  12.976  0.00  0.00    +0.000 A 
ATOM     16  C   UNL     1      46.731   7.433  13.113  0.00  0.00    +0.000 A 
ATOM     17  C   UNL     1      47.895   7.117  13.793  0.00  0.00    +0.000 A 
ATOM     18  N   UNL     1      48.133   5.912  14.350  0.00  0.00    +0.000 NA
ATOM     19  C   UNL     1      47.159   4.986  14.221  0.00  0.00    +0.000 A 
ATOM     20  C   UNL     1      45.961   5.202  13.555  0.00  0.00    +0.000 A 
ENDBRANCH  14  15
ENDBRANCH   5  14
TORSDOF 3
ENDMDL
MODEL 9
REMARK VINA RESULT:    -5.316      2.865      6.423
REMARK INTER + INTRA:          -6.630
REMARK INTER:                  -6.239
REMARK INTRA:                  -0.390
REMARK UNBOUND:                -0.381
REMARK  Name = 
REMARK  3 active torsions:
REMARK  status: ('A' for Active; 'I' for Inactive)
REMARK    1  A    between atoms: C_2  and  C_4
REMARK    2  A    between atoms: N_8  and  C_9
REMARK    3  A    between atoms: C_9  and  C_10
REMARK                            x       y       z     vdW  Elec       q    Type
REMARK                         _______ _______ _______ _____ _____    ______ ____
ROOT
ATOM      1  C   UNL     1      44.859   3.771  10.194  0.00  0.00    +0.000 A 
ATOM      2  C   UNL     1      45.005   3.286  11.490  0.00  0.00    +0.000 A 
ATOM      3  C   UNL     1      45.247   4.189  12.523  0.00  0.00    +0.000 A 
ATOM      4  C   UNL     1      45.374   5.549  12.243  0.00  0.00    +0.000 A 
ATOM      5  N   UNL     1      45.687   6.391  13.310  0.00  0.00    +0.000 N 
ATOM      6  N   UNL     1      45.250   6.029  10.991  0.00  0.00    +0.000 NA
ATOM      7  C   UNL     1      44.995   5.137   9.996  0.00  0.00    +0.000 A 
ATOM      8  H   UNL     1      44.952   6.373  14.008  0.00  0.00    +0.000 HD
ENDROOT
BRANCH   1  10
ATOM      9  N   UNL     1      44.300   3.497   7.843  0.00  0.00    +0.000 N 
ATOM     10  C   UNL     1      44.597   2.894   9.035  0.00  0.00    +0.000 C 
ATOM     11  O   UNL     1      44.675   1.676   9.123  0.00  0.00    +0.000 OA
ATOM     12  H   UNL     1      44.222   2.889   7.041  0.00  0.00    +0.000 HD
ATOM     13  H   UNL     1      44.446   4.482   7.672  0.00  0.00    +0.000 HD
ENDBRANCH   1  10
BRANCH   5  14
ATOM     14  C   UNL     1      46.110   7.741  12.975  0.00  0.00    +0.000 C 
BRANCH  14  15
ATOM     15  C   UNL     1      47.616   7.802  13.099  0.00  0.00    +0.000 A 
ATOM     16  C   UNL     1      48.423   7.655  11.962  0.00  0.00    +0.000 A 
ATOM     17  C   UNL     1      49.799   7.721  12.102  0.00  0.00    +0.000 A 
ATOM     18  N   UNL     1      50.421   7.933  13.281  0.00  0.00    +0.000 NA
ATOM     19  C   UNL     1      49.628   8.087  14.362  0.00  0.00    +0.000 A 
ATOM     20  C   UNL     1      48.241   8.032  14.326  0.00  0.00    +0.000 A 
ENDBRANCH  14  15
ENDBRANCH   5  14
TORSDOF 3
ENDMDL
