MODEL 1
REMARK VINA RESULT:    -9.538      0.000      0.000
REMARK INTER + INTRA:         -12.762
REMARK INTER:                 -11.768
REMARK INTRA:                  -0.994
REMARK UNBOUND:                -0.994
REMARK  Name = 
REMARK  4 active torsions:
REMARK  status: ('A' for Active; 'I' for Inactive)
REMARK    1  A    between atoms: C_2  and  C_4
REMARK    2  A    between atoms: N_8  and  C_9
REMARK    3  A    between atoms: C_9  and  C_10
REMARK    4  A    between atoms: C_15  and  C_16
REMARK                            x       y       z     vdW  Elec       q    Type
REMARK                         _______ _______ _______ _____ _____    ______ ____
ROOT
ATOM      1  C   UNL     1      43.467   4.898  11.011  0.00  0.00    +0.000 C 
ENDROOT
BRANCH   1   6
ATOM      2  C   UNL     1      46.376   2.287   7.692  0.00  0.00    +0.000 A 
ATOM      3  C   UNL     1      45.597   1.814   8.742  0.00  0.00    +0.000 A 
ATOM      4  C   UNL     1      44.750   2.696   9.412  0.00  0.00    +0.000 A 
ATOM      5  C   UNL     1      44.707   4.037   9.045  0.00  0.00    +0.000 A 
ATOM      6  N   UNL     1      43.845   4.951   9.614  0.00  0.00    +0.000 N 
ATOM      7  N   UNL     1      45.462   4.505   8.032  0.00  0.00    +0.000 NA
ATOM      8  C   UNL     1      46.285   3.634   7.384  0.00  0.00    +0.000 A 
ATOM      9  H   UNL     1      44.064   5.869   9.242  0.00  0.00    +0.000 HD
BRANCH   2  11
ATOM     10  N   UNL     1      48.419   1.992   6.414  0.00  0.00    +0.000 N 
ATOM     11  C   UNL     1      47.286   1.415   6.922  0.00  0.00    +0.000 C 
ATOM     12  O   UNL     1      47.052   0.224   6.769  0.00  0.00    +0.000 OA
ATOM     13  H   UNL     1      49.080   1.369   5.961  0.00  0.00    +0.000 HD
ATOM     14  H   UNL     1      48.764   2.884   6.730  0.00  0.00    +0.000 HD
ENDBRANCH   2  11
ENDBRANCH   1   6
BRANCH   1  15
ATOM     15  C   UNL     1      44.605   5.240  11.947  0.00  0.00    +0.000 A 
ATOM     16  C   UNL     1      44.907   4.416  13.037  0.00  0.00    +0.000 A 
ATOM     17  C   UNL     1      46.013   4.693  13.835  0.00  0.00    +0.000 A 
ATOM     18  C   UNL     1      46.823   5.793  13.554  0.00  0.00    +0.000 A 
ATOM     19  F   UNL     1      47.872   6.002  14.365  0.00  0.00    +0.000 F 
ATOM     20  C   UNL     1      46.565   6.657  12.476  0.00  0.00    +0.000 A 
ATOM     21  C   UNL     1      45.434   6.350  11.684  0.00  0.00    +0.000 A 
BRANCH  20  22
ATOM     22  C   UNL     1      47.430   7.824  12.158  0.00  0.00    +0.000 A 
ATOM     23  C   UNL     1      46.967   9.152  12.280  0.00  0.00    +0.000 A 
ATOM     24  C   UNL     1      47.782  10.251  11.980  0.00  0.00    +0.000 A 
ATOM     25  C   UNL     1      49.094  10.050  11.567  0.00  0.00    +0.000 A 
ATOM     26  C   UNL     1      49.571   8.754  11.451  0.00  0.00    +0.000 A 
ATOM     27  F   UNL     1      50.837   8.551  11.061  0.00  0.00    +0.000 F 
ATOM     28  C   UNL     1      48.760   7.656  11.731  0.00  0.00    +0.000 A 
ENDBRANCH  20  22
ENDBRANCH   1  15
TORSDOF 4
ENDMDL
MODEL 2
REMARK VINA RESULT:    -7.876      4.148      7.104
REMARK INTER + INTRA:         -10.711
REMARK INTER:                 -10.122
REMARK INTRA:                  -0.589
REMARK UNBOUND:                -0.994
REMARK  Name = 
REMARK  4 active torsions:
REMARK  status: ('A' for Active; 'I' for Inactive)
REMARK    1  A    between atoms: C_2  and  C_4
REMARK    2  A    between atoms: N_8  and  C_9
REMARK    3  A    between atoms: C_9  and  C_10
REMARK    4  A    between atoms: C_15  and  C_16
REMARK                            x       y       z     vdW  Elec       q    Type
REMARK                         _______ _______ _______ _____ _____    ______ ____
ROOT
ATOM      1  C   UNL     1      44.643   6.859  11.872  0.00  0.00    +0.000 C 
ENDROOT
BRANCH   1   6
ATOM      2  C   UNL     1      49.583   7.892  12.776  0.00  0.00    +0.000 A 
ATOM      3  C   UNL     1      48.740   8.408  11.797  0.00  0.00    +0.000 A 
ATOM      4  C   UNL     1      47.379   8.108  11.846  0.00  0.00    +0.000 A 
ATOM      5  C   UNL     1      46.881   7.284  12.849  0.00  0.00    +0.000 A 
ATOM      6  N   UNL     1      45.540   7.000  13.000  0.00  0.00    +0.000 N 
ATOM      7  N   UNL     1      47.691   6.774  13.797  0.00  0.00    +0.000 NA
ATOM      8  C   UNL     1      49.019   7.074  13.741  0.00  0.00    +0.000 A 
ATOM      9  H   UNL     1      45.441   6.315  13.742  0.00  0.00    +0.000 HD
BRANCH   2  11
ATOM     10  N   UNL     1      51.687   7.950  13.986  0.00  0.00    +0.000 N 
ATOM     11  C   UNL     1      51.033   8.174  12.805  0.00  0.00    +0.000 C 
ATOM     12  O   UNL     1      51.628   8.564  11.810  0.00  0.00    +0.000 OA
ATOM     13  H   UNL     1      52.696   8.064  13.975  0.00  0.00    +0.000 HD
ATOM     14  H   UNL     1      51.291   7.399  14.732  0.00  0.00    +0.000 HD
ENDBRANCH   2  11
ENDBRANCH   1   6
BRANCH   1  15
ATOM     15  C   UNL     1      44.433   5.420  11.456  0.00  0.00    +0.000 A 
ATOM     16  C   UNL     1      43.483   4.621  12.101  0.00  0.00    +0.000 A 
ATOM     17  C   UNL     1      43.236   3.328  11.647  0.00  0.00    +0.000 A 
ATOM     18  C   UNL     1      43.937   2.823  10.552  0.00  0.00    +0.000 A 
ATOM     19  F   UNL     1      43.649   1.569  10.170  0.00  0.00    +0.000 F 
ATOM     20  C   UNL     1      44.905   3.579   9.871  0.00  0.00    +0.000 A 
ATOM     21  C   UNL     1      45.134   4.887  10.354  0.00  0.00    +0.000 A 
BRANCH  20  22
ATOM     22  C   UNL     1      45.648   3.055   8.693  0.00  0.00    +0.000 A 
ATOM     23  C   UNL     1      46.057   3.894   7.635  0.00  0.00    +0.000 A 
ATOM     24  C   UNL     1      46.756   3.400   6.525  0.00  0.00    +0.000 A 
ATOM     25  C   UNL     1      47.082   2.051   6.455  0.00  0.00    +0.000 A 
ATOM     26  C   UNL     1      46.698   1.212   7.489  0.00  0.00    +0.000 A 
ATOM     27  F   UNL     1      47.014  -0.089   7.433  0.00  0.00    +0.000 F 
ATOM     28  C   UNL     1      45.987   1.694   8.586  0.00  0.00    +0.000 A 
ENDBRANCH  20  22
ENDBRANCH   1  15
TORSDOF 4
ENDMDL
MODEL 3
REMARK VINA RESULT:    -7.800      1.937      2.743
REMARK INTER + INTRA:         -10.618
REMARK INTER:                 -10.232
REMARK INTRA:                  -0.386
REMARK UNBOUND:                -0.994
REMARK  Name = 
REMARK  4 active torsions:
REMARK  status: ('A' for Active; 'I' for Inactive)
REMARK    1  A    between atoms: C_2  and  C_4
REMARK    2  A    between atoms: N_8  and  C_9
REMARK    3  A    between atoms: C_9  and  C_10
REMARK    4  A    between atoms: C_15  and  C_16
REMARK                            x       y       z     vdW  Elec       q    Type
REMARK                         _______ _______ _______ _____ _____    ______ ____
ROOT
ATOM      1  C   UNL     1      43.483   3.505  11.017  0.00  0.00    +0.000 C 
ENDROOT
BRANCH   1   6
ATOM      2  C   UNL     1      46.687   2.515   7.138  0.00  0.00    +0.000 A 
ATOM      3  C   UNL     1      46.171   3.734   7.565  0.00  0.00    +0.000 A 
ATOM      4  C   UNL     1      45.447   3.786   8.755  0.00  0.00    +0.000 A 
ATOM      5  C   UNL     1      45.226   2.625   9.489  0.00  0.00    +0.000 A 
ATOM      6  N   UNL     1      44.580   2.611  10.707  0.00  0.00    +0.000 N 
ATOM      7  N   UNL     1      45.717   1.439   9.080  0.00  0.00    +0.000 NA
ATOM      8  C   UNL     1      46.424   1.401   7.916  0.00  0.00    +0.000 A 
ATOM      9  H   UNL     1      44.469   1.645  10.997  0.00  0.00    +0.000 HD
BRANCH   2  11
ATOM     10  N   UNL     1      47.254   3.301   4.911  0.00  0.00    +0.000 N 
ATOM     11  C   UNL     1      47.477   2.378   5.898  0.00  0.00    +0.000 C 
ATOM     12  O   UNL     1      48.316   1.496   5.768  0.00  0.00    +0.000 OA
ATOM     13  H   UNL     1      47.860   3.252   4.099  0.00  0.00    +0.000 HD
ATOM     14  H   UNL     1      46.771   4.170   5.078  0.00  0.00    +0.000 HD
ENDBRANCH   2  11
ENDBRANCH   1   6
BRANCH   1  15
ATOM     15  C   UNL     1      43.923   4.938  11.214  0.00  0.00    +0.000 A 
ATOM     16  C   UNL     1      43.028   5.995  11.016  0.00  0.00    +0.000 A 
ATOM     17  C   UNL     1      43.420   7.302  11.291  0.00  0.00    +0.000 A 
ATOM     18  C   UNL     1      44.707   7.564  11.761  0.00  0.00    +0.000 A 
ATOM     19  F   UNL     1      45.018   8.847  12.004  0.00  0.00    +0.000 F 
ATOM     20  C   UNL     1      45.648   6.542  11.974  0.00  0.00    +0.000 A 
ATOM     21  C   UNL     1      45.221   5.226  11.686  0.00  0.00    +0.000 A 
BRANCH  20  22
ATOM     22  C   UNL     1      47.018   6.809  12.489  0.00  0.00    +0.000 A 
ATOM     23  C   UNL     1      48.008   7.425  11.694  0.00  0.00    +0.000 A 
ATOM     24  C   UNL     1      49.298   7.675  12.180  0.00  0.00    +0.000 A 
ATOM     25  C   UNL     1      49.627   7.331  13.486  0.00  0.00    +0.000 A 
ATOM     26  C   UNL     1      48.666   6.734  14.286  0.00  0.00    +0.000 A 
ATOM     27  F   UNL     1      48.972   6.406  15.549  0.00  0.00    +0.000 F 
ATOM     28  C   UNL     1      47.386   6.467  13.803  0.00  0.00    +0.000 A 
ENDBRANCH  20  22
ENDBRANCH   1  15
TORSDOF 4
ENDMDL
MODEL 4
REMARK VINA RESULT:    -7.793      2.840      3.387
REMARK INTER + INTRA:         -10.609
REMARK INTER:                 -10.150
REMARK INTRA:                  -0.459
REMARK UNBOUND:                -0.994
REMARK  Name = 
REMARK  4 active torsions:
REMARK  status: ('A' for Active; 'I' for Inactive)
REMARK    1  A    between atoms: C_2  and  C_4
REMARK    2  A    between atoms: N_8  and  C_9
REMARK    3  A    between atoms: C_9  and  C_10
REMARK    4  A    between atoms: C_15  and  C_16
REMARK                            x       y       z     vdW  Elec       q    Type
REMARK                         _______ _______ _______ _____ _____    ______ ____
ROOT
ATOM      1  C   UNL     1      43.497   3.906  11.042  0.00  0.00    +0.000 C 
ENDROOT
BRANCH   1   6
ATOM      2  C   UNL     1      46.679   2.536   7.262  0.00  0.00    +0.000 A 
ATOM      3  C   UNL     1      46.401   3.803   7.764  0.00  0.00    +0.000 A 
ATOM      4  C   UNL     1      45.625   3.923   8.916  0.00  0.00    +0.000 A 
ATOM      5  C   UNL     1      45.118   2.787   9.537  0.00  0.00    +0.000 A 
ATOM      6  N   UNL     1      44.402   2.823  10.715  0.00  0.00    +0.000 N 
ATOM      7  N   UNL     1      45.377   1.556   9.055  0.00  0.00    +0.000 NA
ATOM      8  C   UNL     1      46.137   1.450   7.929  0.00  0.00    +0.000 A 
ATOM      9  H   UNL     1      44.072   1.885  10.916  0.00  0.00    +0.000 HD
BRANCH   2  11
ATOM     10  N   UNL     1      47.293   3.165   4.999  0.00  0.00    +0.000 N 
ATOM     11  C   UNL     1      47.506   2.323   6.057  0.00  0.00    +0.000 C 
ATOM     12  O   UNL     1      48.362   1.450   6.015  0.00  0.00    +0.000 OA
ATOM     13  H   UNL     1      47.923   3.067   4.208  0.00  0.00    +0.000 HD
ATOM     14  H   UNL     1      46.791   4.034   5.087  0.00  0.00    +0.000 HD
ENDBRANCH   2  11
ENDBRANCH   1   6
BRANCH   1  15
ATOM     15  C   UNL     1      44.183   5.062  11.735  0.00  0.00    +0.000 A 
ATOM     16  C   UNL     1      45.116   4.835  12.752  0.00  0.00    +0.000 A 
ATOM     17  C   UNL     1      45.806   5.904  13.317  0.00  0.00    +0.000 A 
ATOM     18  C   UNL     1      45.569   7.206  12.874  0.00  0.00    +0.000 A 
ATOM     19  F   UNL     1      46.269   8.188  13.463  0.00  0.00    +0.000 F 
ATOM     20  C   UNL     1      44.640   7.492  11.859  0.00  0.00    +0.000 A 
ATOM     21  C   UNL     1      43.954   6.387  11.306  0.00  0.00    +0.000 A 
BRANCH  20  22
ATOM     22  C   UNL     1      44.389   8.874  11.370  0.00  0.00    +0.000 A 
ATOM     23  C   UNL     1      45.288   9.931  11.624  0.00  0.00    +0.000 A 
ATOM     24  C   UNL     1      45.051  11.233  11.163  0.00  0.00    +0.000 A 
ATOM     25  C   UNL     1      43.912  11.508  10.415  0.00  0.00    +0.000 A 
ATOM     26  C   UNL     1      43.021  10.481  10.146  0.00  0.00    +0.000 A 
ATOM     27  F   UNL     1      41.924  10.735   9.419  0.00  0.00    +0.000 F 
ATOM     28  C   UNL     1      43.242   9.188  10.616  0.00  0.00    +0.000 A 
ENDBRANCH  20  22
ENDBRANCH   1  15
TORSDOF 4
ENDMDL
MODEL 5
REMARK VINA RESULT:    -7.700      4.232      7.325
REMARK INTER + INTRA:         -10.495
REMARK INTER:                 -10.251
REMARK INTRA:                  -0.244
REMARK UNBOUND:                -0.994
REMARK  Name = 
REMARK  4 active torsions:
REMARK  status: ('A' for Active; 'I' for Inactive)
REMARK    1  A    between atoms: C_2  and  C_4
REMARK    2  A    between atoms: N_8  and  C_9
REMARK    3  A    between atoms: C_9  and  C_10
REMARK    4  A    between atoms: C_15  and  C_16
REMARK                            x       y       z     vdW  Elec       q    Type
REMARK                         _______ _______ _______ _____ _____    ______ ____
ROOT
ATOM      1  C   UNL     1      45.261   7.078  11.386  0.00  0.00    +0.000 C 
ENDROOT
BRANCH   1   6
ATOM      2  C   UNL     1      48.075   5.584  15.403  0.00  0.00    +0.000 A 
ATOM      3  C   UNL     1      47.041   4.916  14.755  0.00  0.00    +0.000 A 
ATOM      4  C   UNL     1      46.528   5.444  13.571  0.00  0.00    +0.000 A 
ATOM      5  C   UNL     1      47.034   6.636  13.061  0.00  0.00    +0.000 A 
ATOM      6  N   UNL     1      46.625   7.180  11.862  0.00  0.00    +0.000 N 
ATOM      7  N   UNL     1      48.032   7.292  13.685  0.00  0.00    +0.000 NA
ATOM      8  C   UNL     1      48.525   6.767  14.841  0.00  0.00    +0.000 A 
ATOM      9  H   UNL     1      47.073   8.085  11.755  0.00  0.00    +0.000 HD
BRANCH   2  11
ATOM     10  N   UNL     1      48.646   5.914  17.740  0.00  0.00    +0.000 N 
ATOM     11  C   UNL     1      48.683   5.083  16.653  0.00  0.00    +0.000 C 
ATOM     12  O   UNL     1      49.174   3.964  16.721  0.00  0.00    +0.000 OA
ATOM     13  H   UNL     1      48.988   5.531  18.615  0.00  0.00    +0.000 HD
ATOM     14  H   UNL     1      48.038   6.717  17.791  0.00  0.00    +0.000 HD
ENDBRANCH   2  11
ENDBRANCH   1   6
BRANCH   1  15
ATOM     15  C   UNL     1      44.863   5.665  11.026  0.00  0.00    +0.000 A 
ATOM     16  C   UNL     1      43.795   5.035  11.674  0.00  0.00    +0.000 A 
ATOM     17  C   UNL     1      43.381   3.769  11.268  0.00  0.00    +0.000 A 
ATOM     18  C   UNL     1      44.031   3.122  10.216  0.00  0.00    +0.000 A 
ATOM     19  F   UNL     1      43.581   1.904   9.879  0.00  0.00    +0.000 F 
ATOM     20  C   UNL     1      45.112   3.705   9.533  0.00  0.00    +0.000 A 
ATOM     21  C   UNL     1      45.509   4.990   9.968  0.00  0.00    +0.000 A 
BRANCH  20  22
ATOM     22  C   UNL     1      45.802   3.031   8.401  0.00  0.00    +0.000 A 
ATOM     23  C   UNL     1      46.205   3.734   7.247  0.00  0.00    +0.000 A 
ATOM     24  C   UNL     1      46.855   3.098   6.181  0.00  0.00    +0.000 A 
ATOM     25  C   UNL     1      47.136   1.739   6.250  0.00  0.00    +0.000 A 
ATOM     26  C   UNL     1      46.757   1.031   7.381  0.00  0.00    +0.000 A 
ATOM     27  F   UNL     1      47.031  -0.278   7.460  0.00  0.00    +0.000 F 
ATOM     28  C   UNL     1      46.096   1.655   8.437  0.00  0.00    +0.000 A 
ENDBRANCH  20  22
ENDBRANCH   1  15
TORSDOF 4
ENDMDL
MODEL 6
REMARK VINA RESULT:    -6.925      5.756      8.242
REMARK INTER + INTRA:          -9.538
REMARK INTER:                  -8.680
REMARK INTRA:                  -0.858
REMARK UNBOUND:                -0.994
REMARK  Name = 
REMARK  4 active torsions:
REMARK  status: ('A' for Active; 'I' for Inactive)
REMARK    1  A    between atoms: C_2  and  C_4
REMARK    2  A    between atoms: N_8  and  C_9
REMARK    3  A    between atoms: C_9  and  C_10
REMARK    4  A    between atoms: C_15  and  C_16
REMARK                            x       y       z     vdW  Elec       q    Type
REMARK                         _______ _______ _______ _____ _____    ______ ____
ROOT
ATOM      1  C   UNL     1      48.754   6.555  16.238  0.00  0.00    +0.000 C 
ENDROOT
BRANCH   1   6
ATOM      2  C   UNL     1      51.537   2.471  17.604  0.00  0.00    +0.000 A 
ATOM      3  C   UNL     1      51.862   3.821  17.673  0.00  0.00    +0.000 A 
ATOM      4  C   UNL     1      50.879   4.772  17.403  0.00  0.00    +0.000 A 
ATOM      5  C   UNL     1      49.597   4.368  17.046  0.00  0.00    +0.000 A 
ATOM      6  N   UNL     1      48.557   5.249  16.832  0.00  0.00    +0.000 N 
ATOM      7  N   UNL     1      49.274   3.062  16.971  0.00  0.00    +0.000 NA
ATOM      8  C   UNL     1      50.243   2.142  17.238  0.00  0.00    +0.000 A 
ATOM      9  H   UNL     1      47.756   4.720  16.502  0.00  0.00    +0.000 HD
BRANCH   2  11
ATOM     10  N   UNL     1      52.016   0.165  18.195  0.00  0.00    +0.000 N 
ATOM     11  C   UNL     1      52.516   1.403  17.891  0.00  0.00    +0.000 C 
ATOM     12  O   UNL     1      53.721   1.607  17.831  0.00  0.00    +0.000 OA
ATOM     13  H   UNL     1      52.693  -0.583  18.307  0.00  0.00    +0.000 HD
ATOM     14  H   UNL     1      51.061  -0.098  18.006  0.00  0.00    +0.000 HD
ENDBRANCH   2  11
ENDBRANCH   1   6
BRANCH   1  15
ATOM     15  C   UNL     1      48.291   6.629  14.801  0.00  0.00    +0.000 A 
ATOM     16  C   UNL     1      49.044   7.313  13.841  0.00  0.00    +0.000 A 
ATOM     17  C   UNL     1      48.654   7.295  12.505  0.00  0.00    +0.000 A 
ATOM     18  C   UNL     1      47.509   6.599  12.118  0.00  0.00    +0.000 A 
ATOM     19  F   UNL     1      47.190   6.625  10.814  0.00  0.00    +0.000 F 
ATOM     20  C   UNL     1      46.712   5.899  13.040  0.00  0.00    +0.000 A 
ATOM     21  C   UNL     1      47.133   5.936  14.388  0.00  0.00    +0.000 A 
BRANCH  20  22
ATOM     22  C   UNL     1      45.497   5.141  12.636  0.00  0.00    +0.000 A 
ATOM     23  C   UNL     1      45.500   3.735  12.515  0.00  0.00    +0.000 A 
ATOM     24  C   UNL     1      44.356   3.022  12.133  0.00  0.00    +0.000 A 
ATOM     25  C   UNL     1      43.168   3.698  11.881  0.00  0.00    +0.000 A 
ATOM     26  C   UNL     1      43.141   5.079  12.005  0.00  0.00    +0.000 A 
ATOM     27  F   UNL     1      41.999   5.738  11.771  0.00  0.00    +0.000 F 
ATOM     28  C   UNL     1      44.281   5.795  12.366  0.00  0.00    +0.000 A 
ENDBRANCH  20  22
ENDBRANCH   1  15
TORSDOF 4
ENDMDL
MODEL 7
REMARK VINA RESULT:    -6.784      5.546      8.267
REMARK INTER + INTRA:          -9.364
REMARK INTER:                  -8.689
REMARK INTRA:                  -0.676
REMARK UNBOUND:                -0.994
REMARK  Name = 
REMARK  4 active torsions:
REMARK  status: ('A' for Active; 'I' for Inactive)
REMARK    1  A    between atoms: C_2  and  C_4
REMARK    2  A    between atoms: N_8  and  C_9
REMARK    3  A    between atoms: C_9  and  C_10
REMARK    4  A    between atoms: C_15  and  C_16
REMARK                            x       y       z     vdW  Elec       q    Type
REMARK                         _______ _______ _______ _____ _____    ______ ____
ROOT
ATOM      1  C   UNL     1      48.443   7.352  14.252  0.00  0.00    +0.000 C 
ENDROOT
BRANCH   1   6
ATOM      2  C   UNL     1      51.239   4.733  17.660  0.00  0.00    +0.000 A 
ATOM      3  C   UNL     1      51.550   5.907  16.982  0.00  0.00    +0.000 A 
ATOM      4  C   UNL     1      50.562   6.537  16.225  0.00  0.00    +0.000 A 
ATOM      5  C   UNL     1      49.291   5.979  16.134  0.00  0.00    +0.000 A 
ATOM      6  N   UNL     1      48.247   6.580  15.462  0.00  0.00    +0.000 N 
ATOM      7  N   UNL     1      48.983   4.839  16.783  0.00  0.00    +0.000 NA
ATOM      8  C   UNL     1      49.955   4.233  17.520  0.00  0.00    +0.000 A 
ATOM      9  H   UNL     1      47.458   5.942  15.466  0.00  0.00    +0.000 HD
BRANCH   2  11
ATOM     10  N   UNL     1      52.012   4.019  19.848  0.00  0.00    +0.000 N 
ATOM     11  C   UNL     1      52.223   4.014  18.496  0.00  0.00    +0.000 C 
ATOM     12  O   UNL     1      53.168   3.417  17.998  0.00  0.00    +0.000 OA
ATOM     13  H   UNL     1      52.643   3.452  20.407  0.00  0.00    +0.000 HD
ATOM     14  H   UNL     1      51.129   4.274  20.261  0.00  0.00    +0.000 HD
ENDBRANCH   2  11
ENDBRANCH   1   6
BRANCH   1  15
ATOM     15  C   UNL     1      47.190   7.469  13.415  0.00  0.00    +0.000 A 
ATOM     16  C   UNL     1      46.470   8.668  13.369  0.00  0.00    +0.000 A 
ATOM     17  C   UNL     1      45.372   8.790  12.522  0.00  0.00    +0.000 A 
ATOM     18  C   UNL     1      44.982   7.718  11.719  0.00  0.00    +0.000 A 
ATOM     19  F   UNL     1      43.914   7.905  10.928  0.00  0.00    +0.000 F 
ATOM     20  C   UNL     1      45.664   6.490  11.728  0.00  0.00    +0.000 A 
ATOM     21  C   UNL     1      46.775   6.396  12.598  0.00  0.00    +0.000 A 
BRANCH  20  22
ATOM     22  C   UNL     1      45.267   5.345  10.866  0.00  0.00    +0.000 A 
ATOM     23  C   UNL     1      45.646   5.265   9.509  0.00  0.00    +0.000 A 
ATOM     24  C   UNL     1      45.270   4.187   8.697  0.00  0.00    +0.000 A 
ATOM     25  C   UNL     1      44.517   3.147   9.229  0.00  0.00    +0.000 A 
ATOM     26  C   UNL     1      44.143   3.201  10.562  0.00  0.00    +0.000 A 
ATOM     27  F   UNL     1      43.423   2.199  11.085  0.00  0.00    +0.000 F 
ATOM     28  C   UNL     1      44.499   4.279  11.370  0.00  0.00    +0.000 A 
ENDBRANCH  20  22
ENDBRANCH   1  15
TORSDOF 4
ENDMDL
MODEL 8
REMARK VINA RESULT:    -6.669      5.588      8.448
REMARK INTER + INTRA:          -9.223
REMARK INTER:                  -8.315
REMARK INTRA:                  -0.908
REMARK UNBOUND:                -0.994
REMARK  Name = 
REMARK  4 active torsions:
REMARK  status: ('A' for Active; 'I' for Inactive)
REMARK    1  A    between atoms: C_2  and  C_4
REMARK    2  A    between atoms: N_8  and  C_9
REMARK    3  A    between atoms: C_9  and  C_10
REMARK    4  A    between atoms: C_15  and  C_16
REMARK                            x       y       z     vdW  Elec       q    Type
REMARK                         _______ _______ _______ _____ _____    ______ ____
ROOT
ATOM      1  C   UNL     1      49.163   7.329  13.838  0.00  0.00    +0.000 C 
ENDROOT
BRANCH   1   6
ATOM      2  C   UNL     1      48.439   5.921  18.715  0.00  0.00    +0.000 A 
ATOM      3  C   UNL     1      48.939   5.181  17.649  0.00  0.00    +0.000 A 
ATOM      4  C   UNL     1      49.209   5.824  16.442  0.00  0.00    +0.000 A 
ATOM      5  C   UNL     1      48.957   7.185  16.304  0.00  0.00    +0.000 A 
ATOM      6  N   UNL     1      49.263   7.900  15.166  0.00  0.00    +0.000 N 
ATOM      7  N   UNL     1      48.467   7.909  17.329  0.00  0.00    +0.000 NA
ATOM      8  C   UNL     1      48.208   7.270  18.505  0.00  0.00    +0.000 A 
ATOM      9  H   UNL     1      48.907   8.844  15.278  0.00  0.00    +0.000 HD
BRANCH   2  11
ATOM     10  N   UNL     1      48.563   4.033  20.237  0.00  0.00    +0.000 N 
ATOM     11  C   UNL     1      48.142   5.319  20.031  0.00  0.00    +0.000 C 
ATOM     12  O   UNL     1      47.569   5.952  20.908  0.00  0.00    +0.000 OA
ATOM     13  H   UNL     1      48.431   3.657  21.170  0.00  0.00    +0.000 HD
ATOM     14  H   UNL     1      49.245   3.583  19.647  0.00  0.00    +0.000 HD
ENDBRANCH   2  11
ENDBRANCH   1   6
BRANCH   1  15
ATOM     15  C   UNL     1      47.767   7.410  13.261  0.00  0.00    +0.000 A 
ATOM     16  C   UNL     1      47.011   8.581  13.379  0.00  0.00    +0.000 A 
ATOM     17  C   UNL     1      45.766   8.673  12.763  0.00  0.00    +0.000 A 
ATOM     18  C   UNL     1      45.265   7.597  12.030  0.00  0.00    +0.000 A 
ATOM     19  F   UNL     1      44.058   7.753  11.465  0.00  0.00    +0.000 F 
ATOM     20  C   UNL     1      45.979   6.395  11.883  0.00  0.00    +0.000 A 
ATOM     21  C   UNL     1      47.239   6.332  12.520  0.00  0.00    +0.000 A 
BRANCH  20  22
ATOM     22  C   UNL     1      45.461   5.247  11.092  0.00  0.00    +0.000 A 
ATOM     23  C   UNL     1      44.776   4.172  11.697  0.00  0.00    +0.000 A 
ATOM     24  C   UNL     1      44.289   3.090  10.950  0.00  0.00    +0.000 A 
ATOM     25  C   UNL     1      44.459   3.066   9.571  0.00  0.00    +0.000 A 
ATOM     26  C   UNL     1      45.119   4.118   8.956  0.00  0.00    +0.000 A 
ATOM     27  F   UNL     1      45.280   4.107   7.626  0.00  0.00    +0.000 F 
ATOM     28  C   UNL     1      45.621   5.188   9.695  0.00  0.00    +0.000 A 
ENDBRANCH  20  22
ENDBRANCH   1  15
TORSDOF 4
ENDMDL
