MODEL 1
REMARK VINA RESULT:    -8.015      0.000      0.000
REMARK INTER + INTRA:          -9.995
REMARK INTER:                  -9.421
REMARK INTRA:                  -0.575
REMARK UNBOUND:                -0.575
REMARK  Name = 
REMARK  3 active torsions:
REMARK  status: ('A' for Active; 'I' for Inactive)
REMARK    1  A    between atoms: C_2  and  C_4
REMARK    2  A    between atoms: C_7  and  C_8
REMARK    3  A    between atoms: C_8  and  N_9
REMARK                            x       y       z     vdW  Elec       q    Type
REMARK                         _______ _______ _______ _____ _____    ______ ____
ROOT
ATOM      1  C   UNL     1      46.647   2.623   7.312  0.00  0.00    +0.000 A 
ATOM      2  C   UNL     1      46.083   1.666   8.163  0.00  0.00    +0.000 A 
ATOM      3  C   UNL     1      45.247   2.064   9.210  0.00  0.00    +0.000 A 
ATOM      4  C   UNL     1      44.963   3.422   9.423  0.00  0.00    +0.000 A 
ATOM      5  C   UNL     1      45.543   4.375   8.573  0.00  0.00    +0.000 A 
ATOM      6  C   UNL     1      46.382   3.978   7.528  0.00  0.00    +0.000 A 
ENDROOT
BRANCH   1   8
ATOM      7  N   UNL     1      47.474   2.990   5.047  0.00  0.00    +0.000 N 
ATOM      8  C   UNL     1      47.551   2.248   6.193  0.00  0.00    +0.000 C 
ATOM      9  O   UNL     1      48.361   1.338   6.298  0.00  0.00    +0.000 OA
ATOM     10  H   UNL     1      48.167   2.786   4.338  0.00  0.00    +0.000 HD
ATOM     11  H   UNL     1      47.015   3.889   5.011  0.00  0.00    +0.000 HD
ENDBRANCH   1   8
BRANCH   4  12
ATOM     12  C   UNL     1      44.051   3.855  10.544  0.00  0.00    +0.000 C 
BRANCH  12  13
ATOM     13  N   UNL     1      44.775   4.406  11.683  0.00  0.00    +0.000 N 
ATOM     14  C   UNL     1      45.434   3.641  12.619  0.00  0.00    +0.000 A 
ATOM     15  C   UNL     1      46.147   4.488  13.440  0.00  0.00    +0.000 A 
ATOM     16  C   UNL     1      45.915   5.806  12.988  0.00  0.00    +0.000 A 
ATOM     17  N   UNL     1      46.430   6.964  13.469  0.00  0.00    +0.000 NA
ATOM     18  C   UNL     1      46.026   8.075  12.821  0.00  0.00    +0.000 A 
ATOM     19  C   UNL     1      45.146   8.109  11.750  0.00  0.00    +0.000 A 
ATOM     20  C   UNL     1      44.623   6.914  11.260  0.00  0.00    +0.000 A 
ATOM     21  C   UNL     1      45.040   5.744  11.904  0.00  0.00    +0.000 A 
ENDBRANCH  12  13
ENDBRANCH   4  12
TORSDOF 3
ENDMDL
MODEL 2
REMARK VINA RESULT:    -7.263      1.292      2.352
REMARK INTER + INTRA:          -9.112
REMARK INTER:                  -8.679
REMARK INTRA:                  -0.433
REMARK UNBOUND:                -0.575
REMARK  Name = 
REMARK  3 active torsions:
REMARK  status: ('A' for Active; 'I' for Inactive)
REMARK    1  A    between atoms: C_2  and  C_4
REMARK    2  A    between atoms: C_7  and  C_8
REMARK    3  A    between atoms: C_8  and  N_9
REMARK                            x       y       z     vdW  Elec       q    Type
REMARK                         _______ _______ _______ _____ _____    ______ ____
ROOT
ATOM      1  C   UNL     1      46.087   2.080   8.045  0.00  0.00    +0.000 A 
ATOM      2  C   UNL     1      45.157   1.670   9.007  0.00  0.00    +0.000 A 
ATOM      3  C   UNL     1      44.448   2.621   9.748  0.00  0.00    +0.000 A 
ATOM      4  C   UNL     1      44.657   3.993   9.539  0.00  0.00    +0.000 A 
ATOM      5  C   UNL     1      45.600   4.395   8.582  0.00  0.00    +0.000 A 
ATOM      6  C   UNL     1      46.313   3.445   7.844  0.00  0.00    +0.000 A 
ENDROOT
BRANCH   1   8
ATOM      7  N   UNL     1      46.847  -0.201   7.640  0.00  0.00    +0.000 N 
ATOM      8  C   UNL     1      46.873   1.107   7.243  0.00  0.00    +0.000 C 
ATOM      9  O   UNL     1      47.490   1.448   6.243  0.00  0.00    +0.000 OA
ATOM     10  H   UNL     1      47.302  -0.862   7.023  0.00  0.00    +0.000 HD
ATOM     11  H   UNL     1      46.162  -0.559   8.288  0.00  0.00    +0.000 HD
ENDBRANCH   1   8
BRANCH   4  12
ATOM     12  C   UNL     1      43.883   5.021  10.326  0.00  0.00    +0.000 C 
BRANCH  12  13
ATOM     13  N   UNL     1      44.737   5.841  11.178  0.00  0.00    +0.000 N 
ATOM     14  C   UNL     1      44.709   7.217  11.200  0.00  0.00    +0.000 A 
ATOM     15  C   UNL     1      45.511   7.646  12.235  0.00  0.00    +0.000 A 
ATOM     16  C   UNL     1      46.040   6.496  12.862  0.00  0.00    +0.000 A 
ATOM     17  N   UNL     1      46.856   6.425  13.943  0.00  0.00    +0.000 NA
ATOM     18  C   UNL     1      47.191   5.175  14.317  0.00  0.00    +0.000 A 
ATOM     19  C   UNL     1      46.785   4.008  13.688  0.00  0.00    +0.000 A 
ATOM     20  C   UNL     1      45.946   4.088  12.579  0.00  0.00    +0.000 A 
ATOM     21  C   UNL     1      45.568   5.375  12.179  0.00  0.00    +0.000 A 
ENDBRANCH  12  13
ENDBRANCH   4  12
TORSDOF 3
ENDMDL
MODEL 3
REMARK VINA RESULT:    -7.096      1.071      2.514
REMARK INTER + INTRA:          -8.915
REMARK INTER:                  -8.351
REMARK INTRA:                  -0.564
REMARK UNBOUND:                -0.575
REMARK  Name = 
REMARK  3 active torsions:
REMARK  status: ('A' for Active; 'I' for Inactive)
REMARK    1  A    between atoms: C_2  and  C_4
REMARK    2  A    between atoms: C_7  and  C_8
REMARK    3  A    between atoms: C_8  and  N_9
REMARK                            x       y       z     vdW  Elec       q    Type
REMARK                         _______ _______ _______ _____ _____    ______ ____
ROOT
ATOM      1  C   UNL     1      46.593   2.995   7.248  0.00  0.00    +0.000 A 
ATOM      2  C   UNL     1      46.446   4.345   7.586  0.00  0.00    +0.000 A 
ATOM      3  C   UNL     1      45.603   4.716   8.638  0.00  0.00    +0.000 A 
ATOM      4  C   UNL     1      44.895   3.747   9.365  0.00  0.00    +0.000 A 
ATOM      5  C   UNL     1      45.038   2.397   9.011  0.00  0.00    +0.000 A 
ATOM      6  C   UNL     1      45.878   2.025   7.957  0.00  0.00    +0.000 A 
ENDROOT
BRANCH   1   8
ATOM      7  N   UNL     1      48.768   2.252   6.432  0.00  0.00    +0.000 N 
ATOM      8  C   UNL     1      47.469   2.553   6.131  0.00  0.00    +0.000 C 
ATOM      9  O   UNL     1      47.041   2.423   4.992  0.00  0.00    +0.000 OA
ATOM     10  H   UNL     1      49.318   1.855   5.680  0.00  0.00    +0.000 HD
ATOM     11  H   UNL     1      49.086   2.099   7.377  0.00  0.00    +0.000 HD
ENDBRANCH   1   8
BRANCH   4  12
ATOM     12  C   UNL     1      43.995   4.143  10.509  0.00  0.00    +0.000 C 
BRANCH  12  13
ATOM     13  N   UNL     1      44.661   5.000  11.482  0.00  0.00    +0.000 N 
ATOM     14  C   UNL     1      44.372   6.335  11.657  0.00  0.00    +0.000 A 
ATOM     15  C   UNL     1      45.058   6.780  12.766  0.00  0.00    +0.000 A 
ATOM     16  C   UNL     1      45.783   5.683  13.282  0.00  0.00    +0.000 A 
ATOM     17  N   UNL     1      46.576   5.637  14.381  0.00  0.00    +0.000 NA
ATOM     18  C   UNL     1      47.135   4.436  14.626  0.00  0.00    +0.000 A 
ATOM     19  C   UNL     1      46.969   3.296  13.853  0.00  0.00    +0.000 A 
ATOM     20  C   UNL     1      46.152   3.350  12.727  0.00  0.00    +0.000 A 
ATOM     21  C   UNL     1      45.545   4.582  12.458  0.00  0.00    +0.000 A 
ENDBRANCH  12  13
ENDBRANCH   4  12
TORSDOF 3
ENDMDL
MODEL 4
REMARK VINA RESULT:    -6.276      3.134      6.064
REMARK INTER + INTRA:          -7.952
REMARK INTER:                  -7.369
REMARK INTRA:                  -0.583
REMARK UNBOUND:                -0.575
REMARK  Name = 
REMARK  3 active torsions:
REMARK  status: ('A' for Active; 'I' for Inactive)
REMARK    1  A    between atoms: C_2  and  C_4
REMARK    2  A    between atoms: C_7  and  C_8
REMARK    3  A    between atoms: C_8  and  N_9
REMARK                            x       y       z     vdW  Elec       q    Type
REMARK                         _______ _______ _______ _____ _____    ______ ____
ROOT
ATOM      1  C   UNL     1      48.430   7.053  13.209  0.00  0.00    +0.000 A 
ATOM      2  C   UNL     1      47.731   6.017  13.839  0.00  0.00    +0.000 A 
ATOM      3  C   UNL     1      46.423   5.715  13.449  0.00  0.00    +0.000 A 
ATOM      4  C   UNL     1      45.794   6.442  12.427  0.00  0.00    +0.000 A 
ATOM      5  C   UNL     1      46.497   7.487  11.809  0.00  0.00    +0.000 A 
ATOM      6  C   UNL     1      47.804   7.792  12.201  0.00  0.00    +0.000 A 
ENDROOT
BRANCH   1   8
ATOM      7  N   UNL     1      50.668   7.805  12.599  0.00  0.00    +0.000 N 
ATOM      8  C   UNL     1      49.817   7.419  13.597  0.00  0.00    +0.000 C 
ATOM      9  O   UNL     1      50.181   7.414  14.766  0.00  0.00    +0.000 OA
ATOM     10  H   UNL     1      51.573   8.149  12.895  0.00  0.00    +0.000 HD
ATOM     11  H   UNL     1      50.345   8.066  11.679  0.00  0.00    +0.000 HD
ENDBRANCH   1   8
BRANCH   4  12
ATOM     12  C   UNL     1      44.388   6.110  11.994  0.00  0.00    +0.000 C 
BRANCH  12  13
ATOM     13  N   UNL     1      44.248   4.733  11.534  0.00  0.00    +0.000 N 
ATOM     14  C   UNL     1      43.508   3.774  12.189  0.00  0.00    +0.000 A 
ATOM     15  C   UNL     1      43.454   2.654  11.389  0.00  0.00    +0.000 A 
ATOM     16  C   UNL     1      44.181   2.941  10.213  0.00  0.00    +0.000 A 
ATOM     17  N   UNL     1      44.376   2.150   9.128  0.00  0.00    +0.000 NA
ATOM     18  C   UNL     1      45.115   2.707   8.148  0.00  0.00    +0.000 A 
ATOM     19  C   UNL     1      45.676   3.975   8.182  0.00  0.00    +0.000 A 
ATOM     20  C   UNL     1      45.470   4.782   9.298  0.00  0.00    +0.000 A 
ATOM     21  C   UNL     1      44.691   4.234  10.324  0.00  0.00    +0.000 A 
ENDBRANCH  12  13
ENDBRANCH   4  12
TORSDOF 3
ENDMDL
MODEL 5
REMARK VINA RESULT:    -6.113      2.731      6.366
REMARK INTER + INTRA:          -7.760
REMARK INTER:                  -7.205
REMARK INTRA:                  -0.555
REMARK UNBOUND:                -0.575
REMARK  Name = 
REMARK  3 active torsions:
REMARK  status: ('A' for Active; 'I' for Inactive)
REMARK    1  A    between atoms: C_2  and  C_4
REMARK    2  A    between atoms: C_7  and  C_8
REMARK    3  A    between atoms: C_8  and  N_9
REMARK                            x       y       z     vdW  Elec       q    Type
REMARK                         _______ _______ _______ _____ _____    ______ ____
ROOT
ATOM      1  C   UNL     1      47.341   6.007  13.542  0.00  0.00    +0.000 A 
ATOM      2  C   UNL     1      46.476   4.922  13.726  0.00  0.00    +0.000 A 
ATOM      3  C   UNL     1      45.546   4.590  12.736  0.00  0.00    +0.000 A 
ATOM      4  C   UNL     1      45.466   5.336  11.550  0.00  0.00    +0.000 A 
ATOM      5  C   UNL     1      46.328   6.429  11.379  0.00  0.00    +0.000 A 
ATOM      6  C   UNL     1      47.255   6.765  12.370  0.00  0.00    +0.000 A 
ENDROOT
BRANCH   1   8
ATOM      7  N   UNL     1      48.022   6.158  15.878  0.00  0.00    +0.000 N 
ATOM      8  C   UNL     1      48.337   6.405  14.571  0.00  0.00    +0.000 C 
ATOM      9  O   UNL     1      49.414   6.898  14.266  0.00  0.00    +0.000 OA
ATOM     10  H   UNL     1      48.755   6.340  16.554  0.00  0.00    +0.000 HD
ATOM     11  H   UNL     1      47.278   5.534  16.150  0.00  0.00    +0.000 HD
ENDBRANCH   1   8
BRANCH   4  12
ATOM     12  C   UNL     1      44.474   4.973  10.473  0.00  0.00    +0.000 C 
BRANCH  12  13
ATOM     13  N   UNL     1      44.811   3.730   9.789  0.00  0.00    +0.000 N 
ATOM     14  C   UNL     1      44.223   2.516  10.064  0.00  0.00    +0.000 A 
ATOM     15  C   UNL     1      44.650   1.609   9.119  0.00  0.00    +0.000 A 
ATOM     16  C   UNL     1      45.523   2.292   8.244  0.00  0.00    +0.000 A 
ATOM     17  N   UNL     1      46.160   1.814   7.146  0.00  0.00    +0.000 NA
ATOM     18  C   UNL     1      46.928   2.714   6.501  0.00  0.00    +0.000 A 
ATOM     19  C   UNL     1      47.111   4.036   6.879  0.00  0.00    +0.000 A 
ATOM     20  C   UNL     1      46.451   4.521   8.006  0.00  0.00    +0.000 A 
ATOM     21  C   UNL     1      45.633   3.610   8.685  0.00  0.00    +0.000 A 
ENDBRANCH  12  13
ENDBRANCH   4  12
TORSDOF 3
ENDMDL
MODEL 6
REMARK VINA RESULT:    -5.620      2.562      4.155
REMARK INTER + INTRA:          -7.180
REMARK INTER:                  -6.808
REMARK INTRA:                  -0.373
REMARK UNBOUND:                -0.575
REMARK  Name = 
REMARK  3 active torsions:
REMARK  status: ('A' for Active; 'I' for Inactive)
REMARK    1  A    between atoms: C_2  and  C_4
REMARK    2  A    between atoms: C_7  and  C_8
REMARK    3  A    between atoms: C_8  and  N_9
REMARK                            x       y       z     vdW  Elec       q    Type
REMARK                         _______ _______ _______ _____ _____    ______ ____
ROOT
ATOM      1  C   UNL     1      44.998   3.723  10.053  0.00  0.00    +0.000 A 
ATOM      2  C   UNL     1      44.887   3.369  11.402  0.00  0.00    +0.000 A 
ATOM      3  C   UNL     1      45.265   4.273  12.399  0.00  0.00    +0.000 A 
ATOM      4  C   UNL     1      45.760   5.543  12.063  0.00  0.00    +0.000 A 
ATOM      5  C   UNL     1      45.880   5.886  10.708  0.00  0.00    +0.000 A 
ATOM      6  C   UNL     1      45.506   4.980   9.711  0.00  0.00    +0.000 A 
ENDROOT
BRANCH   1   8
ATOM      7  N   UNL     1      44.232   3.342   7.769  0.00  0.00    +0.000 N 
ATOM      8  C   UNL     1      44.620   2.791   8.959  0.00  0.00    +0.000 C 
ATOM      9  O   UNL     1      44.688   1.577   9.097  0.00  0.00    +0.000 OA
ATOM     10  H   UNL     1      44.080   2.693   7.008  0.00  0.00    +0.000 HD
ATOM     11  H   UNL     1      44.406   4.308   7.535  0.00  0.00    +0.000 HD
ENDBRANCH   1   8
BRANCH   4  12
ATOM     12  C   UNL     1      46.156   6.527  13.136  0.00  0.00    +0.000 C 
BRANCH  12  13
ATOM     13  N   UNL     1      46.340   7.880  12.622  0.00  0.00    +0.000 N 
ATOM     14  C   UNL     1      45.363   8.850  12.642  0.00  0.00    +0.000 A 
ATOM     15  C   UNL     1      45.933  10.040  12.245  0.00  0.00    +0.000 A 
ATOM     16  C   UNL     1      47.296   9.786  11.977  0.00  0.00    +0.000 A 
ATOM     17  N   UNL     1      48.257  10.661  11.588  0.00  0.00    +0.000 NA
ATOM     18  C   UNL     1      49.479  10.119  11.416  0.00  0.00    +0.000 A 
ATOM     19  C   UNL     1      49.801   8.781  11.591  0.00  0.00    +0.000 A 
ATOM     20  C   UNL     1      48.809   7.889  11.993  0.00  0.00    +0.000 A 
ATOM     21  C   UNL     1      47.534   8.429  12.195  0.00  0.00    +0.000 A 
ENDBRANCH  12  13
ENDBRANCH   4  12
TORSDOF 3
ENDMDL
MODEL 7
REMARK VINA RESULT:    -5.618      3.286      5.060
REMARK INTER + INTRA:          -7.178
REMARK INTER:                  -6.775
REMARK INTRA:                  -0.403
REMARK UNBOUND:                -0.575
REMARK  Name = 
REMARK  3 active torsions:
REMARK  status: ('A' for Active; 'I' for Inactive)
REMARK    1  A    between atoms: C_2  and  C_4
REMARK    2  A    between atoms: C_7  and  C_8
REMARK    3  A    between atoms: C_8  and  N_9
REMARK                            x       y       z     vdW  Elec       q    Type
REMARK                         _______ _______ _______ _____ _____    ______ ____
ROOT
ATOM      1  C   UNL     1      44.515   4.116  11.498  0.00  0.00    +0.000 A 
ATOM      2  C   UNL     1      44.701   4.336  12.868  0.00  0.00    +0.000 A 
ATOM      3  C   UNL     1      45.241   5.545  13.317  0.00  0.00    +0.000 A 
ATOM      4  C   UNL     1      45.604   6.550  12.407  0.00  0.00    +0.000 A 
ATOM      5  C   UNL     1      45.427   6.316  11.036  0.00  0.00    +0.000 A 
ATOM      6  C   UNL     1      44.891   5.106  10.585  0.00  0.00    +0.000 A 
ENDROOT
BRANCH   1   8
ATOM      7  N   UNL     1      44.610   2.254   9.926  0.00  0.00    +0.000 N 
ATOM      8  C   UNL     1      43.956   2.844  10.972  0.00  0.00    +0.000 C 
ATOM      9  O   UNL     1      42.972   2.317  11.475  0.00  0.00    +0.000 OA
ATOM     10  H   UNL     1      44.275   1.339   9.652  0.00  0.00    +0.000 HD
ATOM     11  H   UNL     1      45.548   2.511   9.656  0.00  0.00    +0.000 HD
ENDBRANCH   1   8
BRANCH   4  12
ATOM     12  C   UNL     1      46.175   7.860  12.889  0.00  0.00    +0.000 C 
BRANCH  12  13
ATOM     13  N   UNL     1      47.596   8.002  12.594  0.00  0.00    +0.000 N 
ATOM     14  C   UNL     1      48.508   6.975  12.691  0.00  0.00    +0.000 A 
ATOM     15  C   UNL     1      49.706   7.416  12.173  0.00  0.00    +0.000 A 
ATOM     16  C   UNL     1      49.516   8.749  11.747  0.00  0.00    +0.000 A 
ATOM     17  N   UNL     1      50.407   9.578  11.147  0.00  0.00    +0.000 NA
ATOM     18  C   UNL     1      49.928  10.802  10.849  0.00  0.00    +0.000 A 
ATOM     19  C   UNL     1      48.643  11.253  11.116  0.00  0.00    +0.000 A 
ATOM     20  C   UNL     1      47.734  10.395  11.730  0.00  0.00    +0.000 A 
ATOM     21  C   UNL     1      48.200   9.111  12.035  0.00  0.00    +0.000 A 
ENDBRANCH  12  13
ENDBRANCH   4  12
TORSDOF 3
ENDMDL
MODEL 8
REMARK VINA RESULT:    -5.541      2.139      3.384
REMARK INTER + INTRA:          -7.087
REMARK INTER:                  -6.578
REMARK INTRA:                  -0.509
REMARK UNBOUND:                -0.575
REMARK  Name = 
REMARK  3 active torsions:
REMARK  status: ('A' for Active; 'I' for Inactive)
REMARK    1  A    between atoms: C_2  and  C_4
REMARK    2  A    between atoms: C_7  and  C_8
REMARK    3  A    between atoms: C_8  and  N_9
REMARK                            x       y       z     vdW  Elec       q    Type
REMARK                         _______ _______ _______ _____ _____    ______ ____
ROOT
ATOM      1  C   UNL     1      45.132   3.233   9.931  0.00  0.00    +0.000 A 
ATOM      2  C   UNL     1      44.932   2.933  11.283  0.00  0.00    +0.000 A 
ATOM      3  C   UNL     1      44.841   3.964  12.224  0.00  0.00    +0.000 A 
ATOM      4  C   UNL     1      44.951   5.306  11.829  0.00  0.00    +0.000 A 
ATOM      5  C   UNL     1      45.165   5.597  10.474  0.00  0.00    +0.000 A 
ATOM      6  C   UNL     1      45.259   4.568   9.533  0.00  0.00    +0.000 A 
ENDROOT
BRANCH   1   8
ATOM      7  N   UNL     1      46.269   2.280   7.995  0.00  0.00    +0.000 N 
ATOM      8  C   UNL     1      45.246   2.172   8.896  0.00  0.00    +0.000 C 
ATOM      9  O   UNL     1      44.482   1.216   8.869  0.00  0.00    +0.000 OA
ATOM     10  H   UNL     1      46.392   1.496   7.366  0.00  0.00    +0.000 HD
ATOM     11  H   UNL     1      47.056   2.896   8.137  0.00  0.00    +0.000 HD
ENDBRANCH   1   8
BRANCH   4  12
ATOM     12  C   UNL     1      44.840   6.421  12.840  0.00  0.00    +0.000 C 
BRANCH  12  13
ATOM     13  N   UNL     1      45.997   7.308  12.831  0.00  0.00    +0.000 N 
ATOM     14  C   UNL     1      47.288   6.893  13.070  0.00  0.00    +0.000 A 
ATOM     15  C   UNL     1      48.133   7.949  12.809  0.00  0.00    +0.000 A 
ATOM     16  C   UNL     1      47.333   9.038  12.400  0.00  0.00    +0.000 A 
ATOM     17  N   UNL     1      47.728  10.277  12.013  0.00  0.00    +0.000 NA
ATOM     18  C   UNL     1      46.725  11.108  11.667  0.00  0.00    +0.000 A 
ATOM     19  C   UNL     1      45.374  10.797  11.694  0.00  0.00    +0.000 A 
ATOM     20  C   UNL     1      44.976   9.523  12.091  0.00  0.00    +0.000 A 
ATOM     21  C   UNL     1      45.999   8.633  12.438  0.00  0.00    +0.000 A 
ENDBRANCH  12  13
ENDBRANCH   4  12
TORSDOF 3
ENDMDL
MODEL 9
REMARK VINA RESULT:    -5.513      3.372      5.376
REMARK INTER + INTRA:          -7.054
REMARK INTER:                  -6.540
REMARK INTRA:                  -0.514
REMARK UNBOUND:                -0.575
REMARK  Name = 
REMARK  3 active torsions:
REMARK  status: ('A' for Active; 'I' for Inactive)
REMARK    1  A    between atoms: C_2  and  C_4
REMARK    2  A    between atoms: C_7  and  C_8
REMARK    3  A    between atoms: C_8  and  N_9
REMARK                            x       y       z     vdW  Elec       q    Type
REMARK                         _______ _______ _______ _____ _____    ______ ____
ROOT
ATOM      1  C   UNL     1      44.575   4.106  11.541  0.00  0.00    +0.000 A 
ATOM      2  C   UNL     1      44.525   5.289  10.794  0.00  0.00    +0.000 A 
ATOM      3  C   UNL     1      45.102   6.460  11.295  0.00  0.00    +0.000 A 
ATOM      4  C   UNL     1      45.734   6.467  12.548  0.00  0.00    +0.000 A 
ATOM      5  C   UNL     1      45.768   5.281  13.296  0.00  0.00    +0.000 A 
ATOM      6  C   UNL     1      45.188   4.110  12.797  0.00  0.00    +0.000 A 
ENDROOT
BRANCH   1   8
ATOM      7  N   UNL     1      44.555   2.231   9.981  0.00  0.00    +0.000 N 
ATOM      8  C   UNL     1      43.966   2.840  11.054  0.00  0.00    +0.000 C 
ATOM      9  O   UNL     1      42.999   2.337  11.611  0.00  0.00    +0.000 OA
ATOM     10  H   UNL     1      44.190   1.321   9.732  0.00  0.00    +0.000 HD
ATOM     11  H   UNL     1      45.482   2.469   9.662  0.00  0.00    +0.000 HD
ENDBRANCH   1   8
BRANCH   4  12
ATOM     12  C   UNL     1      46.369   7.725  13.087  0.00  0.00    +0.000 C 
BRANCH  12  13
ATOM     13  N   UNL     1      47.816   7.751  12.904  0.00  0.00    +0.000 N 
ATOM     14  C   UNL     1      48.437   8.114  11.729  0.00  0.00    +0.000 A 
ATOM     15  C   UNL     1      49.791   8.193  11.968  0.00  0.00    +0.000 A 
ATOM     16  C   UNL     1      50.000   7.872  13.327  0.00  0.00    +0.000 A 
ATOM     17  N   UNL     1      51.166   7.849  14.019  0.00  0.00    +0.000 NA
ATOM     18  C   UNL     1      51.046   7.507  15.318  0.00  0.00    +0.000 A 
ATOM     19  C   UNL     1      49.862   7.179  15.960  0.00  0.00    +0.000 A 
ATOM     20  C   UNL     1      48.668   7.207  15.243  0.00  0.00    +0.000 A 
ATOM     21  C   UNL     1      48.761   7.576  13.896  0.00  0.00    +0.000 A 
ENDBRANCH  12  13
ENDBRANCH   4  12
TORSDOF 3
ENDMDL
