MODEL 1
REMARK VINA RESULT:    -8.225      0.000      0.000
REMARK INTER + INTRA:         -13.030
REMARK INTER:                 -11.591
REMARK INTRA:                  -1.439
REMARK UNBOUND:                -1.439
REMARK  Name = 
REMARK  8 active torsions:
REMARK  status: ('A' for Active; 'I' for Inactive)
REMARK    1  A    between atoms: C_1  and  O_2
REMARK    2  A    between atoms: O_2  and  C_3
REMARK    3  A    between atoms: C_10  and  C_11
REMARK    4  A    between atoms: N_13  and  C_14
REMARK    5  A    between atoms: C_14  and  C_15
REMARK    6  A    between atoms: C_18  and  N_19
REMARK    7  A    between atoms: N_19  and  C_20
REMARK    8  A    between atoms: C_20  and  C_21
REMARK                            x       y       z     vdW  Elec       q    Type
REMARK                         _______ _______ _______ _____ _____    ______ ____
ROOT
ATOM      1  C   UNL     1      46.085   7.790  12.807  0.00  0.00    +0.000 C 
ENDROOT
BRANCH   1   2
ATOM      2  C   UNL     1      45.577   6.767  11.818  0.00  0.00    +0.000 A 
ATOM      3  C   UNL     1      44.317   6.172  11.971  0.00  0.00    +0.000 A 
ATOM      4  C   UNL     1      43.832   5.259  11.019  0.00  0.00    +0.000 A 
ATOM      5  C   UNL     1      44.587   4.926   9.890  0.00  0.00    +0.000 A 
ATOM      6  C   UNL     1      45.883   5.448   9.798  0.00  0.00    +0.000 A 
ATOM      7  C   UNL     1      46.369   6.368  10.737  0.00  0.00    +0.000 A 
BRANCH   5   8
ATOM      8  N   UNL     1      44.164   4.053   8.884  0.00  0.00    +0.000 N 
ATOM      9  H   UNL     1      44.352   4.438   7.960  0.00  0.00    +0.000 HD
BRANCH   8  10
ATOM     10  C   UNL     1      44.519   2.640   8.974  0.00  0.00    +0.000 C 
BRANCH  10  11
ATOM     11  C   UNL     1      45.632   2.328   7.998  0.00  0.00    +0.000 A 
ATOM     12  C   UNL     1      46.033   3.241   7.017  0.00  0.00    +0.000 A 
ATOM     13  C   UNL     1      47.111   2.917   6.202  0.00  0.00    +0.000 A 
ATOM     14  N   UNL     1      47.806   1.763   6.293  0.00  0.00    +0.000 NA
ATOM     15  C   UNL     1      47.403   0.891   7.240  0.00  0.00    +0.000 A 
ATOM     16  C   UNL     1      46.342   1.124   8.102  0.00  0.00    +0.000 A 
ENDBRANCH  10  11
ENDBRANCH   8  10
ENDBRANCH   5   8
ENDBRANCH   1   2
BRANCH   1  19
ATOM     17  C   UNL     1      48.114   7.141  14.049  0.00  0.00    +0.000 C 
ATOM     18  O   UNL     1      48.844   7.673  13.213  0.00  0.00    +0.000 OA
ATOM     19  N   UNL     1      46.753   7.162  13.917  0.00  0.00    +0.000 N 
ATOM     20  H   UNL     1      46.178   6.650  14.570  0.00  0.00    +0.000 HD
BRANCH  17  28
ATOM     21  C   UNL     1      47.233   4.294  15.765  0.00  0.00    +0.000 A 
ATOM     22  N   UNL     1      47.098   3.256  16.613  0.00  0.00    +0.000 NA
ATOM     23  C   UNL     1      47.956   3.161  17.630  0.00  0.00    +0.000 A 
ATOM     24  N   UNL     1      48.957   3.991  17.914  0.00  0.00    +0.000 NA
ATOM     25  C   UNL     1      49.060   5.008  17.041  0.00  0.00    +0.000 A 
ATOM     26  S   UNL     1      50.284   6.166  17.244  0.00  0.00    +0.000 S 
ATOM     27  C   UNL     1      49.771   7.025  15.870  0.00  0.00    +0.000 A 
ATOM     28  C   UNL     1      48.668   6.464  15.235  0.00  0.00    +0.000 A 
ATOM     29  C   UNL     1      48.251   5.249  15.935  0.00  0.00    +0.000 A 
BRANCH  21  31
ATOM     30  C   UNL     1      46.826   3.620  13.563  0.00  0.00    +0.000 C 
ATOM     31  O   UNL     1      46.373   4.366  14.689  0.00  0.00    +0.000 OA
ENDBRANCH  21  31
ENDBRANCH  17  28
ENDBRANCH   1  19
TORSDOF 7
ENDMDL
MODEL 2
REMARK VINA RESULT:    -7.680      1.983      3.550
REMARK INTER + INTRA:         -12.262
REMARK INTER:                 -10.925
REMARK INTRA:                  -1.337
REMARK UNBOUND:                -1.439
REMARK  Name = 
REMARK  8 active torsions:
REMARK  status: ('A' for Active; 'I' for Inactive)
REMARK    1  A    between atoms: C_1  and  O_2
REMARK    2  A    between atoms: O_2  and  C_3
REMARK    3  A    between atoms: C_10  and  C_11
REMARK    4  A    between atoms: N_13  and  C_14
REMARK    5  A    between atoms: C_14  and  C_15
REMARK    6  A    between atoms: C_18  and  N_19
REMARK    7  A    between atoms: N_19  and  C_20
REMARK    8  A    between atoms: C_20  and  C_21
REMARK                            x       y       z     vdW  Elec       q    Type
REMARK                         _______ _______ _______ _____ _____    ______ ____
ROOT
ATOM      1  C   UNL     1      46.564   4.365  14.552  0.00  0.00    +0.000 C 
ENDROOT
BRANCH   1   2
ATOM      2  C   UNL     1      46.099   4.529  13.124  0.00  0.00    +0.000 A 
ATOM      3  C   UNL     1      46.395   5.687  12.391  0.00  0.00    +0.000 A 
ATOM      4  C   UNL     1      46.002   5.809  11.048  0.00  0.00    +0.000 A 
ATOM      5  C   UNL     1      45.312   4.777  10.403  0.00  0.00    +0.000 A 
ATOM      6  C   UNL     1      44.935   3.669  11.170  0.00  0.00    +0.000 A 
ATOM      7  C   UNL     1      45.333   3.535  12.506  0.00  0.00    +0.000 A 
BRANCH   5   8
ATOM      8  N   UNL     1      44.914   4.808   9.063  0.00  0.00    +0.000 N 
ATOM      9  H   UNL     1      45.572   5.338   8.495  0.00  0.00    +0.000 HD
BRANCH   8  10
ATOM     10  C   UNL     1      44.505   3.565   8.415  0.00  0.00    +0.000 C 
BRANCH  10  11
ATOM     11  C   UNL     1      45.721   2.841   7.883  0.00  0.00    +0.000 A 
ATOM     12  C   UNL     1      45.995   1.509   8.215  0.00  0.00    +0.000 A 
ATOM     13  C   UNL     1      47.090   0.886   7.630  0.00  0.00    +0.000 A 
ATOM     14  N   UNL     1      47.922   1.487   6.752  0.00  0.00    +0.000 NA
ATOM     15  C   UNL     1      47.647   2.772   6.447  0.00  0.00    +0.000 A 
ATOM     16  C   UNL     1      46.578   3.478   6.975  0.00  0.00    +0.000 A 
ENDBRANCH  10  11
ENDBRANCH   8  10
ENDBRANCH   5   8
ENDBRANCH   1   2
BRANCH   1  19
ATOM     17  C   UNL     1      48.256   5.456  15.976  0.00  0.00    +0.000 C 
ATOM     18  O   UNL     1      48.541   4.391  16.523  0.00  0.00    +0.000 OA
ATOM     19  N   UNL     1      47.300   5.518  15.000  0.00  0.00    +0.000 N 
ATOM     20  H   UNL     1      47.026   6.414  14.624  0.00  0.00    +0.000 HD
BRANCH  17  28
ATOM     21  C   UNL     1      49.991   7.808  14.163  0.00  0.00    +0.000 A 
ATOM     22  N   UNL     1      50.716   8.848  13.708  0.00  0.00    +0.000 NA
ATOM     23  C   UNL     1      51.131   9.758  14.591  0.00  0.00    +0.000 A 
ATOM     24  N   UNL     1      50.907   9.762  15.902  0.00  0.00    +0.000 NA
ATOM     25  C   UNL     1      50.176   8.712  16.314  0.00  0.00    +0.000 A 
ATOM     26  S   UNL     1      49.788   8.553  17.959  0.00  0.00    +0.000 S 
ATOM     27  C   UNL     1      48.940   7.108  17.672  0.00  0.00    +0.000 A 
ATOM     28  C   UNL     1      48.935   6.713  16.339  0.00  0.00    +0.000 A 
ATOM     29  C   UNL     1      49.670   7.683  15.526  0.00  0.00    +0.000 A 
BRANCH  21  31
ATOM     30  C   UNL     1      49.617   7.358  11.899  0.00  0.00    +0.000 C 
ATOM     31  O   UNL     1      49.526   6.893  13.243  0.00  0.00    +0.000 OA
ENDBRANCH  21  31
ENDBRANCH  17  28
ENDBRANCH   1  19
TORSDOF 7
ENDMDL
MODEL 3
REMARK VINA RESULT:    -7.641      2.167      2.950
REMARK INTER + INTRA:         -12.207
REMARK INTER:                 -11.104
REMARK INTRA:                  -1.103
REMARK UNBOUND:                -1.439
REMARK  Name = 
REMARK  8 active torsions:
REMARK  status: ('A' for Active; 'I' for Inactive)
REMARK    1  A    between atoms: C_1  and  O_2
REMARK    2  A    between atoms: O_2  and  C_3
REMARK    3  A    between atoms: C_10  and  C_11
REMARK    4  A    between atoms: N_13  and  C_14
REMARK    5  A    between atoms: C_14  and  C_15
REMARK    6  A    between atoms: C_18  and  N_19
REMARK    7  A    between atoms: N_19  and  C_20
REMARK    8  A    between atoms: C_20  and  C_21
REMARK                            x       y       z     vdW  Elec       q    Type
REMARK                         _______ _______ _______ _____ _____    ______ ____
ROOT
ATOM      1  C   UNL     1      47.449   6.763  13.545  0.00  0.00    +0.000 C 
ENDROOT
BRANCH   1   2
ATOM      2  C   UNL     1      46.644   5.927  12.578  0.00  0.00    +0.000 A 
ATOM      3  C   UNL     1      46.381   6.374  11.275  0.00  0.00    +0.000 A 
ATOM      4  C   UNL     1      45.675   5.568  10.367  0.00  0.00    +0.000 A 
ATOM      5  C   UNL     1      45.221   4.297  10.733  0.00  0.00    +0.000 A 
ATOM      6  C   UNL     1      45.401   3.902  12.064  0.00  0.00    +0.000 A 
ATOM      7  C   UNL     1      46.115   4.695  12.972  0.00  0.00    +0.000 A 
BRANCH   5   8
ATOM      8  N   UNL     1      44.540   3.423   9.881  0.00  0.00    +0.000 N 
ATOM      9  H   UNL     1      43.587   3.263  10.202  0.00  0.00    +0.000 HD
BRANCH   8  10
ATOM     10  C   UNL     1      44.605   3.643   8.438  0.00  0.00    +0.000 C 
BRANCH  10  11
ATOM     11  C   UNL     1      45.747   2.845   7.850  0.00  0.00    +0.000 A 
ATOM     12  C   UNL     1      46.725   3.437   7.043  0.00  0.00    +0.000 A 
ATOM     13  C   UNL     1      47.786   2.657   6.598  0.00  0.00    +0.000 A 
ATOM     14  N   UNL     1      47.937   1.349   6.893  0.00  0.00    +0.000 NA
ATOM     15  C   UNL     1      46.983   0.792   7.667  0.00  0.00    +0.000 A 
ATOM     16  C   UNL     1      45.889   1.486   8.162  0.00  0.00    +0.000 A 
ENDBRANCH  10  11
ENDBRANCH   8  10
ENDBRANCH   5   8
ENDBRANCH   1   2
BRANCH   1  19
ATOM     17  C   UNL     1      48.615   6.115  15.618  0.00  0.00    +0.000 C 
ATOM     18  O   UNL     1      49.678   6.587  15.216  0.00  0.00    +0.000 OA
ATOM     19  N   UNL     1      47.482   6.167  14.854  0.00  0.00    +0.000 N 
ATOM     20  H   UNL     1      46.643   5.701  15.169  0.00  0.00    +0.000 HD
BRANCH  17  28
ATOM     21  C   UNL     1      48.036   7.331  18.783  0.00  0.00    +0.000 A 
ATOM     22  N   UNL     1      47.850   7.537  20.101  0.00  0.00    +0.000 NA
ATOM     23  C   UNL     1      47.898   6.480  20.914  0.00  0.00    +0.000 A 
ATOM     24  N   UNL     1      48.111   5.213  20.569  0.00  0.00    +0.000 NA
ATOM     25  C   UNL     1      48.286   5.051  19.246  0.00  0.00    +0.000 A 
ATOM     26  S   UNL     1      48.567   3.497  18.622  0.00  0.00    +0.000 S 
ATOM     27  C   UNL     1      48.677   4.099  17.036  0.00  0.00    +0.000 A 
ATOM     28  C   UNL     1      48.509   5.476  16.943  0.00  0.00    +0.000 A 
ATOM     29  C   UNL     1      48.266   6.042  18.270  0.00  0.00    +0.000 A 
BRANCH  21  31
ATOM     30  C   UNL     1      49.170   9.130  17.810  0.00  0.00    +0.000 C 
ATOM     31  O   UNL     1      47.943   8.418  17.940  0.00  0.00    +0.000 OA
ENDBRANCH  21  31
ENDBRANCH  17  28
ENDBRANCH   1  19
TORSDOF 7
ENDMDL
MODEL 4
REMARK VINA RESULT:    -7.477      1.536      2.189
REMARK INTER + INTRA:         -11.976
REMARK INTER:                 -10.726
REMARK INTRA:                  -1.250
REMARK UNBOUND:                -1.439
REMARK  Name = 
REMARK  8 active torsions:
REMARK  status: ('A' for Active; 'I' for Inactive)
REMARK    1  A    between atoms: C_1  and  O_2
REMARK    2  A    between atoms: O_2  and  C_3
REMARK    3  A    between atoms: C_10  and  C_11
REMARK    4  A    between atoms: N_13  and  C_14
REMARK    5  A    between atoms: C_14  and  C_15
REMARK    6  A    between atoms: C_18  and  N_19
REMARK    7  A    between atoms: N_19  and  C_20
REMARK    8  A    between atoms: C_20  and  C_21
REMARK                            x       y       z     vdW  Elec       q    Type
REMARK                         _______ _______ _______ _____ _____    ______ ____
ROOT
ATOM      1  C   UNL     1      46.946   7.245  13.475  0.00  0.00    +0.000 C 
ENDROOT
BRANCH   1   2
ATOM      2  C   UNL     1      46.305   6.130  12.682  0.00  0.00    +0.000 A 
ATOM      3  C   UNL     1      45.803   6.352  11.392  0.00  0.00    +0.000 A 
ATOM      4  C   UNL     1      45.255   5.298  10.641  0.00  0.00    +0.000 A 
ATOM      5  C   UNL     1      45.203   3.999  11.157  0.00  0.00    +0.000 A 
ATOM      6  C   UNL     1      45.614   3.808  12.481  0.00  0.00    +0.000 A 
ATOM      7  C   UNL     1      46.172   4.852  13.230  0.00  0.00    +0.000 A 
BRANCH   5   8
ATOM      8  N   UNL     1      44.702   2.892  10.464  0.00  0.00    +0.000 N 
ATOM      9  H   UNL     1      43.906   2.483  10.949  0.00  0.00    +0.000 HD
BRANCH   8  10
ATOM     10  C   UNL     1      44.475   2.998   9.025  0.00  0.00    +0.000 C 
BRANCH  10  11
ATOM     11  C   UNL     1      45.676   2.464   8.277  0.00  0.00    +0.000 A 
ATOM     12  C   UNL     1      46.003   1.103   8.278  0.00  0.00    +0.000 A 
ATOM     13  C   UNL     1      47.078   0.674   7.508  0.00  0.00    +0.000 A 
ATOM     14  N   UNL     1      47.839   1.492   6.750  0.00  0.00    +0.000 NA
ATOM     15  C   UNL     1      47.513   2.801   6.764  0.00  0.00    +0.000 A 
ATOM     16  C   UNL     1      46.459   3.325   7.497  0.00  0.00    +0.000 A 
ENDBRANCH  10  11
ENDBRANCH   8  10
ENDBRANCH   5   8
ENDBRANCH   1   2
BRANCH   1  19
ATOM     17  C   UNL     1      48.856   7.595  14.994  0.00  0.00    +0.000 C 
ATOM     18  O   UNL     1      48.563   8.780  15.155  0.00  0.00    +0.000 OA
ATOM     19  N   UNL     1      48.108   6.783  14.188  0.00  0.00    +0.000 N 
ATOM     20  H   UNL     1      48.413   5.838  14.006  0.00  0.00    +0.000 HD
BRANCH  17  28
ATOM     21  C   UNL     1      49.217   4.965  17.180  0.00  0.00    +0.000 A 
ATOM     22  N   UNL     1      49.631   4.014  18.039  0.00  0.00    +0.000 NA
ATOM     23  C   UNL     1      50.932   3.959  18.334  0.00  0.00    +0.000 A 
ATOM     24  N   UNL     1      51.894   4.750  17.867  0.00  0.00    +0.000 NA
ATOM     25  C   UNL     1      51.439   5.680  17.009  0.00  0.00    +0.000 A 
ATOM     26  S   UNL     1      52.527   6.777  16.308  0.00  0.00    +0.000 S 
ATOM     27  C   UNL     1      51.279   7.542  15.444  0.00  0.00    +0.000 A 
ATOM     28  C   UNL     1      50.021   6.993  15.667  0.00  0.00    +0.000 A 
ATOM     29  C   UNL     1      50.123   5.870  16.599  0.00  0.00    +0.000 A 
BRANCH  21  31
ATOM     30  C   UNL     1      47.293   3.695  16.787  0.00  0.00    +0.000 C 
ATOM     31  O   UNL     1      47.880   4.992  16.843  0.00  0.00    +0.000 OA
ENDBRANCH  21  31
ENDBRANCH  17  28
ENDBRANCH   1  19
TORSDOF 7
ENDMDL
MODEL 5
REMARK VINA RESULT:    -7.310      2.364      3.399
REMARK INTER + INTRA:         -11.740
REMARK INTER:                 -10.731
REMARK INTRA:                  -1.010
REMARK UNBOUND:                -1.439
REMARK  Name = 
REMARK  8 active torsions:
REMARK  status: ('A' for Active; 'I' for Inactive)
REMARK    1  A    between atoms: C_1  and  O_2
REMARK    2  A    between atoms: O_2  and  C_3
REMARK    3  A    between atoms: C_10  and  C_11
REMARK    4  A    between atoms: N_13  and  C_14
REMARK    5  A    between atoms: C_14  and  C_15
REMARK    6  A    between atoms: C_18  and  N_19
REMARK    7  A    between atoms: N_19  and  C_20
REMARK    8  A    between atoms: C_20  and  C_21
REMARK                            x       y       z     vdW  Elec       q    Type
REMARK                         _______ _______ _______ _____ _____    ______ ____
ROOT
ATOM      1  C   UNL     1      46.557   4.438  14.604  0.00  0.00    +0.000 C 
ENDROOT
BRANCH   1   2
ATOM      2  C   UNL     1      46.107   4.589  13.170  0.00  0.00    +0.000 A 
ATOM      3  C   UNL     1      46.422   5.735  12.427  0.00  0.00    +0.000 A 
ATOM      4  C   UNL     1      46.044   5.845  11.078  0.00  0.00    +0.000 A 
ATOM      5  C   UNL     1      45.350   4.812  10.439  0.00  0.00    +0.000 A 
ATOM      6  C   UNL     1      44.954   3.717  11.215  0.00  0.00    +0.000 A 
ATOM      7  C   UNL     1      45.338   3.595  12.557  0.00  0.00    +0.000 A 
BRANCH   5   8
ATOM      8  N   UNL     1      44.965   4.831   9.095  0.00  0.00    +0.000 N 
ATOM      9  H   UNL     1      45.634   5.347   8.527  0.00  0.00    +0.000 HD
BRANCH   8  10
ATOM     10  C   UNL     1      44.550   3.584   8.458  0.00  0.00    +0.000 C 
BRANCH  10  11
ATOM     11  C   UNL     1      45.759   2.864   7.905  0.00  0.00    +0.000 A 
ATOM     12  C   UNL     1      46.043   1.533   8.234  0.00  0.00    +0.000 A 
ATOM     13  C   UNL     1      47.131   0.913   7.630  0.00  0.00    +0.000 A 
ATOM     14  N   UNL     1      47.945   1.516   6.738  0.00  0.00    +0.000 NA
ATOM     15  C   UNL     1      47.661   2.800   6.437  0.00  0.00    +0.000 A 
ATOM     16  C   UNL     1      46.598   3.503   6.983  0.00  0.00    +0.000 A 
ENDBRANCH  10  11
ENDBRANCH   8  10
ENDBRANCH   5   8
ENDBRANCH   1   2
BRANCH   1  19
ATOM     17  C   UNL     1      48.390   5.492  15.872  0.00  0.00    +0.000 C 
ATOM     18  O   UNL     1      48.787   4.402  16.284  0.00  0.00    +0.000 OA
ATOM     19  N   UNL     1      47.306   5.586  15.044  0.00  0.00    +0.000 N 
ATOM     20  H   UNL     1      46.950   6.495  14.785  0.00  0.00    +0.000 HD
BRANCH  17  28
ATOM     21  C   UNL     1      49.062   7.006  18.887  0.00  0.00    +0.000 A 
ATOM     22  N   UNL     1      49.428   7.807  19.905  0.00  0.00    +0.000 NA
ATOM     23  C   UNL     1      50.044   8.954  19.611  0.00  0.00    +0.000 A 
ATOM     24  N   UNL     1      50.349   9.411  18.399  0.00  0.00    +0.000 NA
ATOM     25  C   UNL     1      49.972   8.579  17.413  0.00  0.00    +0.000 A 
ATOM     26  S   UNL     1      50.283   8.997  15.798  0.00  0.00    +0.000 S 
ATOM     27  C   UNL     1      49.561   7.566  15.234  0.00  0.00    +0.000 A 
ATOM     28  C   UNL     1      49.068   6.748  16.244  0.00  0.00    +0.000 A 
ATOM     29  C   UNL     1      49.325   7.355  17.551  0.00  0.00    +0.000 A 
BRANCH  21  31
ATOM     30  C   UNL     1      47.045   5.890  19.284  0.00  0.00    +0.000 C 
ATOM     31  O   UNL     1      48.465   5.801  19.196  0.00  0.00    +0.000 OA
ENDBRANCH  21  31
ENDBRANCH  17  28
ENDBRANCH   1  19
TORSDOF 7
ENDMDL
MODEL 6
REMARK VINA RESULT:    -7.282      2.189      3.094
REMARK INTER + INTRA:         -11.701
REMARK INTER:                 -10.774
REMARK INTRA:                  -0.927
REMARK UNBOUND:                -1.439
REMARK  Name = 
REMARK  8 active torsions:
REMARK  status: ('A' for Active; 'I' for Inactive)
REMARK    1  A    between atoms: C_1  and  O_2
REMARK    2  A    between atoms: O_2  and  C_3
REMARK    3  A    between atoms: C_10  and  C_11
REMARK    4  A    between atoms: N_13  and  C_14
REMARK    5  A    between atoms: C_14  and  C_15
REMARK    6  A    between atoms: C_18  and  N_19
REMARK    7  A    between atoms: N_19  and  C_20
REMARK    8  A    between atoms: C_20  and  C_21
REMARK                            x       y       z     vdW  Elec       q    Type
REMARK                         _______ _______ _______ _____ _____    ______ ____
ROOT
ATOM      1  C   UNL     1      46.231   4.395  14.775  0.00  0.00    +0.000 C 
ENDROOT
BRANCH   1   2
ATOM      2  C   UNL     1      45.987   4.509  13.288  0.00  0.00    +0.000 A 
ATOM      3  C   UNL     1      45.336   3.489  12.579  0.00  0.00    +0.000 A 
ATOM      4  C   UNL     1      45.068   3.625  11.207  0.00  0.00    +0.000 A 
ATOM      5  C   UNL     1      45.435   4.782  10.513  0.00  0.00    +0.000 A 
ATOM      6  C   UNL     1      46.172   5.750  11.206  0.00  0.00    +0.000 A 
ATOM      7  C   UNL     1      46.432   5.626  12.577  0.00  0.00    +0.000 A 
BRANCH   5   8
ATOM      8  N   UNL     1      45.177   5.008   9.157  0.00  0.00    +0.000 N 
ATOM      9  H   UNL     1      45.967   5.461   8.703  0.00  0.00    +0.000 HD
BRANCH   8  10
ATOM     10  C   UNL     1      44.626   3.924   8.349  0.00  0.00    +0.000 C 
BRANCH  10  11
ATOM     11  C   UNL     1      45.748   3.062   7.814  0.00  0.00    +0.000 A 
ATOM     12  C   UNL     1      46.757   3.585   6.998  0.00  0.00    +0.000 A 
ATOM     13  C   UNL     1      47.797   2.750   6.604  0.00  0.00    +0.000 A 
ATOM     14  N   UNL     1      47.900   1.452   6.958  0.00  0.00    +0.000 NA
ATOM     15  C   UNL     1      46.916   0.963   7.741  0.00  0.00    +0.000 A 
ATOM     16  C   UNL     1      45.840   1.714   8.188  0.00  0.00    +0.000 A 
ENDBRANCH  10  11
ENDBRANCH   8  10
ENDBRANCH   5   8
ENDBRANCH   1   2
BRANCH   1  19
ATOM     17  C   UNL     1      47.901   5.098  16.448  0.00  0.00    +0.000 C 
ATOM     18  O   UNL     1      47.346   4.449  17.334  0.00  0.00    +0.000 OA
ATOM     19  N   UNL     1      47.413   5.116  15.170  0.00  0.00    +0.000 N 
ATOM     20  H   UNL     1      47.837   5.719  14.480  0.00  0.00    +0.000 HD
BRANCH  17  28
ATOM     21  C   UNL     1      51.103   4.234  17.359  0.00  0.00    +0.000 A 
ATOM     22  N   UNL     1      52.398   4.177  17.727  0.00  0.00    +0.000 NA
ATOM     23  C   UNL     1      53.064   5.326  17.857  0.00  0.00    +0.000 A 
ATOM     24  N   UNL     1      52.590   6.553  17.660  0.00  0.00    +0.000 NA
ATOM     25  C   UNL     1      51.298   6.565  17.290  0.00  0.00    +0.000 A 
ATOM     26  S   UNL     1      50.525   8.046  16.991  0.00  0.00    +0.000 S 
ATOM     27  C   UNL     1      49.062   7.266  16.619  0.00  0.00    +0.000 A 
ATOM     28  C   UNL     1      49.121   5.880  16.716  0.00  0.00    +0.000 A 
ATOM     29  C   UNL     1      50.468   5.463  17.110  0.00  0.00    +0.000 A 
BRANCH  21  31
ATOM     30  C   UNL     1      51.252   1.900  17.395  0.00  0.00    +0.000 C 
ATOM     31  O   UNL     1      50.429   3.044  17.183  0.00  0.00    +0.000 OA
ENDBRANCH  21  31
ENDBRANCH  17  28
ENDBRANCH   1  19
TORSDOF 7
ENDMDL
MODEL 7
REMARK VINA RESULT:    -7.183      1.868      2.509
REMARK INTER + INTRA:         -11.561
REMARK INTER:                 -10.312
REMARK INTRA:                  -1.248
REMARK UNBOUND:                -1.439
REMARK  Name = 
REMARK  8 active torsions:
REMARK  status: ('A' for Active; 'I' for Inactive)
REMARK    1  A    between atoms: C_1  and  O_2
REMARK    2  A    between atoms: O_2  and  C_3
REMARK    3  A    between atoms: C_10  and  C_11
REMARK    4  A    between atoms: N_13  and  C_14
REMARK    5  A    between atoms: C_14  and  C_15
REMARK    6  A    between atoms: C_18  and  N_19
REMARK    7  A    between atoms: N_19  and  C_20
REMARK    8  A    between atoms: C_20  and  C_21
REMARK                            x       y       z     vdW  Elec       q    Type
REMARK                         _______ _______ _______ _____ _____    ______ ____
ROOT
ATOM      1  C   UNL     1      48.077   7.602  13.493  0.00  0.00    +0.000 C 
ENDROOT
BRANCH   1   2
ATOM      2  C   UNL     1      47.090   6.656  12.851  0.00  0.00    +0.000 A 
ATOM      3  C   UNL     1      46.945   5.338  13.308  0.00  0.00    +0.000 A 
ATOM      4  C   UNL     1      45.989   4.480  12.739  0.00  0.00    +0.000 A 
ATOM      5  C   UNL     1      45.152   4.918  11.708  0.00  0.00    +0.000 A 
ATOM      6  C   UNL     1      45.372   6.201  11.192  0.00  0.00    +0.000 A 
ATOM      7  C   UNL     1      46.315   7.066  11.763  0.00  0.00    +0.000 A 
BRANCH   5   8
ATOM      8  N   UNL     1      44.157   4.138  11.110  0.00  0.00    +0.000 N 
ATOM      9  H   UNL     1      43.288   4.180  11.640  0.00  0.00    +0.000 HD
BRANCH   8  10
ATOM     10  C   UNL     1      43.931   4.255   9.672  0.00  0.00    +0.000 C 
BRANCH  10  11
ATOM     11  C   UNL     1      44.988   3.474   8.923  0.00  0.00    +0.000 A 
ATOM     12  C   UNL     1      45.110   2.086   9.047  0.00  0.00    +0.000 A 
ATOM     13  C   UNL     1      46.056   1.426   8.272  0.00  0.00    +0.000 A 
ATOM     14  N   UNL     1      46.879   2.042   7.398  0.00  0.00    +0.000 NA
ATOM     15  C   UNL     1      46.753   3.381   7.294  0.00  0.00    +0.000 A 
ATOM     16  C   UNL     1      45.839   4.128   8.021  0.00  0.00    +0.000 A 
ENDBRANCH  10  11
ENDBRANCH   8  10
ENDBRANCH   5   8
ENDBRANCH   1   2
BRANCH   1  19
ATOM     17  C   UNL     1      49.027   7.049  15.701  0.00  0.00    +0.000 C 
ATOM     18  O   UNL     1      50.070   6.638  15.193  0.00  0.00    +0.000 OA
ATOM     19  N   UNL     1      48.008   7.538  14.930  0.00  0.00    +0.000 N 
ATOM     20  H   UNL     1      47.132   7.793  15.361  0.00  0.00    +0.000 HD
BRANCH  17  28
ATOM     21  C   UNL     1      48.841   4.537  18.043  0.00  0.00    +0.000 A 
ATOM     22  N   UNL     1      48.713   3.766  19.140  0.00  0.00    +0.000 NA
ATOM     23  C   UNL     1      48.485   4.370  20.308  0.00  0.00    +0.000 A 
ATOM     24  N   UNL     1      48.369   5.678  20.524  0.00  0.00    +0.000 NA
ATOM     25  C   UNL     1      48.509   6.410  19.405  0.00  0.00    +0.000 A 
ATOM     26  S   UNL     1      48.394   8.102  19.491  0.00  0.00    +0.000 S 
ATOM     27  C   UNL     1      48.653   8.255  17.818  0.00  0.00    +0.000 A 
ATOM     28  C   UNL     1      48.826   7.042  17.161  0.00  0.00    +0.000 A 
ATOM     29  C   UNL     1      48.748   5.938  18.119  0.00  0.00    +0.000 A 
BRANCH  21  31
ATOM     30  C   UNL     1      47.976   3.300  16.256  0.00  0.00    +0.000 C 
ATOM     31  O   UNL     1      49.120   3.914  16.844  0.00  0.00    +0.000 OA
ENDBRANCH  21  31
ENDBRANCH  17  28
ENDBRANCH   1  19
TORSDOF 7
ENDMDL
MODEL 8
REMARK VINA RESULT:    -6.695      2.747      4.255
REMARK INTER + INTRA:         -10.874
REMARK INTER:                  -9.614
REMARK INTRA:                  -1.260
REMARK UNBOUND:                -1.439
REMARK  Name = 
REMARK  8 active torsions:
REMARK  status: ('A' for Active; 'I' for Inactive)
REMARK    1  A    between atoms: C_1  and  O_2
REMARK    2  A    between atoms: O_2  and  C_3
REMARK    3  A    between atoms: C_10  and  C_11
REMARK    4  A    between atoms: N_13  and  C_14
REMARK    5  A    between atoms: C_14  and  C_15
REMARK    6  A    between atoms: C_18  and  N_19
REMARK    7  A    between atoms: N_19  and  C_20
REMARK    8  A    between atoms: C_20  and  C_21
REMARK                            x       y       z     vdW  Elec       q    Type
REMARK                         _______ _______ _______ _____ _____    ______ ____
ROOT
ATOM      1  C   UNL     1      47.041   5.783  14.277  0.00  0.00    +0.000 C 
ENDROOT
BRANCH   1   2
ATOM      2  C   UNL     1      46.460   5.456  12.921  0.00  0.00    +0.000 A 
ATOM      3  C   UNL     1      45.696   4.298  12.719  0.00  0.00    +0.000 A 
ATOM      4  C   UNL     1      45.116   4.028  11.468  0.00  0.00    +0.000 A 
ATOM      5  C   UNL     1      45.278   4.909  10.394  0.00  0.00    +0.000 A 
ATOM      6  C   UNL     1      46.124   6.009  10.577  0.00  0.00    +0.000 A 
ATOM      7  C   UNL     1      46.695   6.291  11.825  0.00  0.00    +0.000 A 
BRANCH   5   8
ATOM      8  N   UNL     1      44.710   4.728   9.129  0.00  0.00    +0.000 N 
ATOM      9  H   UNL     1      45.215   5.256   8.420  0.00  0.00    +0.000 HD
BRANCH   8  10
ATOM     10  C   UNL     1      44.386   3.376   8.682  0.00  0.00    +0.000 C 
BRANCH  10  11
ATOM     11  C   UNL     1      45.616   2.725   8.090  0.00  0.00    +0.000 A 
ATOM     12  C   UNL     1      45.893   1.365   8.270  0.00  0.00    +0.000 A 
ATOM     13  C   UNL     1      47.002   0.819   7.635  0.00  0.00    +0.000 A 
ATOM     14  N   UNL     1      47.844   1.521   6.847  0.00  0.00    +0.000 NA
ATOM     15  C   UNL     1      47.566   2.832   6.689  0.00  0.00    +0.000 A 
ATOM     16  C   UNL     1      46.483   3.467   7.277  0.00  0.00    +0.000 A 
ENDBRANCH  10  11
ENDBRANCH   8  10
ENDBRANCH   5   8
ENDBRANCH   1   2
BRANCH   1  19
ATOM     17  C   UNL     1      48.777   7.524  14.468  0.00  0.00    +0.000 C 
ATOM     18  O   UNL     1      47.957   8.356  14.857  0.00  0.00    +0.000 OA
ATOM     19  N   UNL     1      48.401   6.244  14.168  0.00  0.00    +0.000 N 
ATOM     20  H   UNL     1      49.074   5.603  13.774  0.00  0.00    +0.000 HD
BRANCH  17  28
ATOM     21  C   UNL     1      50.647   8.712  11.837  0.00  0.00    +0.000 A 
ATOM     22  N   UNL     1      51.597   9.146  10.987  0.00  0.00    +0.000 NA
ATOM     23  C   UNL     1      52.851   9.230  11.437  0.00  0.00    +0.000 A 
ATOM     24  N   UNL     1      53.286   8.930  12.658  0.00  0.00    +0.000 NA
ATOM     25  C   UNL     1      52.305   8.506  13.475  0.00  0.00    +0.000 A 
ATOM     26  S   UNL     1      52.675   8.081  15.077  0.00  0.00    +0.000 S 
ATOM     27  C   UNL     1      51.053   7.689  15.400  0.00  0.00    +0.000 A 
ATOM     28  C   UNL     1      50.203   7.864  14.314  0.00  0.00    +0.000 A 
ATOM     29  C   UNL     1      50.957   8.363  13.164  0.00  0.00    +0.000 A 
BRANCH  21  31
ATOM     30  C   UNL     1      48.644   9.891  11.583  0.00  0.00    +0.000 C 
ATOM     31  O   UNL     1      49.346   8.667  11.383  0.00  0.00    +0.000 OA
ENDBRANCH  21  31
ENDBRANCH  17  28
ENDBRANCH   1  19
TORSDOF 7
ENDMDL
MODEL 9
REMARK VINA RESULT:    -6.634      2.348      3.341
REMARK INTER + INTRA:         -10.787
REMARK INTER:                  -9.345
REMARK INTRA:                  -1.442
REMARK UNBOUND:                -1.439
REMARK  Name = 
REMARK  8 active torsions:
REMARK  status: ('A' for Active; 'I' for Inactive)
REMARK    1  A    between atoms: C_1  and  O_2
REMARK    2  A    between atoms: O_2  and  C_3
REMARK    3  A    between atoms: C_10  and  C_11
REMARK    4  A    between atoms: N_13  and  C_14
REMARK    5  A    between atoms: C_14  and  C_15
REMARK    6  A    between atoms: C_18  and  N_19
REMARK    7  A    between atoms: N_19  and  C_20
REMARK    8  A    between atoms: C_20  and  C_21
REMARK                            x       y       z     vdW  Elec       q    Type
REMARK                         _______ _______ _______ _____ _____    ______ ____
ROOT
ATOM      1  C   UNL     1      48.866   8.096  13.507  0.00  0.00    +0.000 C 
ENDROOT
BRANCH   1   2
ATOM      2  C   UNL     1      47.548   7.926  12.788  0.00  0.00    +0.000 A 
ATOM      3  C   UNL     1      47.370   6.924  11.824  0.00  0.00    +0.000 A 
ATOM      4  C   UNL     1      46.127   6.740  11.197  0.00  0.00    +0.000 A 
ATOM      5  C   UNL     1      45.031   7.546  11.522  0.00  0.00    +0.000 A 
ATOM      6  C   UNL     1      45.245   8.606  12.410  0.00  0.00    +0.000 A 
ATOM      7  C   UNL     1      46.478   8.788  13.048  0.00  0.00    +0.000 A 
BRANCH   5   8
ATOM      8  N   UNL     1      43.755   7.409  10.967  0.00  0.00    +0.000 N 
ATOM      9  H   UNL     1      43.803   7.290   9.957  0.00  0.00    +0.000 HD
BRANCH   8  10
ATOM     10  C   UNL     1      42.807   6.485  11.586  0.00  0.00    +0.000 C 
BRANCH  10  11
ATOM     11  C   UNL     1      43.226   5.059  11.306  0.00  0.00    +0.000 A 
ATOM     12  C   UNL     1      43.684   4.656  10.047  0.00  0.00    +0.000 A 
ATOM     13  C   UNL     1      44.122   3.347   9.883  0.00  0.00    +0.000 A 
ATOM     14  N   UNL     1      44.134   2.425  10.868  0.00  0.00    +0.000 NA
ATOM     15  C   UNL     1      43.684   2.828  12.075  0.00  0.00    +0.000 A 
ATOM     16  C   UNL     1      43.230   4.111  12.339  0.00  0.00    +0.000 A 
ENDBRANCH  10  11
ENDBRANCH   8  10
ENDBRANCH   5   8
ENDBRANCH   1   2
BRANCH   1  19
ATOM     17  C   UNL     1      48.921   7.508  15.901  0.00  0.00    +0.000 C 
ATOM     18  O   UNL     1      48.719   8.675  16.234  0.00  0.00    +0.000 OA
ATOM     19  N   UNL     1      49.003   7.150  14.584  0.00  0.00    +0.000 N 
ATOM     20  H   UNL     1      49.250   6.203  14.336  0.00  0.00    +0.000 HD
BRANCH  17  28
ATOM     21  C   UNL     1      47.506   4.395  16.270  0.00  0.00    +0.000 A 
ATOM     22  N   UNL     1      47.101   3.170  16.657  0.00  0.00    +0.000 NA
ATOM     23  C   UNL     1      47.611   2.667  17.783  0.00  0.00    +0.000 A 
ATOM     24  N   UNL     1      48.497   3.245  18.589  0.00  0.00    +0.000 NA
ATOM     25  C   UNL     1      48.878   4.462  18.164  0.00  0.00    +0.000 A 
ATOM     26  S   UNL     1      50.009   5.349  19.068  0.00  0.00    +0.000 S 
ATOM     27  C   UNL     1      49.950   6.643  17.968  0.00  0.00    +0.000 A 
ATOM     28  C   UNL     1      49.079   6.439  16.903  0.00  0.00    +0.000 A 
ATOM     29  C   UNL     1      48.445   5.125  17.021  0.00  0.00    +0.000 A 
BRANCH  21  31
ATOM     30  C   UNL     1      46.982   3.925  14.040  0.00  0.00    +0.000 C 
ATOM     31  O   UNL     1      47.011   4.895  15.084  0.00  0.00    +0.000 OA
ENDBRANCH  21  31
ENDBRANCH  17  28
ENDBRANCH   1  19
TORSDOF 7
ENDMDL
