MODEL 1
REMARK VINA RESULT:    -8.468      0.000      0.000
REMARK INTER + INTRA:         -13.092
REMARK INTER:                 -11.934
REMARK INTRA:                  -1.158
REMARK UNBOUND:                -1.158
REMARK  Name = 
REMARK  8 active torsions:
REMARK  status: ('A' for Active; 'I' for Inactive)
REMARK    1  A    between atoms: C_1  and  C_2
REMARK    2  A    between atoms: C_2  and  N_3
REMARK    3  A    between atoms: C_2  and  C_16
REMARK    4  A    between atoms: C_4  and  C_6
REMARK    5  A    between atoms: C_19  and  C_20
REMARK    6  A    between atoms: C_20  and  N_21
REMARK    7  A    between atoms: N_21  and  C_22
REMARK    8  A    between atoms: C_22  and  C_23
REMARK                            x       y       z     vdW  Elec       q    Type
REMARK                         _______ _______ _______ _____ _____    ______ ____
ROOT
ATOM      1  C   UNL     1      46.715   8.558  13.084  0.00  0.00    +0.000 C 
ATOM      2  C   UNL     1      47.232   7.124  13.224  0.00  0.00    +0.000 C 
ENDROOT
BRANCH   2   3
ATOM      3  C   UNL     1      46.232   6.111  12.690  0.00  0.00    +0.000 A 
ATOM      4  C   UNL     1      46.354   4.765  13.061  0.00  0.00    +0.000 A 
ATOM      5  C   UNL     1      45.498   3.794  12.536  0.00  0.00    +0.000 A 
ATOM      6  C   UNL     1      44.483   4.143  11.635  0.00  0.00    +0.000 A 
ATOM      7  C   UNL     1      44.329   5.493  11.292  0.00  0.00    +0.000 A 
ATOM      8  C   UNL     1      45.192   6.466  11.815  0.00  0.00    +0.000 A 
BRANCH   6   9
ATOM      9  C   UNL     1      43.600   3.073  11.030  0.00  0.00    +0.000 C 
BRANCH   9  10
ATOM     10  N   UNL     1      44.344   2.259  10.073  0.00  0.00    +0.000 NA
ATOM     11  H   UNL     1      43.788   1.434   9.847  0.00  0.00    +0.000 HD
BRANCH  10  12
ATOM     12  C   UNL     1      44.612   2.995   8.833  0.00  0.00    +0.000 C 
BRANCH  12  13
ATOM     13  C   UNL     1      45.801   2.418   8.089  0.00  0.00    +0.000 A 
ATOM     14  C   UNL     1      46.586   3.235   7.294  0.00  0.00    +0.000 A 
ATOM     15  C   UNL     1      47.668   2.640   6.685  0.00  0.00    +0.000 A 
ATOM     16  N   UNL     1      47.971   1.337   6.821  0.00  0.00    +0.000 NA
ATOM     17  C   UNL     1      47.146   0.630   7.607  0.00  0.00    +0.000 A 
ATOM     18  N   UNL     1      46.069   1.104   8.257  0.00  0.00    +0.000 NA
ENDBRANCH  12  13
ENDBRANCH  10  12
ENDBRANCH   9  10
ENDBRANCH   6   9
ENDBRANCH   2   3
BRANCH   2  19
ATOM     19  N   UNL     1      47.589   6.836  14.599  0.00  0.00    +0.000 N 
ATOM     20  C   UNL     1      48.891   6.832  15.031  0.00  0.00    +0.000 C 
ATOM     21  O   UNL     1      49.833   7.036  14.271  0.00  0.00    +0.000 OA
ATOM     22  H   UNL     1      46.840   6.593  15.237  0.00  0.00    +0.000 HD
BRANCH  20  23
ATOM     23  C   UNL     1      49.108   6.627  16.469  0.00  0.00    +0.000 A 
ATOM     24  C   UNL     1      49.633   7.657  17.238  0.00  0.00    +0.000 A 
ATOM     25  S   UNL     1      49.802   7.262  18.888  0.00  0.00    +0.000 S 
ATOM     26  C   UNL     1      49.230   5.681  18.623  0.00  0.00    +0.000 A 
ATOM     27  N   UNL     1      49.158   4.784  19.643  0.00  0.00    +0.000 NA
ATOM     28  C   UNL     1      48.754   3.610  19.291  0.00  0.00    +0.000 A 
ATOM     29  N   UNL     1      48.405   3.254  18.014  0.00  0.00    +0.000 N 
ATOM     30  C   UNL     1      48.375   4.149  16.973  0.00  0.00    +0.000 A 
ATOM     31  O   UNL     1      47.914   3.835  15.881  0.00  0.00    +0.000 OA
ATOM     32  C   UNL     1      48.880   5.469  17.301  0.00  0.00    +0.000 A 
ATOM     33  H   UNL     1      48.066   2.324  17.808  0.00  0.00    +0.000 HD
ENDBRANCH  20  23
ENDBRANCH   2  19
TORSDOF 7
ENDMDL
MODEL 2
REMARK VINA RESULT:    -8.004      1.895      2.602
REMARK INTER + INTRA:         -12.438
REMARK INTER:                 -11.276
REMARK INTRA:                  -1.162
REMARK UNBOUND:                -1.158
REMARK  Name = 
REMARK  8 active torsions:
REMARK  status: ('A' for Active; 'I' for Inactive)
REMARK    1  A    between atoms: C_1  and  C_2
REMARK    2  A    between atoms: C_2  and  N_3
REMARK    3  A    between atoms: C_2  and  C_16
REMARK    4  A    between atoms: C_4  and  C_6
REMARK    5  A    between atoms: C_19  and  C_20
REMARK    6  A    between atoms: C_20  and  N_21
REMARK    7  A    between atoms: N_21  and  C_22
REMARK    8  A    between atoms: C_22  and  C_23
REMARK                            x       y       z     vdW  Elec       q    Type
REMARK                         _______ _______ _______ _____ _____    ______ ____
ROOT
ATOM      1  C   UNL     1      48.164   8.342  13.088  0.00  0.00    +0.000 C 
ATOM      2  C   UNL     1      48.083   6.919  13.645  0.00  0.00    +0.000 C 
ENDROOT
BRANCH   2   3
ATOM      3  C   UNL     1      46.976   6.118  12.978  0.00  0.00    +0.000 A 
ATOM      4  C   UNL     1      46.411   5.030  13.659  0.00  0.00    +0.000 A 
ATOM      5  C   UNL     1      45.442   4.227  13.052  0.00  0.00    +0.000 A 
ATOM      6  C   UNL     1      44.997   4.497  11.751  0.00  0.00    +0.000 A 
ATOM      7  C   UNL     1      45.527   5.608  11.081  0.00  0.00    +0.000 A 
ATOM      8  C   UNL     1      46.503   6.410  11.689  0.00  0.00    +0.000 A 
BRANCH   6   9
ATOM      9  C   UNL     1      43.989   3.586  11.086  0.00  0.00    +0.000 C 
BRANCH   9  10
ATOM     10  N   UNL     1      44.652   2.615  10.220  0.00  0.00    +0.000 NA
ATOM     11  H   UNL     1      44.157   1.726  10.290  0.00  0.00    +0.000 HD
BRANCH  10  12
ATOM     12  C   UNL     1      44.638   3.047   8.817  0.00  0.00    +0.000 C 
BRANCH  12  13
ATOM     13  C   UNL     1      45.808   2.467   8.045  0.00  0.00    +0.000 A 
ATOM     14  C   UNL     1      46.539   3.270   7.186  0.00  0.00    +0.000 A 
ATOM     15  C   UNL     1      47.607   2.675   6.554  0.00  0.00    +0.000 A 
ATOM     16  N   UNL     1      47.946   1.385   6.726  0.00  0.00    +0.000 NA
ATOM     17  C   UNL     1      47.172   0.692   7.573  0.00  0.00    +0.000 A 
ATOM     18  N   UNL     1      46.114   1.166   8.252  0.00  0.00    +0.000 NA
ENDBRANCH  12  13
ENDBRANCH  10  12
ENDBRANCH   9  10
ENDBRANCH   6   9
ENDBRANCH   2   3
BRANCH   2  19
ATOM     19  N   UNL     1      47.925   6.936  15.085  0.00  0.00    +0.000 N 
ATOM     20  C   UNL     1      48.957   6.633  15.937  0.00  0.00    +0.000 C 
ATOM     21  O   UNL     1      50.063   6.294  15.530  0.00  0.00    +0.000 OA
ATOM     22  H   UNL     1      47.003   7.143  15.454  0.00  0.00    +0.000 HD
BRANCH  20  23
ATOM     23  C   UNL     1      48.692   6.789  17.373  0.00  0.00    +0.000 A 
ATOM     24  C   UNL     1      48.827   5.695  18.219  0.00  0.00    +0.000 A 
ATOM     25  S   UNL     1      48.503   6.051  19.854  0.00  0.00    +0.000 S 
ATOM     26  C   UNL     1      48.117   7.666  19.483  0.00  0.00    +0.000 A 
ATOM     27  N   UNL     1      47.709   8.528  20.453  0.00  0.00    +0.000 NA
ATOM     28  C   UNL     1      47.401   9.705  20.024  0.00  0.00    +0.000 A 
ATOM     29  N   UNL     1      47.476  10.103  18.713  0.00  0.00    +0.000 N 
ATOM     30  C   UNL     1      47.968   9.296  17.717  0.00  0.00    +0.000 A 
ATOM     31  O   UNL     1      48.162   9.733  16.588  0.00  0.00    +0.000 OA
ATOM     32  C   UNL     1      48.269   7.940  18.135  0.00  0.00    +0.000 A 
ATOM     33  H   UNL     1      47.249  11.051  18.445  0.00  0.00    +0.000 HD
ENDBRANCH  20  23
ENDBRANCH   2  19
TORSDOF 7
ENDMDL
MODEL 3
REMARK VINA RESULT:    -7.392      3.297      8.029
REMARK INTER + INTRA:         -11.575
REMARK INTER:                 -10.291
REMARK INTRA:                  -1.284
REMARK UNBOUND:                -1.158
REMARK  Name = 
REMARK  8 active torsions:
REMARK  status: ('A' for Active; 'I' for Inactive)
REMARK    1  A    between atoms: C_1  and  C_2
REMARK    2  A    between atoms: C_2  and  N_3
REMARK    3  A    between atoms: C_2  and  C_16
REMARK    4  A    between atoms: C_4  and  C_6
REMARK    5  A    between atoms: C_19  and  C_20
REMARK    6  A    between atoms: C_20  and  N_21
REMARK    7  A    between atoms: N_21  and  C_22
REMARK    8  A    between atoms: C_22  and  C_23
REMARK                            x       y       z     vdW  Elec       q    Type
REMARK                         _______ _______ _______ _____ _____    ______ ____
ROOT
ATOM      1  C   UNL     1      49.842   8.087  11.414  0.00  0.00    +0.000 C 
ATOM      2  C   UNL     1      48.679   7.746  12.349  0.00  0.00    +0.000 C 
ENDROOT
BRANCH   2   3
ATOM      3  C   UNL     1      49.166   7.389  13.744  0.00  0.00    +0.000 A 
ATOM      4  C   UNL     1      48.319   6.679  14.606  0.00  0.00    +0.000 A 
ATOM      5  C   UNL     1      48.704   6.395  15.918  0.00  0.00    +0.000 A 
ATOM      6  C   UNL     1      49.955   6.798  16.404  0.00  0.00    +0.000 A 
ATOM      7  C   UNL     1      50.823   7.471  15.535  0.00  0.00    +0.000 A 
ATOM      8  C   UNL     1      50.434   7.761  14.219  0.00  0.00    +0.000 A 
BRANCH   6   9
ATOM      9  C   UNL     1      50.334   6.533  17.844  0.00  0.00    +0.000 C 
BRANCH   9  10
ATOM     10  N   UNL     1      49.177   6.092  18.618  0.00  0.00    +0.000 NA
ATOM     11  H   UNL     1      48.368   6.050  17.997  0.00  0.00    +0.000 HD
BRANCH  10  12
ATOM     12  C   UNL     1      49.391   4.759  19.193  0.00  0.00    +0.000 C 
BRANCH  12  13
ATOM     13  C   UNL     1      49.432   3.689  18.119  0.00  0.00    +0.000 A 
ATOM     14  C   UNL     1      50.615   3.023  17.847  0.00  0.00    +0.000 A 
ATOM     15  C   UNL     1      50.556   2.041  16.884  0.00  0.00    +0.000 A 
ATOM     16  N   UNL     1      49.434   1.725  16.214  0.00  0.00    +0.000 NA
ATOM     17  C   UNL     1      48.344   2.432  16.546  0.00  0.00    +0.000 A 
ATOM     18  N   UNL     1      48.279   3.403  17.472  0.00  0.00    +0.000 NA
ENDBRANCH  12  13
ENDBRANCH  10  12
ENDBRANCH   9  10
ENDBRANCH   6   9
ENDBRANCH   2   3
BRANCH   2  19
ATOM     19  N   UNL     1      47.861   6.687  11.791  0.00  0.00    +0.000 N 
ATOM     20  C   UNL     1      46.522   6.852  11.543  0.00  0.00    +0.000 C 
ATOM     21  O   UNL     1      45.930   7.891  11.814  0.00  0.00    +0.000 OA
ATOM     22  H   UNL     1      48.305   5.791  11.622  0.00  0.00    +0.000 HD
BRANCH  20  23
ATOM     23  C   UNL     1      45.833   5.736  10.881  0.00  0.00    +0.000 A 
ATOM     24  C   UNL     1      45.902   5.609   9.500  0.00  0.00    +0.000 A 
ATOM     25  S   UNL     1      45.066   4.252   8.895  0.00  0.00    +0.000 S 
ATOM     26  C   UNL     1      44.535   3.817  10.452  0.00  0.00    +0.000 A 
ATOM     27  N   UNL     1      43.726   2.740  10.639  0.00  0.00    +0.000 NA
ATOM     28  C   UNL     1      43.360   2.555  11.863  0.00  0.00    +0.000 A 
ATOM     29  N   UNL     1      43.740   3.343  12.919  0.00  0.00    +0.000 N 
ATOM     30  C   UNL     1      44.627   4.384  12.791  0.00  0.00    +0.000 A 
ATOM     31  O   UNL     1      45.061   4.970  13.776  0.00  0.00    +0.000 OA
ATOM     32  C   UNL     1      45.020   4.674  11.425  0.00  0.00    +0.000 A 
ATOM     33  H   UNL     1      43.443   3.127  13.861  0.00  0.00    +0.000 HD
ENDBRANCH  20  23
ENDBRANCH   2  19
TORSDOF 7
ENDMDL
MODEL 4
REMARK VINA RESULT:    -7.259      2.548      4.241
REMARK INTER + INTRA:         -11.387
REMARK INTER:                 -10.165
REMARK INTRA:                  -1.222
REMARK UNBOUND:                -1.158
REMARK  Name = 
REMARK  8 active torsions:
REMARK  status: ('A' for Active; 'I' for Inactive)
REMARK    1  A    between atoms: C_1  and  C_2
REMARK    2  A    between atoms: C_2  and  N_3
REMARK    3  A    between atoms: C_2  and  C_16
REMARK    4  A    between atoms: C_4  and  C_6
REMARK    5  A    between atoms: C_19  and  C_20
REMARK    6  A    between atoms: C_20  and  N_21
REMARK    7  A    between atoms: N_21  and  C_22
REMARK    8  A    between atoms: C_22  and  C_23
REMARK                            x       y       z     vdW  Elec       q    Type
REMARK                         _______ _______ _______ _____ _____    ______ ____
ROOT
ATOM      1  C   UNL     1      47.539   4.246  15.571  0.00  0.00    +0.000 C 
ATOM      2  C   UNL     1      47.230   5.485  14.727  0.00  0.00    +0.000 C 
ENDROOT
BRANCH   2   3
ATOM      3  C   UNL     1      46.373   5.142  13.520  0.00  0.00    +0.000 A 
ATOM      4  C   UNL     1      45.938   6.171  12.673  0.00  0.00    +0.000 A 
ATOM      5  C   UNL     1      45.090   5.904  11.595  0.00  0.00    +0.000 A 
ATOM      6  C   UNL     1      44.665   4.597  11.321  0.00  0.00    +0.000 A 
ATOM      7  C   UNL     1      45.129   3.559  12.139  0.00  0.00    +0.000 A 
ATOM      8  C   UNL     1      45.975   3.828  13.224  0.00  0.00    +0.000 A 
BRANCH   6   9
ATOM      9  C   UNL     1      43.702   4.332  10.185  0.00  0.00    +0.000 C 
BRANCH   9  10
ATOM     10  N   UNL     1      44.245   3.343   9.257  0.00  0.00    +0.000 NA
ATOM     11  H   UNL     1      43.469   2.884   8.780  0.00  0.00    +0.000 HD
BRANCH  10  12
ATOM     12  C   UNL     1      45.108   3.968   8.248  0.00  0.00    +0.000 C 
BRANCH  12  13
ATOM     13  C   UNL     1      46.054   2.960   7.624  0.00  0.00    +0.000 A 
ATOM     14  C   UNL     1      46.843   3.323   6.545  0.00  0.00    +0.000 A 
ATOM     15  C   UNL     1      47.701   2.360   6.064  0.00  0.00    +0.000 A 
ATOM     16  N   UNL     1      47.787   1.120   6.578  0.00  0.00    +0.000 NA
ATOM     17  C   UNL     1      46.978   0.866   7.616  0.00  0.00    +0.000 A 
ATOM     18  N   UNL     1      46.110   1.727   8.175  0.00  0.00    +0.000 NA
ENDBRANCH  12  13
ENDBRANCH  10  12
ENDBRANCH   9  10
ENDBRANCH   6   9
ENDBRANCH   2   3
BRANCH   2  19
ATOM     19  N   UNL     1      48.451   6.157  14.331  0.00  0.00    +0.000 N 
ATOM     20  C   UNL     1      49.058   7.099  15.123  0.00  0.00    +0.000 C 
ATOM     21  O   UNL     1      48.581   7.455  16.196  0.00  0.00    +0.000 OA
ATOM     22  H   UNL     1      48.833   5.938  13.417  0.00  0.00    +0.000 HD
BRANCH  20  23
ATOM     23  C   UNL     1      50.344   7.628  14.650  0.00  0.00    +0.000 A 
ATOM     24  C   UNL     1      51.453   7.580  15.484  0.00  0.00    +0.000 A 
ATOM     25  S   UNL     1      52.868   8.215  14.776  0.00  0.00    +0.000 S 
ATOM     26  C   UNL     1      52.036   8.628  13.351  0.00  0.00    +0.000 A 
ATOM     27  N   UNL     1      52.672   9.257  12.327  0.00  0.00    +0.000 NA
ATOM     28  C   UNL     1      51.910   9.555  11.329  0.00  0.00    +0.000 A 
ATOM     29  N   UNL     1      50.570   9.270  11.257  0.00  0.00    +0.000 N 
ATOM     30  C   UNL     1      49.908   8.557  12.226  0.00  0.00    +0.000 A 
ATOM     31  O   UNL     1      48.750   8.190  12.060  0.00  0.00    +0.000 OA
ATOM     32  C   UNL     1      50.704   8.252  13.400  0.00  0.00    +0.000 A 
ATOM     33  H   UNL     1      50.033   9.503  10.433  0.00  0.00    +0.000 HD
ENDBRANCH  20  23
ENDBRANCH   2  19
TORSDOF 7
ENDMDL
MODEL 5
REMARK VINA RESULT:    -7.121      2.865      8.396
REMARK INTER + INTRA:         -11.194
REMARK INTER:                  -9.573
REMARK INTRA:                  -1.620
REMARK UNBOUND:                -1.158
REMARK  Name = 
REMARK  8 active torsions:
REMARK  status: ('A' for Active; 'I' for Inactive)
REMARK    1  A    between atoms: C_1  and  C_2
REMARK    2  A    between atoms: C_2  and  N_3
REMARK    3  A    between atoms: C_2  and  C_16
REMARK    4  A    between atoms: C_4  and  C_6
REMARK    5  A    between atoms: C_19  and  C_20
REMARK    6  A    between atoms: C_20  and  N_21
REMARK    7  A    between atoms: N_21  and  C_22
REMARK    8  A    between atoms: C_22  and  C_23
REMARK                            x       y       z     vdW  Elec       q    Type
REMARK                         _______ _______ _______ _____ _____    ______ ____
ROOT
ATOM      1  C   UNL     1      49.113   7.825  11.381  0.00  0.00    +0.000 C 
ATOM      2  C   UNL     1      47.912   7.798  12.330  0.00  0.00    +0.000 C 
ENDROOT
BRANCH   2   3
ATOM      3  C   UNL     1      48.340   7.945  13.781  0.00  0.00    +0.000 A 
ATOM      4  C   UNL     1      49.200   6.990  14.342  0.00  0.00    +0.000 A 
ATOM      5  C   UNL     1      49.559   7.052  15.691  0.00  0.00    +0.000 A 
ATOM      6  C   UNL     1      49.082   8.080  16.516  0.00  0.00    +0.000 A 
ATOM      7  C   UNL     1      48.256   9.060  15.951  0.00  0.00    +0.000 A 
ATOM      8  C   UNL     1      47.891   8.995  14.599  0.00  0.00    +0.000 A 
BRANCH   6   9
ATOM      9  C   UNL     1      49.434   8.100  17.987  0.00  0.00    +0.000 C 
BRANCH   9  10
ATOM     10  N   UNL     1      48.468   7.333  18.768  0.00  0.00    +0.000 NA
ATOM     11  H   UNL     1      47.685   7.084  18.162  0.00  0.00    +0.000 HD
BRANCH  10  12
ATOM     12  C   UNL     1      49.059   6.099  19.296  0.00  0.00    +0.000 C 
BRANCH  12  13
ATOM     13  C   UNL     1      48.695   4.898  18.443  0.00  0.00    +0.000 A 
ATOM     14  C   UNL     1      47.417   4.774  17.927  0.00  0.00    +0.000 A 
ATOM     15  C   UNL     1      47.182   3.675  17.133  0.00  0.00    +0.000 A 
ATOM     16  N   UNL     1      48.113   2.745  16.860  0.00  0.00    +0.000 NA
ATOM     17  C   UNL     1      49.317   2.952  17.411  0.00  0.00    +0.000 A 
ATOM     18  N   UNL     1      49.665   3.989  18.193  0.00  0.00    +0.000 NA
ENDBRANCH  12  13
ENDBRANCH  10  12
ENDBRANCH   9  10
ENDBRANCH   6   9
ENDBRANCH   2   3
BRANCH   2  19
ATOM     19  N   UNL     1      47.124   6.598  12.133  0.00  0.00    +0.000 N 
ATOM     20  C   UNL     1      45.756   6.597  12.230  0.00  0.00    +0.000 C 
ATOM     21  O   UNL     1      45.121   7.604  12.526  0.00  0.00    +0.000 OA
ATOM     22  H   UNL     1      47.624   5.733  11.957  0.00  0.00    +0.000 HD
BRANCH  20  23
ATOM     23  C   UNL     1      45.074   5.337  11.905  0.00  0.00    +0.000 A 
ATOM     24  C   UNL     1      44.352   4.675  12.890  0.00  0.00    +0.000 A 
ATOM     25  S   UNL     1      43.607   3.242  12.344  0.00  0.00    +0.000 S 
ATOM     26  C   UNL     1      44.268   3.427  10.787  0.00  0.00    +0.000 A 
ATOM     27  N   UNL     1      44.046   2.498   9.818  0.00  0.00    +0.000 NA
ATOM     28  C   UNL     1      44.648   2.739   8.702  0.00  0.00    +0.000 A 
ATOM     29  N   UNL     1      45.442   3.831   8.463  0.00  0.00    +0.000 N 
ATOM     30  C   UNL     1      45.621   4.837   9.379  0.00  0.00    +0.000 A 
ATOM     31  O   UNL     1      46.213   5.868   9.080  0.00  0.00    +0.000 OA
ATOM     32  C   UNL     1      45.016   4.586  10.674  0.00  0.00    +0.000 A 
ATOM     33  H   UNL     1      45.862   3.978   7.555  0.00  0.00    +0.000 HD
ENDBRANCH  20  23
ENDBRANCH   2  19
TORSDOF 7
ENDMDL
MODEL 6
REMARK VINA RESULT:    -7.112      3.606      5.089
REMARK INTER + INTRA:         -11.181
REMARK INTER:                  -9.942
REMARK INTRA:                  -1.239
REMARK UNBOUND:                -1.158
REMARK  Name = 
REMARK  8 active torsions:
REMARK  status: ('A' for Active; 'I' for Inactive)
REMARK    1  A    between atoms: C_1  and  C_2
REMARK    2  A    between atoms: C_2  and  N_3
REMARK    3  A    between atoms: C_2  and  C_16
REMARK    4  A    between atoms: C_4  and  C_6
REMARK    5  A    between atoms: C_19  and  C_20
REMARK    6  A    between atoms: C_20  and  N_21
REMARK    7  A    between atoms: N_21  and  C_22
REMARK    8  A    between atoms: C_22  and  C_23
REMARK                            x       y       z     vdW  Elec       q    Type
REMARK                         _______ _______ _______ _____ _____    ______ ____
ROOT
ATOM      1  C   UNL     1      48.716   6.340  15.805  0.00  0.00    +0.000 C 
ATOM      2  C   UNL     1      48.579   7.144  14.509  0.00  0.00    +0.000 C 
ENDROOT
BRANCH   2   3
ATOM      3  C   UNL     1      47.603   6.491  13.544  0.00  0.00    +0.000 A 
ATOM      4  C   UNL     1      47.341   7.107  12.312  0.00  0.00    +0.000 A 
ATOM      5  C   UNL     1      46.398   6.575  11.430  0.00  0.00    +0.000 A 
ATOM      6  C   UNL     1      45.700   5.401  11.745  0.00  0.00    +0.000 A 
ATOM      7  C   UNL     1      45.988   4.758  12.955  0.00  0.00    +0.000 A 
ATOM      8  C   UNL     1      46.930   5.295  13.844  0.00  0.00    +0.000 A 
BRANCH   6   9
ATOM      9  C   UNL     1      44.641   4.869  10.804  0.00  0.00    +0.000 C 
BRANCH   9  10
ATOM     10  N   UNL     1      45.196   4.627   9.475  0.00  0.00    +0.000 NA
ATOM     11  H   UNL     1      46.212   4.583   9.550  0.00  0.00    +0.000 HD
BRANCH  10  12
ATOM     12  C   UNL     1      44.715   3.360   8.913  0.00  0.00    +0.000 C 
BRANCH  12  13
ATOM     13  C   UNL     1      45.812   2.636   8.155  0.00  0.00    +0.000 A 
ATOM     14  C   UNL     1      46.643   3.336   7.298  0.00  0.00    +0.000 A 
ATOM     15  C   UNL     1      47.636   2.611   6.680  0.00  0.00    +0.000 A 
ATOM     16  N   UNL     1      47.813   1.291   6.863  0.00  0.00    +0.000 NA
ATOM     17  C   UNL     1      46.953   0.704   7.707  0.00  0.00    +0.000 A 
ATOM     18  N   UNL     1      45.955   1.309   8.373  0.00  0.00    +0.000 NA
ENDBRANCH  12  13
ENDBRANCH  10  12
ENDBRANCH   9  10
ENDBRANCH   6   9
ENDBRANCH   2   3
BRANCH   2  19
ATOM     19  N   UNL     1      49.873   7.350  13.890  0.00  0.00    +0.000 N 
ATOM     20  C   UNL     1      50.466   8.586  13.829  0.00  0.00    +0.000 C 
ATOM     21  O   UNL     1      49.919   9.595  14.261  0.00  0.00    +0.000 OA
ATOM     22  H   UNL     1      50.320   6.548  13.460  0.00  0.00    +0.000 HD
BRANCH  20  23
ATOM     23  C   UNL     1      51.822   8.638  13.267  0.00  0.00    +0.000 A 
ATOM     24  C   UNL     1      52.867   9.126  14.041  0.00  0.00    +0.000 A 
ATOM     25  S   UNL     1      54.376   9.100  13.248  0.00  0.00    +0.000 S 
ATOM     26  C   UNL     1      53.677   8.489  11.822  0.00  0.00    +0.000 A 
ATOM     27  N   UNL     1      54.432   8.268  10.712  0.00  0.00    +0.000 NA
ATOM     28  C   UNL     1      53.764   7.852   9.689  0.00  0.00    +0.000 A 
ATOM     29  N   UNL     1      52.412   7.624   9.678  0.00  0.00    +0.000 N 
ATOM     30  C   UNL     1      51.628   7.745  10.799  0.00  0.00    +0.000 A 
ATOM     31  O   UNL     1      50.455   7.389  10.791  0.00  0.00    +0.000 OA
ATOM     32  C   UNL     1      52.317   8.272  11.962  0.00  0.00    +0.000 A 
ATOM     33  H   UNL     1      51.952   7.267   8.852  0.00  0.00    +0.000 HD
ENDBRANCH  20  23
ENDBRANCH   2  19
TORSDOF 7
ENDMDL
MODEL 7
REMARK VINA RESULT:    -7.094      1.986      2.907
REMARK INTER + INTRA:         -11.156
REMARK INTER:                 -10.026
REMARK INTRA:                  -1.130
REMARK UNBOUND:                -1.158
REMARK  Name = 
REMARK  8 active torsions:
REMARK  status: ('A' for Active; 'I' for Inactive)
REMARK    1  A    between atoms: C_1  and  C_2
REMARK    2  A    between atoms: C_2  and  N_3
REMARK    3  A    between atoms: C_2  and  C_16
REMARK    4  A    between atoms: C_4  and  C_6
REMARK    5  A    between atoms: C_19  and  C_20
REMARK    6  A    between atoms: C_20  and  N_21
REMARK    7  A    between atoms: N_21  and  C_22
REMARK    8  A    between atoms: C_22  and  C_23
REMARK                            x       y       z     vdW  Elec       q    Type
REMARK                         _______ _______ _______ _____ _____    ______ ____
ROOT
ATOM      1  C   UNL     1      47.883   2.979  15.228  0.00  0.00    +0.000 C 
ATOM      2  C   UNL     1      47.030   4.241  15.378  0.00  0.00    +0.000 C 
ENDROOT
BRANCH   2   3
ATOM      3  C   UNL     1      46.533   4.745  14.032  0.00  0.00    +0.000 A 
ATOM      4  C   UNL     1      45.409   4.146  13.448  0.00  0.00    +0.000 A 
ATOM      5  C   UNL     1      44.965   4.533  12.181  0.00  0.00    +0.000 A 
ATOM      6  C   UNL     1      45.622   5.544  11.467  0.00  0.00    +0.000 A 
ATOM      7  C   UNL     1      46.721   6.175  12.063  0.00  0.00    +0.000 A 
ATOM      8  C   UNL     1      47.170   5.783  13.332  0.00  0.00    +0.000 A 
BRANCH   6   9
ATOM      9  C   UNL     1      45.164   5.913  10.073  0.00  0.00    +0.000 C 
BRANCH   9  10
ATOM     10  N   UNL     1      45.927   5.187   9.062  0.00  0.00    +0.000 NA
ATOM     11  H   UNL     1      46.731   4.749   9.513  0.00  0.00    +0.000 HD
BRANCH  10  12
ATOM     12  C   UNL     1      45.121   4.138   8.428  0.00  0.00    +0.000 C 
BRANCH  12  13
ATOM     13  C   UNL     1      45.994   3.095   7.756  0.00  0.00    +0.000 A 
ATOM     14  C   UNL     1      46.719   3.420   6.623  0.00  0.00    +0.000 A 
ATOM     15  C   UNL     1      47.514   2.426   6.099  0.00  0.00    +0.000 A 
ATOM     16  N   UNL     1      47.601   1.192   6.624  0.00  0.00    +0.000 NA
ATOM     17  C   UNL     1      46.856   0.975   7.717  0.00  0.00    +0.000 A 
ATOM     18  N   UNL     1      46.052   1.867   8.321  0.00  0.00    +0.000 NA
ENDBRANCH  12  13
ENDBRANCH  10  12
ENDBRANCH   9  10
ENDBRANCH   6   9
ENDBRANCH   2   3
BRANCH   2  19
ATOM     19  N   UNL     1      47.756   5.273  16.091  0.00  0.00    +0.000 N 
ATOM     20  C   UNL     1      47.619   5.462  17.443  0.00  0.00    +0.000 C 
ATOM     21  O   UNL     1      46.847   4.792  18.121  0.00  0.00    +0.000 OA
ATOM     22  H   UNL     1      48.349   5.891  15.547  0.00  0.00    +0.000 HD
BRANCH  20  23
ATOM     23  C   UNL     1      48.489   6.473  18.058  0.00  0.00    +0.000 A 
ATOM     24  C   UNL     1      47.922   7.533  18.754  0.00  0.00    +0.000 A 
ATOM     25  S   UNL     1      49.069   8.604  19.421  0.00  0.00    +0.000 S 
ATOM     26  C   UNL     1      50.362   7.720  18.756  0.00  0.00    +0.000 A 
ATOM     27  N   UNL     1      51.648   8.130  18.923  0.00  0.00    +0.000 NA
ATOM     28  C   UNL     1      52.523   7.394  18.324  0.00  0.00    +0.000 A 
ATOM     29  N   UNL     1      52.230   6.278  17.583  0.00  0.00    +0.000 N 
ATOM     30  C   UNL     1      50.957   5.777  17.464  0.00  0.00    +0.000 A 
ATOM     31  O   UNL     1      50.751   4.697  16.923  0.00  0.00    +0.000 OA
ATOM     32  C   UNL     1      49.926   6.602  18.066  0.00  0.00    +0.000 A 
ATOM     33  H   UNL     1      52.965   5.725  17.164  0.00  0.00    +0.000 HD
ENDBRANCH  20  23
ENDBRANCH   2  19
TORSDOF 7
ENDMDL
MODEL 8
REMARK VINA RESULT:    -7.064      2.420      3.313
REMARK INTER + INTRA:         -11.113
REMARK INTER:                 -10.212
REMARK INTRA:                  -0.901
REMARK UNBOUND:                -1.158
REMARK  Name = 
REMARK  8 active torsions:
REMARK  status: ('A' for Active; 'I' for Inactive)
REMARK    1  A    between atoms: C_1  and  C_2
REMARK    2  A    between atoms: C_2  and  N_3
REMARK    3  A    between atoms: C_2  and  C_16
REMARK    4  A    between atoms: C_4  and  C_6
REMARK    5  A    between atoms: C_19  and  C_20
REMARK    6  A    between atoms: C_20  and  N_21
REMARK    7  A    between atoms: N_21  and  C_22
REMARK    8  A    between atoms: C_22  and  C_23
REMARK                            x       y       z     vdW  Elec       q    Type
REMARK                         _______ _______ _______ _____ _____    ______ ____
ROOT
ATOM      1  C   UNL     1      47.540   3.408  15.397  0.00  0.00    +0.000 C 
ATOM      2  C   UNL     1      46.972   4.765  14.973  0.00  0.00    +0.000 C 
ENDROOT
BRANCH   2   3
ATOM      3  C   UNL     1      46.188   4.665  13.675  0.00  0.00    +0.000 A 
ATOM      4  C   UNL     1      45.704   5.835  13.074  0.00  0.00    +0.000 A 
ATOM      5  C   UNL     1      44.919   5.778  11.919  0.00  0.00    +0.000 A 
ATOM      6  C   UNL     1      44.608   4.549  11.321  0.00  0.00    +0.000 A 
ATOM      7  C   UNL     1      45.124   3.379  11.894  0.00  0.00    +0.000 A 
ATOM      8  C   UNL     1      45.906   3.436  13.056  0.00  0.00    +0.000 A 
BRANCH   6   9
ATOM      9  C   UNL     1      43.711   4.500  10.105  0.00  0.00    +0.000 C 
BRANCH   9  10
ATOM     10  N   UNL     1      44.156   3.473   9.167  0.00  0.00    +0.000 NA
ATOM     11  H   UNL     1      43.339   3.101   8.680  0.00  0.00    +0.000 HD
BRANCH  10  12
ATOM     12  C   UNL     1      45.082   4.020   8.169  0.00  0.00    +0.000 C 
BRANCH  12  13
ATOM     13  C   UNL     1      46.087   2.979   7.713  0.00  0.00    +0.000 A 
ATOM     14  C   UNL     1      46.004   1.680   8.184  0.00  0.00    +0.000 A 
ATOM     15  C   UNL     1      46.931   0.790   7.691  0.00  0.00    +0.000 A 
ATOM     16  N   UNL     1      47.888   1.128   6.809  0.00  0.00    +0.000 NA
ATOM     17  C   UNL     1      47.888   2.411   6.420  0.00  0.00    +0.000 A 
ATOM     18  N   UNL     1      47.030   3.364   6.824  0.00  0.00    +0.000 NA
ENDBRANCH  12  13
ENDBRANCH  10  12
ENDBRANCH   9  10
ENDBRANCH   6   9
ENDBRANCH   2   3
BRANCH   2  19
ATOM     19  N   UNL     1      48.024   5.757  14.877  0.00  0.00    +0.000 N 
ATOM     20  C   UNL     1      48.624   6.297  15.987  0.00  0.00    +0.000 C 
ATOM     21  O   UNL     1      48.280   5.998  17.126  0.00  0.00    +0.000 OA
ATOM     22  H   UNL     1      48.283   6.079  13.951  0.00  0.00    +0.000 HD
BRANCH  20  23
ATOM     23  C   UNL     1      49.745   7.215  15.749  0.00  0.00    +0.000 A 
ATOM     24  C   UNL     1      49.507   8.451  15.163  0.00  0.00    +0.000 A 
ATOM     25  S   UNL     1      50.910   9.401  14.976  0.00  0.00    +0.000 S 
ATOM     26  C   UNL     1      51.895   8.171  15.619  0.00  0.00    +0.000 A 
ATOM     27  N   UNL     1      53.243   8.328  15.707  0.00  0.00    +0.000 NA
ATOM     28  C   UNL     1      53.870   7.298  16.167  0.00  0.00    +0.000 A 
ATOM     29  N   UNL     1      53.270   6.129  16.560  0.00  0.00    +0.000 N 
ATOM     30  C   UNL     1      51.907   5.960  16.574  0.00  0.00    +0.000 A 
ATOM     31  O   UNL     1      51.399   4.961  17.071  0.00  0.00    +0.000 OA
ATOM     32  C   UNL     1      51.158   7.065  16.007  0.00  0.00    +0.000 A 
ATOM     33  H   UNL     1      53.815   5.369  16.941  0.00  0.00    +0.000 HD
ENDBRANCH  20  23
ENDBRANCH   2  19
TORSDOF 7
ENDMDL
MODEL 9
REMARK VINA RESULT:    -6.949      4.730      9.332
REMARK INTER + INTRA:         -10.951
REMARK INTER:                 -10.137
REMARK INTRA:                  -0.814
REMARK UNBOUND:                -1.158
REMARK  Name = 
REMARK  8 active torsions:
REMARK  status: ('A' for Active; 'I' for Inactive)
REMARK    1  A    between atoms: C_1  and  C_2
REMARK    2  A    between atoms: C_2  and  N_3
REMARK    3  A    between atoms: C_2  and  C_16
REMARK    4  A    between atoms: C_4  and  C_6
REMARK    5  A    between atoms: C_19  and  C_20
REMARK    6  A    between atoms: C_20  and  N_21
REMARK    7  A    between atoms: N_21  and  C_22
REMARK    8  A    between atoms: C_22  and  C_23
REMARK                            x       y       z     vdW  Elec       q    Type
REMARK                         _______ _______ _______ _____ _____    ______ ____
ROOT
ATOM      1  C   UNL     1      46.933   4.806  18.317  0.00  0.00    +0.000 C 
ATOM      2  C   UNL     1      47.466   4.099  17.068  0.00  0.00    +0.000 C 
ENDROOT
BRANCH   2   3
ATOM      3  C   UNL     1      48.924   3.701  17.228  0.00  0.00    +0.000 A 
ATOM      4  C   UNL     1      49.284   2.351  17.111  0.00  0.00    +0.000 A 
ATOM      5  C   UNL     1      50.602   1.938  17.321  0.00  0.00    +0.000 A 
ATOM      6  C   UNL     1      51.604   2.865  17.639  0.00  0.00    +0.000 A 
ATOM      7  C   UNL     1      51.259   4.220  17.716  0.00  0.00    +0.000 A 
ATOM      8  C   UNL     1      49.935   4.634  17.511  0.00  0.00    +0.000 A 
BRANCH   6   9
ATOM      9  C   UNL     1      53.014   2.395  17.919  0.00  0.00    +0.000 C 
BRANCH   9  10
ATOM     10  N   UNL     1      53.016   1.041  18.466  0.00  0.00    +0.000 NA
ATOM     11  H   UNL     1      52.349   0.477  17.939  0.00  0.00    +0.000 HD
BRANCH  10  12
ATOM     12  C   UNL     1      54.340   0.418  18.357  0.00  0.00    +0.000 C 
BRANCH  12  13
ATOM     13  C   UNL     1      54.249  -1.095  18.417  0.00  0.00    +0.000 A 
ATOM     14  C   UNL     1      54.956  -1.871  17.514  0.00  0.00    +0.000 A 
ATOM     15  C   UNL     1      54.848  -3.235  17.663  0.00  0.00    +0.000 A 
ATOM     16  N   UNL     1      54.097  -3.820  18.612  0.00  0.00    +0.000 NA
ATOM     17  C   UNL     1      53.447  -2.983  19.433  0.00  0.00    +0.000 A 
ATOM     18  N   UNL     1      53.484  -1.640  19.390  0.00  0.00    +0.000 NA
ENDBRANCH  12  13
ENDBRANCH  10  12
ENDBRANCH   9  10
ENDBRANCH   6   9
ENDBRANCH   2   3
BRANCH   2  19
ATOM     19  N   UNL     1      47.270   4.917  15.889  0.00  0.00    +0.000 N 
ATOM     20  C   UNL     1      47.161   4.376  14.633  0.00  0.00    +0.000 C 
ATOM     21  O   UNL     1      47.260   3.170  14.430  0.00  0.00    +0.000 OA
ATOM     22  H   UNL     1      47.255   5.924  16.013  0.00  0.00    +0.000 HD
BRANCH  20  23
ATOM     23  C   UNL     1      46.861   5.307  13.538  0.00  0.00    +0.000 A 
ATOM     24  C   UNL     1      47.841   6.189  13.100  0.00  0.00    +0.000 A 
ATOM     25  S   UNL     1      47.338   7.185  11.811  0.00  0.00    +0.000 S 
ATOM     26  C   UNL     1      45.775   6.512  11.829  0.00  0.00    +0.000 A 
ATOM     27  N   UNL     1      44.812   6.959  10.979  0.00  0.00    +0.000 NA
ATOM     28  C   UNL     1      43.661   6.395  11.136  0.00  0.00    +0.000 A 
ATOM     29  N   UNL     1      43.389   5.417  12.058  0.00  0.00    +0.000 N 
ATOM     30  C   UNL     1      44.352   4.873  12.872  0.00  0.00    +0.000 A 
ATOM     31  O   UNL     1      44.109   3.899  13.575  0.00  0.00    +0.000 OA
ATOM     32  C   UNL     1      45.650   5.515  12.781  0.00  0.00    +0.000 A 
ATOM     33  H   UNL     1      42.473   4.993  12.110  0.00  0.00    +0.000 HD
ENDBRANCH  20  23
ENDBRANCH   2  19
TORSDOF 7
ENDMDL
