MODEL 1
REMARK VINA RESULT:    -6.977      0.000      0.000
REMARK INTER + INTRA:          -9.428
REMARK INTER:                  -8.812
REMARK INTRA:                  -0.615
REMARK UNBOUND:                -0.615
REMARK  Name = 
REMARK  5 active torsions:
REMARK  status: ('A' for Active; 'I' for Inactive)
REMARK    1  A    between atoms: N_1  and  C_2
REMARK    2  A    between atoms: C_2  and  C_3
REMARK    3  A    between atoms: C_6  and  O_7
REMARK    4  A    between atoms: O_7  and  C_8
REMARK    5  A    between atoms: C_8  and  C_9
REMARK                            x       y       z     vdW  Elec       q    Type
REMARK                         _______ _______ _______ _____ _____    ______ ____
ROOT
ATOM      1  C   UNL     1      46.548   2.237   7.644  0.00  0.00    +0.000 A 
ATOM      2  C   UNL     1      45.701   1.521   8.503  0.00  0.00    +0.000 A 
ATOM      3  C   UNL     1      44.720   2.181   9.248  0.00  0.00    +0.000 A 
ATOM      4  C   UNL     1      44.579   3.566   9.153  0.00  0.00    +0.000 A 
ATOM      5  C   UNL     1      45.371   4.275   8.247  0.00  0.00    +0.000 A 
ATOM      6  C   UNL     1      46.356   3.619   7.510  0.00  0.00    +0.000 A 
ENDROOT
BRANCH   1   7
ATOM      7  C   UNL     1      47.663   1.552   6.901  0.00  0.00    +0.000 C 
BRANCH   7   8
ATOM      8  N   UNL     1      48.606   2.508   6.336  0.00  0.00    +0.000 NA
ATOM      9  H   UNL     1      48.094   3.174   5.759  0.00  0.00    +0.000 HD
ATOM     10  H   UNL     1      49.239   2.013   5.711  0.00  0.00    +0.000 HD
ENDBRANCH   7   8
ENDBRANCH   1   7
BRANCH   4  11
ATOM     11  O   UNL     1      43.653   4.133   9.990  0.00  0.00    +0.000 OA
BRANCH  11  12
ATOM     12  C   UNL     1      43.664   3.615  11.322  0.00  0.00    +0.000 C 
BRANCH  12  13
ATOM     13  C   UNL     1      44.749   4.284  12.123  0.00  0.00    +0.000 A 
ATOM     14  C   UNL     1      44.805   5.677  12.216  0.00  0.00    +0.000 A 
ATOM     15  C   UNL     1      45.798   6.251  12.992  0.00  0.00    +0.000 A 
ATOM     16  N   UNL     1      46.724   5.542  13.670  0.00  0.00    +0.000 NA
ATOM     17  C   UNL     1      46.658   4.198  13.559  0.00  0.00    +0.000 A 
ATOM     18  C   UNL     1      45.704   3.529  12.809  0.00  0.00    +0.000 A 
ENDBRANCH  12  13
ENDBRANCH  11  12
ENDBRANCH   4  11
TORSDOF 5
ENDMDL
MODEL 2
REMARK VINA RESULT:    -6.743      1.191      5.849
REMARK INTER + INTRA:          -9.133
REMARK INTER:                  -8.624
REMARK INTRA:                  -0.509
REMARK UNBOUND:                -0.615
REMARK  Name = 
REMARK  5 active torsions:
REMARK  status: ('A' for Active; 'I' for Inactive)
REMARK    1  A    between atoms: N_1  and  C_2
REMARK    2  A    between atoms: C_2  and  C_3
REMARK    3  A    between atoms: C_6  and  O_7
REMARK    4  A    between atoms: O_7  and  C_8
REMARK    5  A    between atoms: C_8  and  C_9
REMARK                            x       y       z     vdW  Elec       q    Type
REMARK                         _______ _______ _______ _____ _____    ______ ____
ROOT
ATOM      1  C   UNL     1      46.147   5.321  12.600  0.00  0.00    +0.000 A 
ATOM      2  C   UNL     1      45.863   5.919  11.364  0.00  0.00    +0.000 A 
ATOM      3  C   UNL     1      45.180   5.211  10.371  0.00  0.00    +0.000 A 
ATOM      4  C   UNL     1      44.783   3.893  10.596  0.00  0.00    +0.000 A 
ATOM      5  C   UNL     1      45.000   3.315  11.848  0.00  0.00    +0.000 A 
ATOM      6  C   UNL     1      45.689   4.017  12.837  0.00  0.00    +0.000 A 
ENDROOT
BRANCH   1   7
ATOM      7  C   UNL     1      46.954   6.041  13.647  0.00  0.00    +0.000 C 
BRANCH   7   8
ATOM      8  N   UNL     1      47.359   5.152  14.727  0.00  0.00    +0.000 NA
ATOM      9  H   UNL     1      46.976   4.224  14.551  0.00  0.00    +0.000 HD
ATOM     10  H   UNL     1      46.938   5.478  15.595  0.00  0.00    +0.000 HD
ENDBRANCH   7   8
ENDBRANCH   1   7
BRANCH   4  11
ATOM     11  O   UNL     1      44.204   3.251   9.532  0.00  0.00    +0.000 OA
BRANCH  11  12
ATOM     12  C   UNL     1      44.661   3.697   8.253  0.00  0.00    +0.000 C 
BRANCH  12  13
ATOM     13  C   UNL     1      45.801   2.832   7.787  0.00  0.00    +0.000 A 
ATOM     14  C   UNL     1      45.853   1.479   8.135  0.00  0.00    +0.000 A 
ATOM     15  C   UNL     1      46.901   0.710   7.656  0.00  0.00    +0.000 A 
ATOM     16  N   UNL     1      47.884   1.190   6.868  0.00  0.00    +0.000 NA
ATOM     17  C   UNL     1      47.821   2.501   6.552  0.00  0.00    +0.000 A 
ATOM     18  C   UNL     1      46.815   3.353   6.979  0.00  0.00    +0.000 A 
ENDBRANCH  12  13
ENDBRANCH  11  12
ENDBRANCH   4  11
TORSDOF 5
ENDMDL
MODEL 3
REMARK VINA RESULT:    -6.033      1.729      6.062
REMARK INTER + INTRA:          -8.236
REMARK INTER:                  -7.729
REMARK INTRA:                  -0.506
REMARK UNBOUND:                -0.615
REMARK  Name = 
REMARK  5 active torsions:
REMARK  status: ('A' for Active; 'I' for Inactive)
REMARK    1  A    between atoms: N_1  and  C_2
REMARK    2  A    between atoms: C_2  and  C_3
REMARK    3  A    between atoms: C_6  and  O_7
REMARK    4  A    between atoms: O_7  and  C_8
REMARK    5  A    between atoms: C_8  and  C_9
REMARK                            x       y       z     vdW  Elec       q    Type
REMARK                         _______ _______ _______ _____ _____    ______ ____
ROOT
ATOM      1  C   UNL     1      45.489   7.466  12.473  0.00  0.00    +0.000 A 
ATOM      2  C   UNL     1      46.246   6.381  12.939  0.00  0.00    +0.000 A 
ATOM      3  C   UNL     1      45.997   5.087  12.472  0.00  0.00    +0.000 A 
ATOM      4  C   UNL     1      44.982   4.859  11.543  0.00  0.00    +0.000 A 
ATOM      5  C   UNL     1      44.272   5.944  11.022  0.00  0.00    +0.000 A 
ATOM      6  C   UNL     1      44.514   7.233  11.494  0.00  0.00    +0.000 A 
ENDROOT
BRANCH   1   7
ATOM      7  C   UNL     1      45.689   8.850  13.029  0.00  0.00    +0.000 C 
BRANCH   7   8
ATOM      8  N   UNL     1      44.589   9.739  12.680  0.00  0.00    +0.000 NA
ATOM      9  H   UNL     1      44.875  10.701  12.852  0.00  0.00    +0.000 HD
ATOM     10  H   UNL     1      43.808   9.554  13.307  0.00  0.00    +0.000 HD
ENDBRANCH   7   8
ENDBRANCH   1   7
BRANCH   4  11
ATOM     11  O   UNL     1      44.752   3.548  11.215  0.00  0.00    +0.000 OA
BRANCH  11  12
ATOM     12  C   UNL     1      44.128   3.358   9.943  0.00  0.00    +0.000 C 
BRANCH  12  13
ATOM     13  C   UNL     1      45.166   3.018   8.909  0.00  0.00    +0.000 A 
ATOM     14  C   UNL     1      45.604   1.700   8.749  0.00  0.00    +0.000 A 
ATOM     15  C   UNL     1      46.535   1.424   7.762  0.00  0.00    +0.000 A 
ATOM     16  N   UNL     1      47.052   2.358   6.937  0.00  0.00    +0.000 NA
ATOM     17  C   UNL     1      46.624   3.626   7.114  0.00  0.00    +0.000 A 
ATOM     18  C   UNL     1      45.696   4.003   8.072  0.00  0.00    +0.000 A 
ENDBRANCH  12  13
ENDBRANCH  11  12
ENDBRANCH   4  11
TORSDOF 5
ENDMDL
MODEL 4
REMARK VINA RESULT:    -5.924      1.375      5.734
REMARK INTER + INTRA:          -8.098
REMARK INTER:                  -7.632
REMARK INTRA:                  -0.465
REMARK UNBOUND:                -0.615
REMARK  Name = 
REMARK  5 active torsions:
REMARK  status: ('A' for Active; 'I' for Inactive)
REMARK    1  A    between atoms: N_1  and  C_2
REMARK    2  A    between atoms: C_2  and  C_3
REMARK    3  A    between atoms: C_6  and  O_7
REMARK    4  A    between atoms: O_7  and  C_8
REMARK    5  A    between atoms: C_8  and  C_9
REMARK                            x       y       z     vdW  Elec       q    Type
REMARK                         _______ _______ _______ _____ _____    ______ ____
ROOT
ATOM      1  C   UNL     1      46.760   4.890  13.855  0.00  0.00    +0.000 A 
ATOM      2  C   UNL     1      45.761   4.004  13.427  0.00  0.00    +0.000 A 
ATOM      3  C   UNL     1      45.138   4.179  12.188  0.00  0.00    +0.000 A 
ATOM      4  C   UNL     1      45.496   5.248  11.367  0.00  0.00    +0.000 A 
ATOM      5  C   UNL     1      46.538   6.092  11.755  0.00  0.00    +0.000 A 
ATOM      6  C   UNL     1      47.154   5.924  12.994  0.00  0.00    +0.000 A 
ENDROOT
BRANCH   1   7
ATOM      7  C   UNL     1      47.380   4.764  15.221  0.00  0.00    +0.000 C 
BRANCH   7   8
ATOM      8  N   UNL     1      47.610   3.373  15.586  0.00  0.00    +0.000 NA
ATOM      9  H   UNL     1      47.497   3.274  16.593  0.00  0.00    +0.000 HD
ATOM     10  H   UNL     1      48.578   3.136  15.380  0.00  0.00    +0.000 HD
ENDBRANCH   7   8
ENDBRANCH   1   7
BRANCH   4  11
ATOM     11  O   UNL     1      44.766   5.390  10.215  0.00  0.00    +0.000 OA
BRANCH  11  12
ATOM     12  C   UNL     1      44.189   4.176   9.728  0.00  0.00    +0.000 C 
BRANCH  12  13
ATOM     13  C   UNL     1      45.183   3.449   8.863  0.00  0.00    +0.000 A 
ATOM     14  C   UNL     1      45.349   2.066   8.983  0.00  0.00    +0.000 A 
ATOM     15  C   UNL     1      46.249   1.430   8.144  0.00  0.00    +0.000 A 
ATOM     16  N   UNL     1      46.983   2.069   7.209  0.00  0.00    +0.000 NA
ATOM     17  C   UNL     1      46.815   3.405   7.116  0.00  0.00    +0.000 A 
ATOM     18  C   UNL     1      45.940   4.132   7.908  0.00  0.00    +0.000 A 
ENDBRANCH  12  13
ENDBRANCH  11  12
ENDBRANCH   4  11
TORSDOF 5
ENDMDL
MODEL 5
REMARK VINA RESULT:    -4.902      3.629      5.281
REMARK INTER + INTRA:          -6.807
REMARK INTER:                  -6.460
REMARK INTRA:                  -0.347
REMARK UNBOUND:                -0.615
REMARK  Name = 
REMARK  5 active torsions:
REMARK  status: ('A' for Active; 'I' for Inactive)
REMARK    1  A    between atoms: N_1  and  C_2
REMARK    2  A    between atoms: C_2  and  C_3
REMARK    3  A    between atoms: C_6  and  O_7
REMARK    4  A    between atoms: O_7  and  C_8
REMARK    5  A    between atoms: C_8  and  C_9
REMARK                            x       y       z     vdW  Elec       q    Type
REMARK                         _______ _______ _______ _____ _____    ______ ____
ROOT
ATOM      1  C   UNL     1      45.106   4.714  10.942  0.00  0.00    +0.000 A 
ATOM      2  C   UNL     1      45.126   3.748  11.960  0.00  0.00    +0.000 A 
ATOM      3  C   UNL     1      45.913   3.932  13.100  0.00  0.00    +0.000 A 
ATOM      4  C   UNL     1      46.699   5.077  13.234  0.00  0.00    +0.000 A 
ATOM      5  C   UNL     1      46.630   6.074  12.259  0.00  0.00    +0.000 A 
ATOM      6  C   UNL     1      45.852   5.888  11.117  0.00  0.00    +0.000 A 
ENDROOT
BRANCH   1   7
ATOM      7  C   UNL     1      44.330   4.492   9.672  0.00  0.00    +0.000 C 
BRANCH   7   8
ATOM      8  N   UNL     1      45.142   4.744   8.489  0.00  0.00    +0.000 NA
ATOM      9  H   UNL     1      46.103   4.470   8.685  0.00  0.00    +0.000 HD
ATOM     10  H   UNL     1      45.158   5.746   8.311  0.00  0.00    +0.000 HD
ENDBRANCH   7   8
ENDBRANCH   1   7
BRANCH   4  11
ATOM     11  O   UNL     1      47.506   5.124  14.341  0.00  0.00    +0.000 OA
BRANCH  11  12
ATOM     12  C   UNL     1      47.172   4.174  15.356  0.00  0.00    +0.000 C 
BRANCH  12  13
ATOM     13  C   UNL     1      47.927   4.489  16.619  0.00  0.00    +0.000 A 
ATOM     14  C   UNL     1      47.879   3.617  17.710  0.00  0.00    +0.000 A 
ATOM     15  C   UNL     1      48.617   3.926  18.841  0.00  0.00    +0.000 A 
ATOM     16  N   UNL     1      49.387   5.028  18.956  0.00  0.00    +0.000 NA
ATOM     17  C   UNL     1      49.412   5.862  17.894  0.00  0.00    +0.000 A 
ATOM     18  C   UNL     1      48.711   5.641  16.720  0.00  0.00    +0.000 A 
ENDBRANCH  12  13
ENDBRANCH  11  12
ENDBRANCH   4  11
TORSDOF 5
ENDMDL
MODEL 6
REMARK VINA RESULT:    -4.892      3.957      7.584
REMARK INTER + INTRA:          -6.794
REMARK INTER:                  -6.518
REMARK INTRA:                  -0.276
REMARK UNBOUND:                -0.615
REMARK  Name = 
REMARK  5 active torsions:
REMARK  status: ('A' for Active; 'I' for Inactive)
REMARK    1  A    between atoms: N_1  and  C_2
REMARK    2  A    between atoms: C_2  and  C_3
REMARK    3  A    between atoms: C_6  and  O_7
REMARK    4  A    between atoms: O_7  and  C_8
REMARK    5  A    between atoms: C_8  and  C_9
REMARK                            x       y       z     vdW  Elec       q    Type
REMARK                         _______ _______ _______ _____ _____    ______ ____
ROOT
ATOM      1  C   UNL     1      49.623   4.323  17.634  0.00  0.00    +0.000 A 
ATOM      2  C   UNL     1      48.951   3.120  17.372  0.00  0.00    +0.000 A 
ATOM      3  C   UNL     1      47.880   3.084  16.475  0.00  0.00    +0.000 A 
ATOM      4  C   UNL     1      47.460   4.251  15.837  0.00  0.00    +0.000 A 
ATOM      5  C   UNL     1      48.169   5.437  16.038  0.00  0.00    +0.000 A 
ATOM      6  C   UNL     1      49.232   5.476  16.940  0.00  0.00    +0.000 A 
ENDROOT
BRANCH   1   7
ATOM      7  C   UNL     1      50.723   4.393  18.660  0.00  0.00    +0.000 C 
BRANCH   7   8
ATOM      8  N   UNL     1      51.657   3.284  18.531  0.00  0.00    +0.000 NA
ATOM      9  H   UNL     1      51.140   2.446  18.272  0.00  0.00    +0.000 HD
ATOM     10  H   UNL     1      52.071   3.097  19.442  0.00  0.00    +0.000 HD
ENDBRANCH   7   8
ENDBRANCH   1   7
BRANCH   4  11
ATOM     11  O   UNL     1      46.345   4.135  15.047  0.00  0.00    +0.000 OA
BRANCH  11  12
ATOM     12  C   UNL     1      46.426   4.835  13.804  0.00  0.00    +0.000 C 
BRANCH  12  13
ATOM     13  C   UNL     1      45.222   4.519  12.959  0.00  0.00    +0.000 A 
ATOM     14  C   UNL     1      45.199   3.377  12.153  0.00  0.00    +0.000 A 
ATOM     15  C   UNL     1      44.058   3.104  11.418  0.00  0.00    +0.000 A 
ATOM     16  N   UNL     1      42.954   3.881  11.432  0.00  0.00    +0.000 NA
ATOM     17  C   UNL     1      42.999   4.984  12.209  0.00  0.00    +0.000 A 
ATOM     18  C   UNL     1      44.093   5.343  12.980  0.00  0.00    +0.000 A 
ENDBRANCH  12  13
ENDBRANCH  11  12
ENDBRANCH   4  11
TORSDOF 5
ENDMDL
MODEL 7
REMARK VINA RESULT:    -4.684      3.221      4.404
REMARK INTER + INTRA:          -6.531
REMARK INTER:                  -6.120
REMARK INTRA:                  -0.411
REMARK UNBOUND:                -0.615
REMARK  Name = 
REMARK  5 active torsions:
REMARK  status: ('A' for Active; 'I' for Inactive)
REMARK    1  A    between atoms: N_1  and  C_2
REMARK    2  A    between atoms: C_2  and  C_3
REMARK    3  A    between atoms: C_6  and  O_7
REMARK    4  A    between atoms: O_7  and  C_8
REMARK    5  A    between atoms: C_8  and  C_9
REMARK                            x       y       z     vdW  Elec       q    Type
REMARK                         _______ _______ _______ _____ _____    ______ ____
ROOT
ATOM      1  C   UNL     1      44.879   3.540  10.153  0.00  0.00    +0.000 A 
ATOM      2  C   UNL     1      44.918   3.318  11.537  0.00  0.00    +0.000 A 
ATOM      3  C   UNL     1      45.379   4.313  12.404  0.00  0.00    +0.000 A 
ATOM      4  C   UNL     1      45.818   5.537  11.899  0.00  0.00    +0.000 A 
ATOM      5  C   UNL     1      45.715   5.790  10.530  0.00  0.00    +0.000 A 
ATOM      6  C   UNL     1      45.264   4.796   9.663  0.00  0.00    +0.000 A 
ENDROOT
BRANCH   1   7
ATOM      7  C   UNL     1      44.465   2.451   9.200  0.00  0.00    +0.000 C 
BRANCH   7   8
ATOM      8  N   UNL     1      45.543   1.501   8.961  0.00  0.00    +0.000 NA
ATOM      9  H   UNL     1      45.407   1.073   8.046  0.00  0.00    +0.000 HD
ATOM     10  H   UNL     1      45.475   0.749   9.644  0.00  0.00    +0.000 HD
ENDBRANCH   7   8
ENDBRANCH   1   7
BRANCH   4  11
ATOM     11  O   UNL     1      46.337   6.412  12.817  0.00  0.00    +0.000 OA
BRANCH  11  12
ATOM     12  C   UNL     1      47.545   5.968  13.440  0.00  0.00    +0.000 C 
BRANCH  12  13
ATOM     13  C   UNL     1      48.651   6.952  13.172  0.00  0.00    +0.000 A 
ATOM     14  C   UNL     1      49.514   7.347  14.199  0.00  0.00    +0.000 A 
ATOM     15  C   UNL     1      50.541   8.228  13.903  0.00  0.00    +0.000 A 
ATOM     16  N   UNL     1      50.762   8.734  12.672  0.00  0.00    +0.000 NA
ATOM     17  C   UNL     1      49.912   8.348  11.696  0.00  0.00    +0.000 A 
ATOM     18  C   UNL     1      48.856   7.472  11.892  0.00  0.00    +0.000 A 
ENDBRANCH  12  13
ENDBRANCH  11  12
ENDBRANCH   4  11
TORSDOF 5
ENDMDL
MODEL 8
REMARK VINA RESULT:    -4.624      4.574      5.990
REMARK INTER + INTRA:          -6.455
REMARK INTER:                  -6.083
REMARK INTRA:                  -0.372
REMARK UNBOUND:                -0.615
REMARK  Name = 
REMARK  5 active torsions:
REMARK  status: ('A' for Active; 'I' for Inactive)
REMARK    1  A    between atoms: N_1  and  C_2
REMARK    2  A    between atoms: C_2  and  C_3
REMARK    3  A    between atoms: C_6  and  O_7
REMARK    4  A    between atoms: O_7  and  C_8
REMARK    5  A    between atoms: C_8  and  C_9
REMARK                            x       y       z     vdW  Elec       q    Type
REMARK                         _______ _______ _______ _____ _____    ______ ____
ROOT
ATOM      1  C   UNL     1      44.363   5.633  11.720  0.00  0.00    +0.000 A 
ATOM      2  C   UNL     1      45.478   6.467  11.546  0.00  0.00    +0.000 A 
ATOM      3  C   UNL     1      46.657   6.237  12.261  0.00  0.00    +0.000 A 
ATOM      4  C   UNL     1      46.733   5.179  13.167  0.00  0.00    +0.000 A 
ATOM      5  C   UNL     1      45.652   4.303  13.292  0.00  0.00    +0.000 A 
ATOM      6  C   UNL     1      44.473   4.537  12.586  0.00  0.00    +0.000 A 
ENDROOT
BRANCH   1   7
ATOM      7  C   UNL     1      43.061   5.918  11.021  0.00  0.00    +0.000 C 
BRANCH   7   8
ATOM      8  N   UNL     1      42.016   6.306  11.957  0.00  0.00    +0.000 NA
ATOM      9  H   UNL     1      41.291   5.591  11.956  0.00  0.00    +0.000 HD
ATOM     10  H   UNL     1      41.577   7.162  11.622  0.00  0.00    +0.000 HD
ENDBRANCH   7   8
ENDBRANCH   1   7
BRANCH   4  11
ATOM     11  O   UNL     1      47.896   5.089  13.888  0.00  0.00    +0.000 OA
BRANCH  11  12
ATOM     12  C   UNL     1      47.934   5.919  15.052  0.00  0.00    +0.000 C 
BRANCH  12  13
ATOM     13  C   UNL     1      48.121   5.069  16.280  0.00  0.00    +0.000 A 
ATOM     14  C   UNL     1      48.908   5.520  17.342  0.00  0.00    +0.000 A 
ATOM     15  C   UNL     1      49.026   4.722  18.469  0.00  0.00    +0.000 A 
ATOM     16  N   UNL     1      48.421   3.524  18.605  0.00  0.00    +0.000 NA
ATOM     17  C   UNL     1      47.673   3.102  17.563  0.00  0.00    +0.000 A 
ATOM     18  C   UNL     1      47.493   3.826  16.395  0.00  0.00    +0.000 A 
ENDBRANCH  12  13
ENDBRANCH  11  12
ENDBRANCH   4  11
TORSDOF 5
ENDMDL
MODEL 9
REMARK VINA RESULT:    -4.427      3.526      6.189
REMARK INTER + INTRA:          -6.207
REMARK INTER:                  -5.845
REMARK INTRA:                  -0.362
REMARK UNBOUND:                -0.615
REMARK  Name = 
REMARK  5 active torsions:
REMARK  status: ('A' for Active; 'I' for Inactive)
REMARK    1  A    between atoms: N_1  and  C_2
REMARK    2  A    between atoms: C_2  and  C_3
REMARK    3  A    between atoms: C_6  and  O_7
REMARK    4  A    between atoms: O_7  and  C_8
REMARK    5  A    between atoms: C_8  and  C_9
REMARK                            x       y       z     vdW  Elec       q    Type
REMARK                         _______ _______ _______ _____ _____    ______ ____
ROOT
ATOM      1  C   UNL     1      50.011   7.986  12.985  0.00  0.00    +0.000 A 
ATOM      2  C   UNL     1      49.242   8.006  11.812  0.00  0.00    +0.000 A 
ATOM      3  C   UNL     1      47.968   7.431  11.786  0.00  0.00    +0.000 A 
ATOM      4  C   UNL     1      47.451   6.819  12.928  0.00  0.00    +0.000 A 
ATOM      5  C   UNL     1      48.181   6.858  14.118  0.00  0.00    +0.000 A 
ATOM      6  C   UNL     1      49.455   7.423  14.143  0.00  0.00    +0.000 A 
ENDROOT
BRANCH   1   7
ATOM      7  C   UNL     1      51.416   8.525  13.005  0.00  0.00    +0.000 C 
BRANCH   7   8
ATOM      8  N   UNL     1      52.269   7.855  12.034  0.00  0.00    +0.000 NA
ATOM      9  H   UNL     1      53.206   8.249  12.090  0.00  0.00    +0.000 HD
ATOM     10  H   UNL     1      51.925   8.062  11.098  0.00  0.00    +0.000 HD
ENDBRANCH   7   8
ENDBRANCH   1   7
BRANCH   4  11
ATOM     11  O   UNL     1      46.235   6.204  12.780  0.00  0.00    +0.000 OA
BRANCH  11  12
ATOM     12  C   UNL     1      45.753   6.165  11.435  0.00  0.00    +0.000 C 
BRANCH  12  13
ATOM     13  C   UNL     1      44.949   4.912  11.215  0.00  0.00    +0.000 A 
ATOM     14  C   UNL     1      44.953   4.275   9.971  0.00  0.00    +0.000 A 
ATOM     15  C   UNL     1      44.227   3.105   9.821  0.00  0.00    +0.000 A 
ATOM     16  N   UNL     1      43.509   2.536  10.812  0.00  0.00    +0.000 NA
ATOM     17  C   UNL     1      43.510   3.172  12.003  0.00  0.00    +0.000 A 
ATOM     18  C   UNL     1      44.204   4.346  12.252  0.00  0.00    +0.000 A 
ENDBRANCH  12  13
ENDBRANCH  11  12
ENDBRANCH   4  11
TORSDOF 5
ENDMDL
