MODEL 1
REMARK VINA RESULT:    -9.204      0.000      0.000
REMARK INTER + INTRA:         -11.949
REMARK INTER:                 -11.356
REMARK INTRA:                  -0.593
REMARK UNBOUND:                -0.593
REMARK  Name = 
REMARK  4 active torsions:
REMARK  status: ('A' for Active; 'I' for Inactive)
REMARK    1  A    between atoms: C_2  and  C_4
REMARK    2  A    between atoms: N_8  and  C_9
REMARK    3  A    between atoms: C_9  and  C_10
REMARK    4  A    between atoms: C_14  and  C_15
REMARK                            x       y       z     vdW  Elec       q    Type
REMARK                         _______ _______ _______ _____ _____    ______ ____
ROOT
ATOM      1  C   UNL     1      46.399   2.288   7.692  0.00  0.00    +0.000 A 
ATOM      2  C   UNL     1      45.605   1.798   8.720  0.00  0.00    +0.000 A 
ATOM      3  C   UNL     1      44.734   2.662   9.376  0.00  0.00    +0.000 A 
ATOM      4  C   UNL     1      44.685   4.008   9.018  0.00  0.00    +0.000 A 
ATOM      5  N   UNL     1      43.785   4.893   9.571  0.00  0.00    +0.000 N 
ATOM      6  N   UNL     1      45.462   4.497   8.034  0.00  0.00    +0.000 NA
ATOM      7  C   UNL     1      46.304   3.639   7.394  0.00  0.00    +0.000 A 
ATOM      8  H   UNL     1      44.000   5.828   9.231  0.00  0.00    +0.000 HD
ENDROOT
BRANCH   1  10
ATOM      9  N   UNL     1      48.470   2.006   6.464  0.00  0.00    +0.000 N 
ATOM     10  C   UNL     1      47.327   1.425   6.935  0.00  0.00    +0.000 C 
ATOM     11  O   UNL     1      47.099   0.234   6.767  0.00  0.00    +0.000 OA
ATOM     12  H   UNL     1      49.142   1.395   6.019  0.00  0.00    +0.000 HD
ATOM     13  H   UNL     1      48.803   2.909   6.782  0.00  0.00    +0.000 HD
ENDBRANCH   1  10
BRANCH   5  14
ATOM     14  C   UNL     1      43.434   4.818  10.979  0.00  0.00    +0.000 C 
BRANCH  14  15
ATOM     15  C   UNL     1      44.639   5.076  11.845  0.00  0.00    +0.000 A 
ATOM     16  C   UNL     1      44.837   4.341  13.006  0.00  0.00    +0.000 A 
ATOM     17  N   UNL     1      45.834   4.575  13.883  0.00  0.00    +0.000 NA
ATOM     18  C   UNL     1      46.677   5.596  13.592  0.00  0.00    +0.000 A 
ATOM     19  C   UNL     1      46.587   6.423  12.469  0.00  0.00    +0.000 A 
ATOM     20  C   UNL     1      45.525   6.136  11.600  0.00  0.00    +0.000 A 
BRANCH  19  21
ATOM     21  C   UNL     1      47.526   7.531  12.215  0.00  0.00    +0.000 A 
ATOM     22  C   UNL     1      48.877   7.311  11.905  0.00  0.00    +0.000 A 
ATOM     23  C   UNL     1      49.738   8.381  11.663  0.00  0.00    +0.000 A 
ATOM     24  C   UNL     1      49.229   9.663  11.742  0.00  0.00    +0.000 A 
ATOM     25  N   UNL     1      47.942   9.935  12.036  0.00  0.00    +0.000 NA
ATOM     26  C   UNL     1      47.131   8.871  12.259  0.00  0.00    +0.000 A 
ENDBRANCH  19  21
ENDBRANCH  14  15
ENDBRANCH   5  14
TORSDOF 4
ENDMDL
MODEL 2
REMARK VINA RESULT:    -8.818      1.696      3.344
REMARK INTER + INTRA:         -11.473
REMARK INTER:                 -10.775
REMARK INTRA:                  -0.698
REMARK UNBOUND:                -0.593
REMARK  Name = 
REMARK  4 active torsions:
REMARK  status: ('A' for Active; 'I' for Inactive)
REMARK    1  A    between atoms: C_2  and  C_4
REMARK    2  A    between atoms: N_8  and  C_9
REMARK    3  A    between atoms: C_9  and  C_10
REMARK    4  A    between atoms: C_14  and  C_15
REMARK                            x       y       z     vdW  Elec       q    Type
REMARK                         _______ _______ _______ _____ _____    ______ ____
ROOT
ATOM      1  C   UNL     1      46.387   2.278   7.697  0.00  0.00    +0.000 A 
ATOM      2  C   UNL     1      45.632   1.806   8.763  0.00  0.00    +0.000 A 
ATOM      3  C   UNL     1      44.797   2.684   9.445  0.00  0.00    +0.000 A 
ATOM      4  C   UNL     1      44.746   4.026   9.076  0.00  0.00    +0.000 A 
ATOM      5  N   UNL     1      43.877   4.926   9.656  0.00  0.00    +0.000 N 
ATOM      6  N   UNL     1      45.485   4.499   8.055  0.00  0.00    +0.000 NA
ATOM      7  C   UNL     1      46.292   3.626   7.390  0.00  0.00    +0.000 A 
ATOM      8  H   UNL     1      44.086   5.855   9.298  0.00  0.00    +0.000 HD
ENDROOT
BRANCH   1  10
ATOM      9  N   UNL     1      48.316   1.993   6.256  0.00  0.00    +0.000 N 
ATOM     10  C   UNL     1      47.274   1.399   6.912  0.00  0.00    +0.000 C 
ATOM     11  O   UNL     1      47.106   0.187   6.876  0.00  0.00    +0.000 OA
ATOM     12  H   UNL     1      48.970   1.380   5.788  0.00  0.00    +0.000 HD
ATOM     13  H   UNL     1      48.624   2.938   6.452  0.00  0.00    +0.000 HD
ENDBRANCH   1  10
BRANCH   5  14
ATOM     14  C   UNL     1      43.584   4.868  11.078  0.00  0.00    +0.000 C 
BRANCH  14  15
ATOM     15  C   UNL     1      44.651   5.574  11.873  0.00  0.00    +0.000 A 
ATOM     16  C   UNL     1      45.070   6.846  11.507  0.00  0.00    +0.000 A 
ATOM     17  N   UNL     1      46.084   7.504  12.104  0.00  0.00    +0.000 NA
ATOM     18  C   UNL     1      46.716   6.864  13.118  0.00  0.00    +0.000 A 
ATOM     19  C   UNL     1      46.408   5.581  13.579  0.00  0.00    +0.000 A 
ATOM     20  C   UNL     1      45.351   4.944  12.912  0.00  0.00    +0.000 A 
BRANCH  19  21
ATOM     21  C   UNL     1      47.145   4.928  14.677  0.00  0.00    +0.000 A 
ATOM     22  C   UNL     1      47.850   5.661  15.644  0.00  0.00    +0.000 A 
ATOM     23  C   UNL     1      48.532   5.013  16.675  0.00  0.00    +0.000 A 
ATOM     24  C   UNL     1      48.498   3.632  16.716  0.00  0.00    +0.000 A 
ATOM     25  N   UNL     1      47.837   2.877  15.816  0.00  0.00    +0.000 NA
ATOM     26  C   UNL     1      47.181   3.539  14.831  0.00  0.00    +0.000 A 
ENDBRANCH  19  21
ENDBRANCH  14  15
ENDBRANCH   5  14
TORSDOF 4
ENDMDL
MODEL 3
REMARK VINA RESULT:    -8.252      2.873      6.683
REMARK INTER + INTRA:         -10.775
REMARK INTER:                  -9.973
REMARK INTRA:                  -0.801
REMARK UNBOUND:                -0.593
REMARK  Name = 
REMARK  4 active torsions:
REMARK  status: ('A' for Active; 'I' for Inactive)
REMARK    1  A    between atoms: C_2  and  C_4
REMARK    2  A    between atoms: N_8  and  C_9
REMARK    3  A    between atoms: C_9  and  C_10
REMARK    4  A    between atoms: C_14  and  C_15
REMARK                            x       y       z     vdW  Elec       q    Type
REMARK                         _______ _______ _______ _____ _____    ______ ____
ROOT
ATOM      1  C   UNL     1      48.322   7.072  12.939  0.00  0.00    +0.000 A 
ATOM      2  C   UNL     1      47.668   7.586  11.828  0.00  0.00    +0.000 A 
ATOM      3  C   UNL     1      46.313   7.323  11.655  0.00  0.00    +0.000 A 
ATOM      4  C   UNL     1      45.634   6.528  12.575  0.00  0.00    +0.000 A 
ATOM      5  N   UNL     1      44.275   6.302  12.505  0.00  0.00    +0.000 N 
ATOM      6  N   UNL     1      46.261   6.010  13.648  0.00  0.00    +0.000 NA
ATOM      7  C   UNL     1      47.586   6.282  13.809  0.00  0.00    +0.000 A 
ATOM      8  H   UNL     1      44.024   5.620  13.217  0.00  0.00    +0.000 HD
ENDROOT
BRANCH   1  10
ATOM      9  N   UNL     1      50.555   7.529  12.114  0.00  0.00    +0.000 N 
ATOM     10  C   UNL     1      49.751   7.330  13.201  0.00  0.00    +0.000 C 
ATOM     11  O   UNL     1      50.190   7.397  14.341  0.00  0.00    +0.000 OA
ATOM     12  H   UNL     1      51.515   7.788  12.299  0.00  0.00    +0.000 HD
ATOM     13  H   UNL     1      50.193   7.717  11.186  0.00  0.00    +0.000 HD
ENDBRANCH   1  10
BRANCH   5  14
ATOM     14  C   UNL     1      43.615   6.122  11.223  0.00  0.00    +0.000 C 
BRANCH  14  15
ATOM     15  C   UNL     1      43.778   4.707  10.732  0.00  0.00    +0.000 A 
ATOM     16  C   UNL     1      43.171   3.657  11.407  0.00  0.00    +0.000 A 
ATOM     17  N   UNL     1      43.347   2.358  11.091  0.00  0.00    +0.000 NA
ATOM     18  C   UNL     1      44.171   2.089  10.048  0.00  0.00    +0.000 A 
ATOM     19  C   UNL     1      44.855   3.045   9.292  0.00  0.00    +0.000 A 
ATOM     20  C   UNL     1      44.639   4.376   9.676  0.00  0.00    +0.000 A 
BRANCH  19  21
ATOM     21  C   UNL     1      45.753   2.688   8.178  0.00  0.00    +0.000 A 
ATOM     22  C   UNL     1      46.053   3.585   7.142  0.00  0.00    +0.000 A 
ATOM     23  C   UNL     1      46.913   3.219   6.106  0.00  0.00    +0.000 A 
ATOM     24  C   UNL     1      47.457   1.948   6.124  0.00  0.00    +0.000 A 
ATOM     25  N   UNL     1      47.205   1.045   7.093  0.00  0.00    +0.000 NA
ATOM     26  C   UNL     1      46.370   1.436   8.087  0.00  0.00    +0.000 A 
ENDBRANCH  19  21
ENDBRANCH  14  15
ENDBRANCH   5  14
TORSDOF 4
ENDMDL
MODEL 4
REMARK VINA RESULT:    -8.072      3.150      7.194
REMARK INTER + INTRA:         -10.552
REMARK INTER:                 -10.058
REMARK INTRA:                  -0.495
REMARK UNBOUND:                -0.593
REMARK  Name = 
REMARK  4 active torsions:
REMARK  status: ('A' for Active; 'I' for Inactive)
REMARK    1  A    between atoms: C_2  and  C_4
REMARK    2  A    between atoms: N_8  and  C_9
REMARK    3  A    between atoms: C_9  and  C_10
REMARK    4  A    between atoms: C_14  and  C_15
REMARK                            x       y       z     vdW  Elec       q    Type
REMARK                         _______ _______ _______ _____ _____    ______ ____
ROOT
ATOM      1  C   UNL     1      47.815   5.390  15.368  0.00  0.00    +0.000 A 
ATOM      2  C   UNL     1      46.785   4.618  14.847  0.00  0.00    +0.000 A 
ATOM      3  C   UNL     1      46.231   4.964  13.619  0.00  0.00    +0.000 A 
ATOM      4  C   UNL     1      46.689   6.090  12.940  0.00  0.00    +0.000 A 
ATOM      5  N   UNL     1      46.241   6.436  11.682  0.00  0.00    +0.000 N 
ATOM      6  N   UNL     1      47.676   6.856  13.443  0.00  0.00    +0.000 NA
ATOM      7  C   UNL     1      48.215   6.501  14.642  0.00  0.00    +0.000 A 
ATOM      8  H   UNL     1      46.640   7.338  11.433  0.00  0.00    +0.000 HD
ENDROOT
BRANCH   1  10
ATOM      9  N   UNL     1      47.932   5.629  17.778  0.00  0.00    +0.000 N 
ATOM     10  C   UNL     1      48.467   5.068  16.652  0.00  0.00    +0.000 C 
ATOM     11  O   UNL     1      49.423   4.307  16.711  0.00  0.00    +0.000 OA
ATOM     12  H   UNL     1      48.328   5.341  18.663  0.00  0.00    +0.000 HD
ATOM     13  H   UNL     1      47.015   6.060  17.798  0.00  0.00    +0.000 HD
ENDBRANCH   1  10
BRANCH   5  14
ATOM     14  C   UNL     1      44.846   6.260  11.315  0.00  0.00    +0.000 C 
BRANCH  14  15
ATOM     15  C   UNL     1      44.630   4.918  10.665  0.00  0.00    +0.000 A 
ATOM     16  C   UNL     1      43.738   4.009  11.216  0.00  0.00    +0.000 A 
ATOM     17  N   UNL     1      43.560   2.755  10.753  0.00  0.00    +0.000 NA
ATOM     18  C   UNL     1      44.311   2.385   9.687  0.00  0.00    +0.000 A 
ATOM     19  C   UNL     1      45.254   3.191   9.044  0.00  0.00    +0.000 A 
ATOM     20  C   UNL     1      45.400   4.480   9.577  0.00  0.00    +0.000 A 
BRANCH  19  21
ATOM     21  C   UNL     1      46.055   2.725   7.897  0.00  0.00    +0.000 A 
ATOM     22  C   UNL     1      46.331   3.546   6.793  0.00  0.00    +0.000 A 
ATOM     23  C   UNL     1      47.098   3.077   5.727  0.00  0.00    +0.000 A 
ATOM     24  C   UNL     1      47.574   1.780   5.783  0.00  0.00    +0.000 A 
ATOM     25  N   UNL     1      47.340   0.946   6.816  0.00  0.00    +0.000 NA
ATOM     26  C   UNL     1      46.597   1.437   7.838  0.00  0.00    +0.000 A 
ENDBRANCH  19  21
ENDBRANCH  14  15
ENDBRANCH   5  14
TORSDOF 4
ENDMDL
MODEL 5
REMARK VINA RESULT:    -7.933      1.794      2.353
REMARK INTER + INTRA:         -10.382
REMARK INTER:                 -10.213
REMARK INTRA:                  -0.169
REMARK UNBOUND:                -0.593
REMARK  Name = 
REMARK  4 active torsions:
REMARK  status: ('A' for Active; 'I' for Inactive)
REMARK    1  A    between atoms: C_2  and  C_4
REMARK    2  A    between atoms: N_8  and  C_9
REMARK    3  A    between atoms: C_9  and  C_10
REMARK    4  A    between atoms: C_14  and  C_15
REMARK                            x       y       z     vdW  Elec       q    Type
REMARK                         _______ _______ _______ _____ _____    ______ ____
ROOT
ATOM      1  C   UNL     1      46.670   2.522   7.147  0.00  0.00    +0.000 A 
ATOM      2  C   UNL     1      46.147   3.739   7.561  0.00  0.00    +0.000 A 
ATOM      3  C   UNL     1      45.421   3.798   8.747  0.00  0.00    +0.000 A 
ATOM      4  C   UNL     1      45.201   2.639   9.488  0.00  0.00    +0.000 A 
ATOM      5  N   UNL     1      44.565   2.647  10.712  0.00  0.00    +0.000 N 
ATOM      6  N   UNL     1      45.689   1.450   9.088  0.00  0.00    +0.000 NA
ATOM      7  C   UNL     1      46.405   1.408   7.929  0.00  0.00    +0.000 A 
ATOM      8  H   UNL     1      44.434   1.685  11.014  0.00  0.00    +0.000 HD
ENDROOT
BRANCH   1  10
ATOM      9  N   UNL     1      47.237   3.297   4.921  0.00  0.00    +0.000 N 
ATOM     10  C   UNL     1      47.470   2.388   5.914  0.00  0.00    +0.000 C 
ATOM     11  O   UNL     1      48.329   1.523   5.799  0.00  0.00    +0.000 OA
ATOM     12  H   UNL     1      47.844   3.255   4.112  0.00  0.00    +0.000 HD
ATOM     13  H   UNL     1      46.719   4.156   5.068  0.00  0.00    +0.000 HD
ENDBRANCH   1  10
BRANCH   5  14
ATOM     14  C   UNL     1      43.435   3.526  10.958  0.00  0.00    +0.000 C 
BRANCH  14  15
ATOM     15  C   UNL     1      43.904   4.912  11.318  0.00  0.00    +0.000 A 
ATOM     16  C   UNL     1      43.084   6.009  11.092  0.00  0.00    +0.000 A 
ATOM     17  N   UNL     1      43.465   7.286  11.296  0.00  0.00    +0.000 NA
ATOM     18  C   UNL     1      44.729   7.483  11.746  0.00  0.00    +0.000 A 
ATOM     19  C   UNL     1      45.661   6.474  12.001  0.00  0.00    +0.000 A 
ATOM     20  C   UNL     1      45.210   5.169  11.762  0.00  0.00    +0.000 A 
BRANCH  19  21
ATOM     21  C   UNL     1      47.030   6.753  12.474  0.00  0.00    +0.000 A 
ATOM     22  C   UNL     1      47.926   7.550  11.745  0.00  0.00    +0.000 A 
ATOM     23  C   UNL     1      49.213   7.800  12.224  0.00  0.00    +0.000 A 
ATOM     24  C   UNL     1      49.583   7.239  13.431  0.00  0.00    +0.000 A 
ATOM     25  N   UNL     1      48.766   6.466  14.174  0.00  0.00    +0.000 NA
ATOM     26  C   UNL     1      47.521   6.249  13.682  0.00  0.00    +0.000 A 
ENDBRANCH  19  21
ENDBRANCH  14  15
ENDBRANCH   5  14
TORSDOF 4
ENDMDL
MODEL 6
REMARK VINA RESULT:    -7.323      3.019      6.884
REMARK INTER + INTRA:          -9.628
REMARK INTER:                  -8.965
REMARK INTRA:                  -0.663
REMARK UNBOUND:                -0.593
REMARK  Name = 
REMARK  4 active torsions:
REMARK  status: ('A' for Active; 'I' for Inactive)
REMARK    1  A    between atoms: C_2  and  C_4
REMARK    2  A    between atoms: N_8  and  C_9
REMARK    3  A    between atoms: C_9  and  C_10
REMARK    4  A    between atoms: C_14  and  C_15
REMARK                            x       y       z     vdW  Elec       q    Type
REMARK                         _______ _______ _______ _____ _____    ______ ____
ROOT
ATOM      1  C   UNL     1      49.648   8.038  12.532  0.00  0.00    +0.000 A 
ATOM      2  C   UNL     1      48.728   8.750  11.773  0.00  0.00    +0.000 A 
ATOM      3  C   UNL     1      47.382   8.402  11.836  0.00  0.00    +0.000 A 
ATOM      4  C   UNL     1      46.974   7.333  12.631  0.00  0.00    +0.000 A 
ATOM      5  N   UNL     1      45.649   6.995  12.801  0.00  0.00    +0.000 N 
ATOM      6  N   UNL     1      47.859   6.625  13.358  0.00  0.00    +0.000 NA
ATOM      7  C   UNL     1      49.173   6.982  13.294  0.00  0.00    +0.000 A 
ATOM      8  H   UNL     1      45.601   6.132  13.338  0.00  0.00    +0.000 HD
ENDROOT
BRANCH   1  10
ATOM      9  N   UNL     1      51.860   7.773  11.577  0.00  0.00    +0.000 N 
ATOM     10  C   UNL     1      51.086   8.366  12.535  0.00  0.00    +0.000 C 
ATOM     11  O   UNL     1      51.560   9.160  13.337  0.00  0.00    +0.000 OA
ATOM     12  H   UNL     1      52.828   8.063  11.529  0.00  0.00    +0.000 HD
ATOM     13  H   UNL     1      51.473   7.310  10.763  0.00  0.00    +0.000 HD
ENDBRANCH   1  10
BRANCH   5  14
ATOM     14  C   UNL     1      44.710   7.082  11.696  0.00  0.00    +0.000 C 
BRANCH  14  15
ATOM     15  C   UNL     1      44.368   5.710  11.176  0.00  0.00    +0.000 A 
ATOM     16  C   UNL     1      43.369   4.960  11.782  0.00  0.00    +0.000 A 
ATOM     17  N   UNL     1      43.070   3.691  11.440  0.00  0.00    +0.000 NA
ATOM     18  C   UNL     1      43.804   3.136  10.445  0.00  0.00    +0.000 A 
ATOM     19  C   UNL     1      44.845   3.769   9.760  0.00  0.00    +0.000 A 
ATOM     20  C   UNL     1      45.115   5.084  10.167  0.00  0.00    +0.000 A 
BRANCH  19  21
ATOM     21  C   UNL     1      45.621   3.106   8.696  0.00  0.00    +0.000 A 
ATOM     22  C   UNL     1      46.201   3.820   7.636  0.00  0.00    +0.000 A 
ATOM     23  C   UNL     1      46.934   3.163   6.648  0.00  0.00    +0.000 A 
ATOM     24  C   UNL     1      47.072   1.791   6.737  0.00  0.00    +0.000 A 
ATOM     25  N   UNL     1      46.538   1.053   7.731  0.00  0.00    +0.000 NA
ATOM     26  C   UNL     1      45.836   1.725   8.677  0.00  0.00    +0.000 A 
ENDBRANCH  19  21
ENDBRANCH  14  15
ENDBRANCH   5  14
TORSDOF 4
ENDMDL
MODEL 7
REMARK VINA RESULT:    -7.172      2.852      7.022
REMARK INTER + INTRA:          -9.443
REMARK INTER:                  -8.806
REMARK INTRA:                  -0.637
REMARK UNBOUND:                -0.593
REMARK  Name = 
REMARK  4 active torsions:
REMARK  status: ('A' for Active; 'I' for Inactive)
REMARK    1  A    between atoms: C_2  and  C_4
REMARK    2  A    between atoms: N_8  and  C_9
REMARK    3  A    between atoms: C_9  and  C_10
REMARK    4  A    between atoms: C_14  and  C_15
REMARK                            x       y       z     vdW  Elec       q    Type
REMARK                         _______ _______ _______ _____ _____    ______ ____
ROOT
ATOM      1  C   UNL     1      47.930   9.420  12.099  0.00  0.00    +0.000 A 
ATOM      2  C   UNL     1      46.594   9.561  12.449  0.00  0.00    +0.000 A 
ATOM      3  C   UNL     1      45.855   8.430  12.781  0.00  0.00    +0.000 A 
ATOM      4  C   UNL     1      46.448   7.171  12.732  0.00  0.00    +0.000 A 
ATOM      5  N   UNL     1      45.795   6.023  13.131  0.00  0.00    +0.000 N 
ATOM      6  N   UNL     1      47.738   7.019  12.378  0.00  0.00    +0.000 NA
ATOM      7  C   UNL     1      48.452   8.136  12.063  0.00  0.00    +0.000 A 
ATOM      8  H   UNL     1      46.386   5.224  12.915  0.00  0.00    +0.000 HD
ENDROOT
BRANCH   1  10
ATOM      9  N   UNL     1      49.279  11.308  12.800  0.00  0.00    +0.000 N 
ATOM     10  C   UNL     1      48.780  10.576  11.759  0.00  0.00    +0.000 C 
ATOM     11  O   UNL     1      49.055  10.850  10.598  0.00  0.00    +0.000 OA
ATOM     12  H   UNL     1      49.928  12.048  12.568  0.00  0.00    +0.000 HD
ATOM     13  H   UNL     1      49.274  10.979  13.759  0.00  0.00    +0.000 HD
ENDBRANCH   1  10
BRANCH   5  14
ATOM     14  C   UNL     1      44.382   5.835  12.852  0.00  0.00    +0.000 C 
BRANCH  14  15
ATOM     15  C   UNL     1      44.165   4.624  11.984  0.00  0.00    +0.000 A 
ATOM     16  C   UNL     1      43.288   3.624  12.383  0.00  0.00    +0.000 A 
ATOM     17  N   UNL     1      43.112   2.467  11.714  0.00  0.00    +0.000 NA
ATOM     18  C   UNL     1      43.849   2.293  10.589  0.00  0.00    +0.000 A 
ATOM     19  C   UNL     1      44.775   3.208  10.081  0.00  0.00    +0.000 A 
ATOM     20  C   UNL     1      44.921   4.387  10.826  0.00  0.00    +0.000 A 
BRANCH  19  21
ATOM     21  C   UNL     1      45.561   2.953   8.859  0.00  0.00    +0.000 A 
ATOM     22  C   UNL     1      45.924   3.981   7.976  0.00  0.00    +0.000 A 
ATOM     23  C   UNL     1      46.674   3.708   6.831  0.00  0.00    +0.000 A 
ATOM     24  C   UNL     1      47.045   2.399   6.588  0.00  0.00    +0.000 A 
ATOM     25  N   UNL     1      46.725   1.372   7.400  0.00  0.00    +0.000 NA
ATOM     26  C   UNL     1      46.001   1.674   8.506  0.00  0.00    +0.000 A 
ENDBRANCH  19  21
ENDBRANCH  14  15
ENDBRANCH   5  14
TORSDOF 4
ENDMDL
MODEL 8
REMARK VINA RESULT:    -6.901      3.865      7.757
REMARK INTER + INTRA:          -9.108
REMARK INTER:                  -8.676
REMARK INTRA:                  -0.432
REMARK UNBOUND:                -0.593
REMARK  Name = 
REMARK  4 active torsions:
REMARK  status: ('A' for Active; 'I' for Inactive)
REMARK    1  A    between atoms: C_2  and  C_4
REMARK    2  A    between atoms: N_8  and  C_9
REMARK    3  A    between atoms: C_9  and  C_10
REMARK    4  A    between atoms: C_14  and  C_15
REMARK                            x       y       z     vdW  Elec       q    Type
REMARK                         _______ _______ _______ _____ _____    ______ ____
ROOT
ATOM      1  C   UNL     1      49.395   4.303  17.144  0.00  0.00    +0.000 A 
ATOM      2  C   UNL     1      49.034   5.500  16.539  0.00  0.00    +0.000 A 
ATOM      3  C   UNL     1      47.904   5.537  15.728  0.00  0.00    +0.000 A 
ATOM      4  C   UNL     1      47.166   4.377  15.507  0.00  0.00    +0.000 A 
ATOM      5  N   UNL     1      45.991   4.367  14.785  0.00  0.00    +0.000 N 
ATOM      6  N   UNL     1      47.516   3.207  16.075  0.00  0.00    +0.000 NA
ATOM      7  C   UNL     1      48.619   3.187  16.874  0.00  0.00    +0.000 A 
ATOM      8  H   UNL     1      45.687   3.403  14.676  0.00  0.00    +0.000 HD
ENDROOT
BRANCH   1  10
ATOM      9  N   UNL     1      50.322   4.180  19.381  0.00  0.00    +0.000 N 
ATOM     10  C   UNL     1      50.565   4.195  18.036  0.00  0.00    +0.000 C 
ATOM     11  O   UNL     1      51.701   4.090  17.592  0.00  0.00    +0.000 OA
ATOM     12  H   UNL     1      51.117   4.022  19.987  0.00  0.00    +0.000 HD
ATOM     13  H   UNL     1      49.401   4.025  19.774  0.00  0.00    +0.000 HD
ENDBRANCH   1  10
BRANCH   5  14
ATOM     14  C   UNL     1      45.838   5.197  13.602  0.00  0.00    +0.000 C 
BRANCH  14  15
ATOM     15  C   UNL     1      45.100   4.454  12.520  0.00  0.00    +0.000 A 
ATOM     16  C   UNL     1      43.861   3.885  12.780  0.00  0.00    +0.000 A 
ATOM     17  N   UNL     1      43.183   3.123  11.898  0.00  0.00    +0.000 NA
ATOM     18  C   UNL     1      43.769   2.914  10.693  0.00  0.00    +0.000 A 
ATOM     19  C   UNL     1      45.015   3.413  10.305  0.00  0.00    +0.000 A 
ATOM     20  C   UNL     1      45.675   4.189  11.268  0.00  0.00    +0.000 A 
BRANCH  19  21
ATOM     21  C   UNL     1      45.609   3.135   8.983  0.00  0.00    +0.000 A 
ATOM     22  C   UNL     1      45.964   1.839   8.580  0.00  0.00    +0.000 A 
ATOM     23  C   UNL     1      46.518   1.609   7.320  0.00  0.00    +0.000 A 
ATOM     24  C   UNL     1      46.713   2.692   6.482  0.00  0.00    +0.000 A 
ATOM     25  N   UNL     1      46.392   3.958   6.816  0.00  0.00    +0.000 NA
ATOM     26  C   UNL     1      45.850   4.143   8.045  0.00  0.00    +0.000 A 
ENDBRANCH  19  21
ENDBRANCH  14  15
ENDBRANCH   5  14
TORSDOF 4
ENDMDL
MODEL 9
REMARK VINA RESULT:    -6.594      4.844      8.132
REMARK INTER + INTRA:          -8.729
REMARK INTER:                  -8.121
REMARK INTRA:                  -0.607
REMARK UNBOUND:                -0.593
REMARK  Name = 
REMARK  4 active torsions:
REMARK  status: ('A' for Active; 'I' for Inactive)
REMARK    1  A    between atoms: C_2  and  C_4
REMARK    2  A    between atoms: N_8  and  C_9
REMARK    3  A    between atoms: C_9  and  C_10
REMARK    4  A    between atoms: C_14  and  C_15
REMARK                            x       y       z     vdW  Elec       q    Type
REMARK                         _______ _______ _______ _____ _____    ______ ____
ROOT
ATOM      1  C   UNL     1      51.239   2.530  17.453  0.00  0.00    +0.000 A 
ATOM      2  C   UNL     1      51.609   3.867  17.494  0.00  0.00    +0.000 A 
ATOM      3  C   UNL     1      50.661   4.843  17.201  0.00  0.00    +0.000 A 
ATOM      4  C   UNL     1      49.366   4.472  16.844  0.00  0.00    +0.000 A 
ATOM      5  N   UNL     1      48.362   5.391  16.626  0.00  0.00    +0.000 N 
ATOM      6  N   UNL     1      49.001   3.178  16.785  0.00  0.00    +0.000 NA
ATOM      7  C   UNL     1      49.937   2.233  17.082  0.00  0.00    +0.000 A 
ATOM      8  H   UNL     1      47.540   4.898  16.286  0.00  0.00    +0.000 HD
ENDROOT
BRANCH   1  10
ATOM      9  N   UNL     1      51.646   0.236  18.124  0.00  0.00    +0.000 N 
ATOM     10  C   UNL     1      52.184   1.443  17.776  0.00  0.00    +0.000 C 
ATOM     11  O   UNL     1      53.395   1.605  17.702  0.00  0.00    +0.000 OA
ATOM     12  H   UNL     1      52.294  -0.529  18.264  0.00  0.00    +0.000 HD
ATOM     13  H   UNL     1      50.674  -0.002  17.966  0.00  0.00    +0.000 HD
ENDBRANCH   1  10
BRANCH   5  14
ATOM     14  C   UNL     1      48.638   6.653  15.962  0.00  0.00    +0.000 C 
BRANCH  14  15
ATOM     15  C   UNL     1      48.258   6.586  14.506  0.00  0.00    +0.000 A 
ATOM     16  C   UNL     1      48.894   7.399  13.578  0.00  0.00    +0.000 A 
ATOM     17  N   UNL     1      48.547   7.469  12.277  0.00  0.00    +0.000 NA
ATOM     18  C   UNL     1      47.511   6.692  11.878  0.00  0.00    +0.000 A 
ATOM     19  C   UNL     1      46.775   5.840  12.706  0.00  0.00    +0.000 A 
ATOM     20  C   UNL     1      47.177   5.818  14.049  0.00  0.00    +0.000 A 
BRANCH  19  21
ATOM     21  C   UNL     1      45.644   5.030  12.215  0.00  0.00    +0.000 A 
ATOM     22  C   UNL     1      44.886   5.404  11.096  0.00  0.00    +0.000 A 
ATOM     23  C   UNL     1      43.826   4.612  10.653  0.00  0.00    +0.000 A 
ATOM     24  C   UNL     1      43.539   3.453  11.349  0.00  0.00    +0.000 A 
ATOM     25  N   UNL     1      44.232   3.044  12.430  0.00  0.00    +0.000 NA
ATOM     26  C   UNL     1      45.259   3.834  12.829  0.00  0.00    +0.000 A 
ENDBRANCH  19  21
ENDBRANCH  14  15
ENDBRANCH   5  14
TORSDOF 4
ENDMDL
