MODEL 1
REMARK VINA RESULT:    -7.524      0.000      0.000
REMARK INTER + INTRA:         -10.850
REMARK INTER:                  -9.944
REMARK INTRA:                  -0.906
REMARK UNBOUND:                -0.906
REMARK  Name = 
REMARK  6 active torsions:
REMARK  status: ('A' for Active; 'I' for Inactive)
REMARK    1  A    between atoms: N_1  and  C_2
REMARK    2  A    between atoms: C_2  and  C_3
REMARK    3  A    between atoms: C_3  and  C_4
REMARK    4  A    between atoms: C_7  and  C_8
REMARK    5  A    between atoms: C_8  and  N_9
REMARK    6  A    between atoms: C_14  and  C_15
REMARK                            x       y       z     vdW  Elec       q    Type
REMARK                         _______ _______ _______ _____ _____    ______ ____
ROOT
ATOM      1  N   UNL     1      43.961   4.320  11.064  0.00  0.00    +0.000 N 
ATOM      2  C   UNL     1      43.671   3.213  11.830  0.00  0.00    +0.000 A 
ATOM      3  C   UNL     1      43.669   2.120  10.998  0.00  0.00    +0.000 A 
ATOM      4  C   UNL     1      44.458   2.499   9.885  0.00  0.00    +0.000 A 
ATOM      5  C   UNL     1      45.222   1.784   8.948  0.00  0.00    +0.000 A 
ATOM      6  C   UNL     1      45.966   2.491   7.991  0.00  0.00    +0.000 A 
ATOM      7  C   UNL     1      45.742   3.866   7.827  0.00  0.00    +0.000 A 
ATOM      8  C   UNL     1      44.968   4.594   8.738  0.00  0.00    +0.000 A 
ATOM      9  C   UNL     1      44.453   3.897   9.840  0.00  0.00    +0.000 A 
ENDROOT
BRANCH   6  10
ATOM     10  C   UNL     1      47.066   1.816   7.211  0.00  0.00    +0.000 C 
ATOM     11  F   UNL     1      48.253   2.483   7.245  0.00  0.00    +0.000 F 
ATOM     12  F   UNL     1      47.328   0.552   7.642  0.00  0.00    +0.000 F 
ATOM     13  F   UNL     1      46.753   1.699   5.886  0.00  0.00    +0.000 F 
ENDBRANCH   6  10
BRANCH   1  14
ATOM     14  C   UNL     1      44.046   5.678  11.599  0.00  0.00    +0.000 C 
BRANCH  14  18
ATOM     15  C   UNL     1      48.036   6.755  12.941  0.00  0.00    +0.000 A 
ATOM     16  C   UNL     1      47.494   7.319  11.774  0.00  0.00    +0.000 A 
ATOM     17  C   UNL     1      46.223   6.958  11.334  0.00  0.00    +0.000 A 
ATOM     18  C   UNL     1      45.436   6.050  12.061  0.00  0.00    +0.000 A 
ATOM     19  C   UNL     1      45.970   5.505  13.240  0.00  0.00    +0.000 A 
ATOM     20  C   UNL     1      47.250   5.859  13.677  0.00  0.00    +0.000 A 
BRANCH  15  21
ATOM     21  C   UNL     1      49.428   7.109  13.400  0.00  0.00    +0.000 C 
BRANCH  21  22
ATOM     22  C   UNL     1      49.533   7.380  14.905  0.00  0.00    +0.000 C 
BRANCH  22  23
ATOM     23  N   UNL     1      50.675   6.665  15.485  0.00  0.00    +0.000 NA
ATOM     24  H   UNL     1      51.109   7.241  16.204  0.00  0.00    +0.000 HD
ATOM     25  H   UNL     1      51.388   6.511  14.772  0.00  0.00    +0.000 HD
ENDBRANCH  22  23
ENDBRANCH  21  22
ENDBRANCH  15  21
ENDBRANCH  14  18
ENDBRANCH   1  14
TORSDOF 6
ENDMDL
MODEL 2
REMARK VINA RESULT:    -7.229      3.424      6.728
REMARK INTER + INTRA:         -10.459
REMARK INTER:                  -9.824
REMARK INTRA:                  -0.635
REMARK UNBOUND:                -0.906
REMARK  Name = 
REMARK  6 active torsions:
REMARK  status: ('A' for Active; 'I' for Inactive)
REMARK    1  A    between atoms: N_1  and  C_2
REMARK    2  A    between atoms: C_2  and  C_3
REMARK    3  A    between atoms: C_3  and  C_4
REMARK    4  A    between atoms: C_7  and  C_8
REMARK    5  A    between atoms: C_8  and  N_9
REMARK    6  A    between atoms: C_14  and  C_15
REMARK                            x       y       z     vdW  Elec       q    Type
REMARK                         _______ _______ _______ _____ _____    ______ ____
ROOT
ATOM      1  N   UNL     1      44.721   6.211  11.855  0.00  0.00    +0.000 N 
ATOM      2  C   UNL     1      44.124   7.356  11.376  0.00  0.00    +0.000 A 
ATOM      3  C   UNL     1      44.852   8.428  11.833  0.00  0.00    +0.000 A 
ATOM      4  C   UNL     1      46.138   7.907  12.122  0.00  0.00    +0.000 A 
ATOM      5  C   UNL     1      47.423   8.469  12.168  0.00  0.00    +0.000 A 
ATOM      6  C   UNL     1      48.524   7.634  12.417  0.00  0.00    +0.000 A 
ATOM      7  C   UNL     1      48.304   6.321  12.858  0.00  0.00    +0.000 A 
ATOM      8  C   UNL     1      47.027   5.749  12.838  0.00  0.00    +0.000 A 
ATOM      9  C   UNL     1      45.982   6.533  12.329  0.00  0.00    +0.000 A 
ENDROOT
BRANCH   6  10
ATOM     10  C   UNL     1      49.929   8.096  12.124  0.00  0.00    +0.000 C 
ATOM     11  F   UNL     1      50.002   9.371  11.650  0.00  0.00    +0.000 F 
ATOM     12  F   UNL     1      50.744   8.051  13.214  0.00  0.00    +0.000 F 
ATOM     13  F   UNL     1      50.535   7.322  11.176  0.00  0.00    +0.000 F 
ENDBRANCH   6  10
BRANCH   1  14
ATOM     14  C   UNL     1      44.225   4.863  11.583  0.00  0.00    +0.000 C 
BRANCH  14  18
ATOM     15  C   UNL     1      45.875   3.129   7.956  0.00  0.00    +0.000 A 
ATOM     16  C   UNL     1      46.002   4.503   8.218  0.00  0.00    +0.000 A 
ATOM     17  C   UNL     1      45.456   5.061   9.371  0.00  0.00    +0.000 A 
ATOM     18  C   UNL     1      44.794   4.263  10.318  0.00  0.00    +0.000 A 
ATOM     19  C   UNL     1      44.689   2.885  10.067  0.00  0.00    +0.000 A 
ATOM     20  C   UNL     1      45.228   2.326   8.905  0.00  0.00    +0.000 A 
BRANCH  15  21
ATOM     21  C   UNL     1      46.427   2.526   6.689  0.00  0.00    +0.000 C 
BRANCH  21  22
ATOM     22  C   UNL     1      47.774   1.817   6.877  0.00  0.00    +0.000 C 
BRANCH  22  23
ATOM     23  N   UNL     1      48.552   1.839   5.634  0.00  0.00    +0.000 NA
ATOM     24  H   UNL     1      48.641   2.799   5.304  0.00  0.00    +0.000 HD
ATOM     25  H   UNL     1      48.056   1.329   4.903  0.00  0.00    +0.000 HD
ENDBRANCH  22  23
ENDBRANCH  21  22
ENDBRANCH  15  21
ENDBRANCH  14  18
ENDBRANCH   1  14
TORSDOF 6
ENDMDL
MODEL 3
REMARK VINA RESULT:    -6.913      4.326      7.305
REMARK INTER + INTRA:         -10.042
REMARK INTER:                  -9.331
REMARK INTRA:                  -0.712
REMARK UNBOUND:                -0.906
REMARK  Name = 
REMARK  6 active torsions:
REMARK  status: ('A' for Active; 'I' for Inactive)
REMARK    1  A    between atoms: N_1  and  C_2
REMARK    2  A    between atoms: C_2  and  C_3
REMARK    3  A    between atoms: C_3  and  C_4
REMARK    4  A    between atoms: C_7  and  C_8
REMARK    5  A    between atoms: C_8  and  N_9
REMARK    6  A    between atoms: C_14  and  C_15
REMARK                            x       y       z     vdW  Elec       q    Type
REMARK                         _______ _______ _______ _____ _____    ______ ____
ROOT
ATOM      1  N   UNL     1      45.710   5.075  12.447  0.00  0.00    +0.000 N 
ATOM      2  C   UNL     1      45.660   4.388  13.641  0.00  0.00    +0.000 A 
ATOM      3  C   UNL     1      46.816   4.664  14.329  0.00  0.00    +0.000 A 
ATOM      4  C   UNL     1      47.282   5.891  13.796  0.00  0.00    +0.000 A 
ATOM      5  C   UNL     1      48.080   6.928  14.304  0.00  0.00    +0.000 A 
ATOM      6  C   UNL     1      48.292   8.073  13.520  0.00  0.00    +0.000 A 
ATOM      7  C   UNL     1      47.919   8.057  12.167  0.00  0.00    +0.000 A 
ATOM      8  C   UNL     1      47.140   7.023  11.637  0.00  0.00    +0.000 A 
ATOM      9  C   UNL     1      46.720   6.020  12.522  0.00  0.00    +0.000 A 
ENDROOT
BRANCH   6  10
ATOM     10  C   UNL     1      48.821   9.346  14.132  0.00  0.00    +0.000 C 
ATOM     11  F   UNL     1      48.355   9.587  15.389  0.00  0.00    +0.000 F 
ATOM     12  F   UNL     1      50.180   9.370  14.220  0.00  0.00    +0.000 F 
ATOM     13  F   UNL     1      48.477  10.446  13.400  0.00  0.00    +0.000 F 
ENDBRANCH   6  10
BRANCH   1  14
ATOM     14  C   UNL     1      44.653   5.026  11.438  0.00  0.00    +0.000 C 
BRANCH  14  18
ATOM     15  C   UNL     1      45.905   3.062   7.770  0.00  0.00    +0.000 A 
ATOM     16  C   UNL     1      46.094   4.442   7.946  0.00  0.00    +0.000 A 
ATOM     17  C   UNL     1      45.675   5.074   9.114  0.00  0.00    +0.000 A 
ATOM     18  C   UNL     1      45.084   4.346  10.159  0.00  0.00    +0.000 A 
ATOM     19  C   UNL     1      44.917   2.961   9.992  0.00  0.00    +0.000 A 
ATOM     20  C   UNL     1      45.328   2.328   8.815  0.00  0.00    +0.000 A 
BRANCH  15  21
ATOM     21  C   UNL     1      46.318   2.378   6.490  0.00  0.00    +0.000 C 
BRANCH  21  22
ATOM     22  C   UNL     1      47.546   1.474   6.641  0.00  0.00    +0.000 C 
BRANCH  22  23
ATOM     23  N   UNL     1      48.603   1.870   5.705  0.00  0.00    +0.000 NA
ATOM     24  H   UNL     1      48.311   1.659   4.752  0.00  0.00    +0.000 HD
ATOM     25  H   UNL     1      49.444   1.320   5.875  0.00  0.00    +0.000 HD
ENDBRANCH  22  23
ENDBRANCH  21  22
ENDBRANCH  15  21
ENDBRANCH  14  18
ENDBRANCH   1  14
TORSDOF 6
ENDMDL
MODEL 4
REMARK VINA RESULT:    -5.984      2.340      3.401
REMARK INTER + INTRA:          -8.814
REMARK INTER:                  -8.298
REMARK INTRA:                  -0.516
REMARK UNBOUND:                -0.906
REMARK  Name = 
REMARK  6 active torsions:
REMARK  status: ('A' for Active; 'I' for Inactive)
REMARK    1  A    between atoms: N_1  and  C_2
REMARK    2  A    between atoms: C_2  and  C_3
REMARK    3  A    between atoms: C_3  and  C_4
REMARK    4  A    between atoms: C_7  and  C_8
REMARK    5  A    between atoms: C_8  and  N_9
REMARK    6  A    between atoms: C_14  and  C_15
REMARK                            x       y       z     vdW  Elec       q    Type
REMARK                         _______ _______ _______ _____ _____    ______ ____
ROOT
ATOM      1  N   UNL     1      45.576   6.271  12.896  0.00  0.00    +0.000 N 
ATOM      2  C   UNL     1      46.349   5.533  13.766  0.00  0.00    +0.000 A 
ATOM      3  C   UNL     1      45.986   4.216  13.630  0.00  0.00    +0.000 A 
ATOM      4  C   UNL     1      45.400   4.122  12.343  0.00  0.00    +0.000 A 
ATOM      5  C   UNL     1      45.250   3.075  11.420  0.00  0.00    +0.000 A 
ATOM      6  C   UNL     1      44.674   3.346  10.169  0.00  0.00    +0.000 A 
ATOM      7  C   UNL     1      44.039   4.580   9.958  0.00  0.00    +0.000 A 
ATOM      8  C   UNL     1      44.161   5.630  10.876  0.00  0.00    +0.000 A 
ATOM      9  C   UNL     1      44.970   5.408  11.999  0.00  0.00    +0.000 A 
ENDROOT
BRANCH   6  10
ATOM     10  C   UNL     1      44.814   2.375   9.024  0.00  0.00    +0.000 C 
ATOM     11  F   UNL     1      44.105   1.224   9.189  0.00  0.00    +0.000 F 
ATOM     12  F   UNL     1      44.418   2.896   7.830  0.00  0.00    +0.000 F 
ATOM     13  F   UNL     1      46.109   1.980   8.845  0.00  0.00    +0.000 F 
ENDBRANCH   6  10
BRANCH   1  14
ATOM     14  C   UNL     1      45.671   7.724  12.759  0.00  0.00    +0.000 C 
BRANCH  14  18
ATOM     15  C   UNL     1      49.650   9.069  11.648  0.00  0.00    +0.000 A 
ATOM     16  C   UNL     1      48.770   9.920  12.337  0.00  0.00    +0.000 A 
ATOM     17  C   UNL     1      47.488   9.494  12.675  0.00  0.00    +0.000 A 
ATOM     18  C   UNL     1      47.051   8.195  12.368  0.00  0.00    +0.000 A 
ATOM     19  C   UNL     1      47.941   7.337  11.700  0.00  0.00    +0.000 A 
ATOM     20  C   UNL     1      49.225   7.767  11.352  0.00  0.00    +0.000 A 
BRANCH  15  21
ATOM     21  C   UNL     1      51.025   9.537  11.242  0.00  0.00    +0.000 C 
BRANCH  21  22
ATOM     22  C   UNL     1      51.934   8.415  10.726  0.00  0.00    +0.000 C 
BRANCH  22  23
ATOM     23  N   UNL     1      52.755   7.870  11.811  0.00  0.00    +0.000 NA
ATOM     24  H   UNL     1      53.495   7.289  11.421  0.00  0.00    +0.000 HD
ATOM     25  H   UNL     1      52.191   7.258  12.401  0.00  0.00    +0.000 HD
ENDBRANCH  22  23
ENDBRANCH  21  22
ENDBRANCH  15  21
ENDBRANCH  14  18
ENDBRANCH   1  14
TORSDOF 6
ENDMDL
MODEL 5
REMARK VINA RESULT:    -5.779      4.521      6.774
REMARK INTER + INTRA:          -8.544
REMARK INTER:                  -7.830
REMARK INTRA:                  -0.714
REMARK UNBOUND:                -0.906
REMARK  Name = 
REMARK  6 active torsions:
REMARK  status: ('A' for Active; 'I' for Inactive)
REMARK    1  A    between atoms: N_1  and  C_2
REMARK    2  A    between atoms: C_2  and  C_3
REMARK    3  A    between atoms: C_3  and  C_4
REMARK    4  A    between atoms: C_7  and  C_8
REMARK    5  A    between atoms: C_8  and  N_9
REMARK    6  A    between atoms: C_14  and  C_15
REMARK                            x       y       z     vdW  Elec       q    Type
REMARK                         _______ _______ _______ _____ _____    ______ ____
ROOT
ATOM      1  N   UNL     1      48.251   5.879  15.464  0.00  0.00    +0.000 N 
ATOM      2  C   UNL     1      48.774   7.123  15.182  0.00  0.00    +0.000 A 
ATOM      3  C   UNL     1      48.662   7.323  13.827  0.00  0.00    +0.000 A 
ATOM      4  C   UNL     1      47.623   6.456  13.408  0.00  0.00    +0.000 A 
ATOM      5  C   UNL     1      46.719   6.474  12.334  0.00  0.00    +0.000 A 
ATOM      6  C   UNL     1      45.738   5.474  12.251  0.00  0.00    +0.000 A 
ATOM      7  C   UNL     1      45.831   4.350  13.085  0.00  0.00    +0.000 A 
ATOM      8  C   UNL     1      46.739   4.304  14.149  0.00  0.00    +0.000 A 
ATOM      9  C   UNL     1      47.529   5.442  14.366  0.00  0.00    +0.000 A 
ENDROOT
BRANCH   6  10
ATOM     10  C   UNL     1      44.538   5.637  11.352  0.00  0.00    +0.000 C 
ATOM     11  F   UNL     1      44.217   6.935  11.094  0.00  0.00    +0.000 F 
ATOM     12  F   UNL     1      44.695   5.037  10.139  0.00  0.00    +0.000 F 
ATOM     13  F   UNL     1      43.414   5.086  11.896  0.00  0.00    +0.000 F 
ENDBRANCH   6  10
BRANCH   1  14
ATOM     14  C   UNL     1      48.199   5.307  16.808  0.00  0.00    +0.000 C 
BRANCH  14  18
ATOM     15  C   UNL     1      51.674   2.875  17.750  0.00  0.00    +0.000 A 
ATOM     16  C   UNL     1      50.465   2.278  17.355  0.00  0.00    +0.000 A 
ATOM     17  C   UNL     1      49.347   3.058  17.072  0.00  0.00    +0.000 A 
ATOM     18  C   UNL     1      49.404   4.459  17.141  0.00  0.00    +0.000 A 
ATOM     19  C   UNL     1      50.621   5.056  17.514  0.00  0.00    +0.000 A 
ATOM     20  C   UNL     1      51.741   4.273  17.808  0.00  0.00    +0.000 A 
BRANCH  15  21
ATOM     21  C   UNL     1      52.877   2.035  18.099  0.00  0.00    +0.000 C 
BRANCH  21  22
ATOM     22  C   UNL     1      52.881   0.653  17.435  0.00  0.00    +0.000 C 
BRANCH  22  23
ATOM     23  N   UNL     1      52.615  -0.399  18.420  0.00  0.00    +0.000 NA
ATOM     24  H   UNL     1      53.287  -1.156  18.301  0.00  0.00    +0.000 HD
ATOM     25  H   UNL     1      51.694  -0.806  18.257  0.00  0.00    +0.000 HD
ENDBRANCH  22  23
ENDBRANCH  21  22
ENDBRANCH  15  21
ENDBRANCH  14  18
ENDBRANCH   1  14
TORSDOF 6
ENDMDL
MODEL 6
REMARK VINA RESULT:    -5.622      3.895      6.004
REMARK INTER + INTRA:          -8.336
REMARK INTER:                  -7.662
REMARK INTRA:                  -0.674
REMARK UNBOUND:                -0.906
REMARK  Name = 
REMARK  6 active torsions:
REMARK  status: ('A' for Active; 'I' for Inactive)
REMARK    1  A    between atoms: N_1  and  C_2
REMARK    2  A    between atoms: C_2  and  C_3
REMARK    3  A    between atoms: C_3  and  C_4
REMARK    4  A    between atoms: C_7  and  C_8
REMARK    5  A    between atoms: C_8  and  N_9
REMARK    6  A    between atoms: C_14  and  C_15
REMARK                            x       y       z     vdW  Elec       q    Type
REMARK                         _______ _______ _______ _____ _____    ______ ____
ROOT
ATOM      1  N   UNL     1      47.987   6.863  14.126  0.00  0.00    +0.000 N 
ATOM      2  C   UNL     1      48.530   7.746  13.218  0.00  0.00    +0.000 A 
ATOM      3  C   UNL     1      48.227   7.287  11.959  0.00  0.00    +0.000 A 
ATOM      4  C   UNL     1      47.090   6.459  12.129  0.00  0.00    +0.000 A 
ATOM      5  C   UNL     1      46.037   6.073  11.285  0.00  0.00    +0.000 A 
ATOM      6  C   UNL     1      45.000   5.283  11.805  0.00  0.00    +0.000 A 
ATOM      7  C   UNL     1      45.154   4.692  13.068  0.00  0.00    +0.000 A 
ATOM      8  C   UNL     1      46.208   5.050  13.917  0.00  0.00    +0.000 A 
ATOM      9  C   UNL     1      47.084   6.047  13.465  0.00  0.00    +0.000 A 
ENDROOT
BRANCH   6  10
ATOM     10  C   UNL     1      43.690   5.142  11.072  0.00  0.00    +0.000 C 
ATOM     11  F   UNL     1      42.860   4.202  11.604  0.00  0.00    +0.000 F 
ATOM     12  F   UNL     1      42.974   6.300  11.031  0.00  0.00    +0.000 F 
ATOM     13  F   UNL     1      43.870   4.771   9.770  0.00  0.00    +0.000 F 
ENDBRANCH   6  10
BRANCH   1  14
ATOM     14  C   UNL     1      48.106   7.014  15.575  0.00  0.00    +0.000 C 
BRANCH  14  18
ATOM     15  C   UNL     1      50.603   3.979  17.427  0.00  0.00    +0.000 A 
ATOM     16  C   UNL     1      51.131   5.237  17.092  0.00  0.00    +0.000 A 
ATOM     17  C   UNL     1      50.334   6.202  16.480  0.00  0.00    +0.000 A 
ATOM     18  C   UNL     1      48.977   5.958  16.214  0.00  0.00    +0.000 A 
ATOM     19  C   UNL     1      48.444   4.709  16.572  0.00  0.00    +0.000 A 
ATOM     20  C   UNL     1      49.246   3.736  17.177  0.00  0.00    +0.000 A 
BRANCH  15  21
ATOM     21  C   UNL     1      51.470   2.914  18.051  0.00  0.00    +0.000 C 
BRANCH  21  22
ATOM     22  C   UNL     1      51.308   1.531  17.412  0.00  0.00    +0.000 C 
BRANCH  22  23
ATOM     23  N   UNL     1      52.067   0.521  18.155  0.00  0.00    +0.000 NA
ATOM     24  H   UNL     1      52.186   0.825  19.120  0.00  0.00    +0.000 HD
ATOM     25  H   UNL     1      53.005   0.433  17.765  0.00  0.00    +0.000 HD
ENDBRANCH  22  23
ENDBRANCH  21  22
ENDBRANCH  15  21
ENDBRANCH  14  18
ENDBRANCH   1  14
TORSDOF 6
ENDMDL
MODEL 7
REMARK VINA RESULT:    -5.223      4.913      7.401
REMARK INTER + INTRA:          -7.809
REMARK INTER:                  -6.950
REMARK INTRA:                  -0.859
REMARK UNBOUND:                -0.906
REMARK  Name = 
REMARK  6 active torsions:
REMARK  status: ('A' for Active; 'I' for Inactive)
REMARK    1  A    between atoms: N_1  and  C_2
REMARK    2  A    between atoms: C_2  and  C_3
REMARK    3  A    between atoms: C_3  and  C_4
REMARK    4  A    between atoms: C_7  and  C_8
REMARK    5  A    between atoms: C_8  and  N_9
REMARK    6  A    between atoms: C_14  and  C_15
REMARK                            x       y       z     vdW  Elec       q    Type
REMARK                         _______ _______ _______ _____ _____    ______ ____
ROOT
ATOM      1  N   UNL     1      47.359   4.919  15.480  0.00  0.00    +0.000 N 
ATOM      2  C   UNL     1      46.848   4.116  14.483  0.00  0.00    +0.000 A 
ATOM      3  C   UNL     1      46.826   4.853  13.325  0.00  0.00    +0.000 A 
ATOM      4  C   UNL     1      47.790   5.874  13.516  0.00  0.00    +0.000 A 
ATOM      5  C   UNL     1      48.579   6.638  12.641  0.00  0.00    +0.000 A 
ATOM      6  C   UNL     1      49.516   7.536  13.176  0.00  0.00    +0.000 A 
ATOM      7  C   UNL     1      49.475   7.835  14.546  0.00  0.00    +0.000 A 
ATOM      8  C   UNL     1      48.680   7.098  15.431  0.00  0.00    +0.000 A 
ATOM      9  C   UNL     1      47.951   6.027  14.896  0.00  0.00    +0.000 A 
ENDROOT
BRANCH   6  10
ATOM     10  C   UNL     1      50.622   8.103  12.322  0.00  0.00    +0.000 C 
ATOM     11  F   UNL     1      50.873   7.381  11.195  0.00  0.00    +0.000 F 
ATOM     12  F   UNL     1      50.376   9.377  11.909  0.00  0.00    +0.000 F 
ATOM     13  F   UNL     1      51.810   8.153  12.993  0.00  0.00    +0.000 F 
ENDBRANCH   6  10
BRANCH   1  14
ATOM     14  C   UNL     1      47.531   4.484  16.865  0.00  0.00    +0.000 C 
BRANCH  14  18
ATOM     15  C   UNL     1      51.434   2.731  17.621  0.00  0.00    +0.000 A 
ATOM     16  C   UNL     1      50.409   1.975  17.028  0.00  0.00    +0.000 A 
ATOM     17  C   UNL     1      49.153   2.531  16.805  0.00  0.00    +0.000 A 
ATOM     18  C   UNL     1      48.885   3.871  17.132  0.00  0.00    +0.000 A 
ATOM     19  C   UNL     1      49.918   4.633  17.702  0.00  0.00    +0.000 A 
ATOM     20  C   UNL     1      51.177   4.072  17.936  0.00  0.00    +0.000 A 
BRANCH  15  21
ATOM     21  C   UNL     1      52.784   2.122  17.905  0.00  0.00    +0.000 C 
BRANCH  21  22
ATOM     22  C   UNL     1      52.940   0.691  17.379  0.00  0.00    +0.000 C 
BRANCH  22  23
ATOM     23  N   UNL     1      52.612  -0.286  18.421  0.00  0.00    +0.000 NA
ATOM     24  H   UNL     1      52.368  -1.176  17.991  0.00  0.00    +0.000 HD
ATOM     25  H   UNL     1      51.787   0.019  18.937  0.00  0.00    +0.000 HD
ENDBRANCH  22  23
ENDBRANCH  21  22
ENDBRANCH  15  21
ENDBRANCH  14  18
ENDBRANCH   1  14
TORSDOF 6
ENDMDL
MODEL 8
REMARK VINA RESULT:    -4.909      4.114      7.520
REMARK INTER + INTRA:          -7.394
REMARK INTER:                  -6.557
REMARK INTRA:                  -0.837
REMARK UNBOUND:                -0.906
REMARK  Name = 
REMARK  6 active torsions:
REMARK  status: ('A' for Active; 'I' for Inactive)
REMARK    1  A    between atoms: N_1  and  C_2
REMARK    2  A    between atoms: C_2  and  C_3
REMARK    3  A    between atoms: C_3  and  C_4
REMARK    4  A    between atoms: C_7  and  C_8
REMARK    5  A    between atoms: C_8  and  N_9
REMARK    6  A    between atoms: C_14  and  C_15
REMARK                            x       y       z     vdW  Elec       q    Type
REMARK                         _______ _______ _______ _____ _____    ______ ____
ROOT
ATOM      1  N   UNL     1      47.944   7.588  13.564  0.00  0.00    +0.000 N 
ATOM      2  C   UNL     1      48.254   7.622  14.906  0.00  0.00    +0.000 A 
ATOM      3  C   UNL     1      49.602   7.390  15.029  0.00  0.00    +0.000 A 
ATOM      4  C   UNL     1      50.155   7.742  13.772  0.00  0.00    +0.000 A 
ATOM      5  C   UNL     1      51.424   8.178  13.359  0.00  0.00    +0.000 A 
ATOM      6  C   UNL     1      51.622   8.525  12.014  0.00  0.00    +0.000 A 
ATOM      7  C   UNL     1      50.638   8.197  11.069  0.00  0.00    +0.000 A 
ATOM      8  C   UNL     1      49.373   7.743  11.459  0.00  0.00    +0.000 A 
ATOM      9  C   UNL     1      49.120   7.659  12.836  0.00  0.00    +0.000 A 
ENDROOT
BRANCH   6  10
ATOM     10  C   UNL     1      52.825   9.328  11.589  0.00  0.00    +0.000 C 
ATOM     11  F   UNL     1      52.551  10.277  10.651  0.00  0.00    +0.000 F 
ATOM     12  F   UNL     1      53.424   9.980  12.624  0.00  0.00    +0.000 F 
ATOM     13  F   UNL     1      53.795   8.541  11.036  0.00  0.00    +0.000 F 
ENDBRANCH   6  10
BRANCH   1  14
ATOM     14  C   UNL     1      46.595   7.787  13.037  0.00  0.00    +0.000 C 
BRANCH  14  18
ATOM     15  C   UNL     1      44.869   4.159  11.384  0.00  0.00    +0.000 A 
ATOM     16  C   UNL     1      45.125   5.270  10.565  0.00  0.00    +0.000 A 
ATOM     17  C   UNL     1      45.660   6.440  11.099  0.00  0.00    +0.000 A 
ATOM     18  C   UNL     1      45.989   6.529  12.462  0.00  0.00    +0.000 A 
ATOM     19  C   UNL     1      45.755   5.408  13.275  0.00  0.00    +0.000 A 
ATOM     20  C   UNL     1      45.208   4.237  12.741  0.00  0.00    +0.000 A 
BRANCH  15  21
ATOM     21  C   UNL     1      44.250   2.904  10.820  0.00  0.00    +0.000 C 
BRANCH  21  22
ATOM     22  C   UNL     1      44.522   2.698   9.326  0.00  0.00    +0.000 C 
BRANCH  22  23
ATOM     23  N   UNL     1      45.612   1.739   9.122  0.00  0.00    +0.000 NA
ATOM     24  H   UNL     1      46.507   2.202   9.277  0.00  0.00    +0.000 HD
ATOM     25  H   UNL     1      45.619   1.419   8.153  0.00  0.00    +0.000 HD
ENDBRANCH  22  23
ENDBRANCH  21  22
ENDBRANCH  15  21
ENDBRANCH  14  18
ENDBRANCH   1  14
TORSDOF 6
ENDMDL
MODEL 9
REMARK VINA RESULT:    -4.683      4.925      8.338
REMARK INTER + INTRA:          -7.095
REMARK INTER:                  -6.209
REMARK INTRA:                  -0.886
REMARK UNBOUND:                -0.906
REMARK  Name = 
REMARK  6 active torsions:
REMARK  status: ('A' for Active; 'I' for Inactive)
REMARK    1  A    between atoms: N_1  and  C_2
REMARK    2  A    between atoms: C_2  and  C_3
REMARK    3  A    between atoms: C_3  and  C_4
REMARK    4  A    between atoms: C_7  and  C_8
REMARK    5  A    between atoms: C_8  and  N_9
REMARK    6  A    between atoms: C_14  and  C_15
REMARK                            x       y       z     vdW  Elec       q    Type
REMARK                         _______ _______ _______ _____ _____    ______ ____
ROOT
ATOM      1  N   UNL     1      50.880   7.567  15.983  0.00  0.00    +0.000 N 
ATOM      2  C   UNL     1      52.147   7.034  15.892  0.00  0.00    +0.000 A 
ATOM      3  C   UNL     1      52.245   6.032  16.827  0.00  0.00    +0.000 A 
ATOM      4  C   UNL     1      50.910   5.634  17.085  0.00  0.00    +0.000 A 
ATOM      5  C   UNL     1      50.324   4.439  17.535  0.00  0.00    +0.000 A 
ATOM      6  C   UNL     1      48.925   4.351  17.610  0.00  0.00    +0.000 A 
ATOM      7  C   UNL     1      48.156   5.518  17.479  0.00  0.00    +0.000 A 
ATOM      8  C   UNL     1      48.725   6.723  17.051  0.00  0.00    +0.000 A 
ATOM      9  C   UNL     1      50.089   6.708  16.728  0.00  0.00    +0.000 A 
ENDROOT
BRANCH   6  10
ATOM     10  C   UNL     1      48.238   3.015  17.730  0.00  0.00    +0.000 C 
ATOM     11  F   UNL     1      46.925   3.037  17.366  0.00  0.00    +0.000 F 
ATOM     12  F   UNL     1      48.824   2.043  16.978  0.00  0.00    +0.000 F 
ATOM     13  F   UNL     1      48.250   2.548  19.014  0.00  0.00    +0.000 F 
ENDBRANCH   6  10
BRANCH   1  14
ATOM     14  C   UNL     1      50.400   8.666  15.147  0.00  0.00    +0.000 C 
BRANCH  14  18
ATOM     15  C   UNL     1      47.052   7.564  12.606  0.00  0.00    +0.000 A 
ATOM     16  C   UNL     1      46.921   8.581  13.567  0.00  0.00    +0.000 A 
ATOM     17  C   UNL     1      47.989   8.919  14.394  0.00  0.00    +0.000 A 
ATOM     18  C   UNL     1      49.233   8.281  14.269  0.00  0.00    +0.000 A 
ATOM     19  C   UNL     1      49.370   7.281  13.291  0.00  0.00    +0.000 A 
ATOM     20  C   UNL     1      48.296   6.933  12.468  0.00  0.00    +0.000 A 
BRANCH  15  21
ATOM     21  C   UNL     1      45.888   7.163  11.736  0.00  0.00    +0.000 C 
BRANCH  21  22
ATOM     22  C   UNL     1      44.851   6.290  12.453  0.00  0.00    +0.000 C 
BRANCH  22  23
ATOM     23  N   UNL     1      45.237   4.877  12.407  0.00  0.00    +0.000 NA
ATOM     24  H   UNL     1      45.793   4.702  11.571  0.00  0.00    +0.000 HD
ATOM     25  H   UNL     1      44.407   4.291  12.326  0.00  0.00    +0.000 HD
ENDBRANCH  22  23
ENDBRANCH  21  22
ENDBRANCH  15  21
ENDBRANCH  14  18
ENDBRANCH   1  14
TORSDOF 6
ENDMDL
