MODEL 1
REMARK VINA RESULT:    -6.311      0.000      0.000
REMARK INTER + INTRA:          -8.141
REMARK INTER:                  -7.603
REMARK INTRA:                  -0.538
REMARK UNBOUND:                -0.538
REMARK  Name = 
REMARK  4 active torsions:
REMARK  status: ('A' for Active; 'I' for Inactive)
REMARK    1  A    between atoms: C_2  and  C_3
REMARK    2  A    between atoms: C_10  and  C_11
REMARK    3  A    between atoms: C_15  and  N_16
REMARK    4  A    between atoms: C_19  and  O_20
REMARK                            x       y       z     vdW  Elec       q    Type
REMARK                         _______ _______ _______ _____ _____    ______ ____
ROOT
ATOM      1  C   UNL     1      50.807   6.113  18.623  0.00  0.00    +0.000 A 
ATOM      2  C   UNL     1      49.727   6.968  18.790  0.00  0.00    +0.000 A 
ATOM      3  C   UNL     1      48.961   7.314  17.677  0.00  0.00    +0.000 A 
ATOM      4  C   UNL     1      49.279   6.800  16.419  0.00  0.00    +0.000 A 
ATOM      5  N   UNL     1      48.571   7.179  15.303  0.00  0.00    +0.000 N 
ATOM      6  C   UNL     1      48.370   6.220  14.221  0.00  0.00    +0.000 C 
ATOM      7  C   UNL     1      48.818   6.796  12.882  0.00  0.00    +0.000 C 
ATOM      8  C   UNL     1      48.273   8.206  12.615  0.00  0.00    +0.000 C 
ATOM      9  C   UNL     1      48.603   9.119  13.800  0.00  0.00    +0.000 C 
ATOM     10  C   UNL     1      48.134   8.559  15.138  0.00  0.00    +0.000 C 
ATOM     11  N   UNL     1      50.309   5.938  16.270  0.00  0.00    +0.000 NA
ATOM     12  C   UNL     1      51.053   5.622  17.354  0.00  0.00    +0.000 A 
ENDROOT
BRANCH   8  13
ATOM     13  C   UNL     1      46.797   8.234  12.220  0.00  0.00    +0.000 A 
ATOM     14  C   UNL     1      46.183   9.457  11.967  0.00  0.00    +0.000 A 
ATOM     15  C   UNL     1      44.857   9.471  11.562  0.00  0.00    +0.000 A 
ATOM     16  C   UNL     1      44.190   8.267  11.414  0.00  0.00    +0.000 A 
ATOM     17  C   UNL     1      44.834   7.063  11.685  0.00  0.00    +0.000 A 
ATOM     18  N   UNL     1      46.124   7.058  12.108  0.00  0.00    +0.000 NA
BRANCH  17  19
ATOM     19  N   UNL     1      44.150   5.872  11.531  0.00  0.00    +0.000 N 
ATOM     20  C   UNL     1      43.083   5.511  12.452  0.00  0.00    +0.000 C 
ATOM     21  C   UNL     1      43.409   4.204  13.165  0.00  0.00    +0.000 C 
ATOM     22  C   UNL     1      43.839   3.107  12.189  0.00  0.00    +0.000 C 
ATOM     23  C   UNL     1      44.947   3.579  11.252  0.00  0.00    +0.000 C 
ATOM     24  C   UNL     1      44.576   4.881  10.551  0.00  0.00    +0.000 C 
BRANCH  22  25
ATOM     25  O   UNL     1      42.723   2.628  11.436  0.00  0.00    +0.000 OA
ATOM     26  H   UNL     1      42.180   2.055  12.004  0.00  0.00    +0.000 HD
ENDBRANCH  22  25
ENDBRANCH  17  19
ENDBRANCH   8  13
BRANCH   1  28
ATOM     27  N   UNL     1      52.331   5.457  20.609  0.00  0.00    +0.000 NA
ATOM     28  C   UNL     1      51.643   5.756  19.717  0.00  0.00    +0.000 C 
ENDBRANCH   1  28
TORSDOF 4
ENDMDL
MODEL 2
REMARK VINA RESULT:    -5.582      2.992      7.820
REMARK INTER + INTRA:          -7.262
REMARK INTER:                  -6.774
REMARK INTRA:                  -0.489
REMARK UNBOUND:                -0.538
REMARK  Name = 
REMARK  4 active torsions:
REMARK  status: ('A' for Active; 'I' for Inactive)
REMARK    1  A    between atoms: C_2  and  C_3
REMARK    2  A    between atoms: C_10  and  C_11
REMARK    3  A    between atoms: C_15  and  N_16
REMARK    4  A    between atoms: C_19  and  O_20
REMARK                            x       y       z     vdW  Elec       q    Type
REMARK                         _______ _______ _______ _____ _____    ______ ____
ROOT
ATOM      1  C   UNL     1      45.217   4.524  10.442  0.00  0.00    +0.000 A 
ATOM      2  C   UNL     1      45.454   3.936  11.676  0.00  0.00    +0.000 A 
ATOM      3  C   UNL     1      46.012   4.705  12.695  0.00  0.00    +0.000 A 
ATOM      4  C   UNL     1      46.320   6.048  12.472  0.00  0.00    +0.000 A 
ATOM      5  N   UNL     1      46.927   6.804  13.448  0.00  0.00    +0.000 N 
ATOM      6  C   UNL     1      46.614   8.226  13.552  0.00  0.00    +0.000 C 
ATOM      7  C   UNL     1      47.882   9.073  13.539  0.00  0.00    +0.000 C 
ATOM      8  C   UNL     1      48.959   8.567  14.510  0.00  0.00    +0.000 C 
ATOM      9  C   UNL     1      49.229   7.082  14.252  0.00  0.00    +0.000 C 
ATOM     10  C   UNL     1      47.967   6.227  14.290  0.00  0.00    +0.000 C 
ATOM     11  N   UNL     1      46.053   6.626  11.281  0.00  0.00    +0.000 NA
ATOM     12  C   UNL     1      45.526   5.865  10.295  0.00  0.00    +0.000 A 
ENDROOT
BRANCH   8  13
ATOM     13  C   UNL     1      48.669   8.888  15.975  0.00  0.00    +0.000 A 
ATOM     14  C   UNL     1      48.462  10.212  16.354  0.00  0.00    +0.000 A 
ATOM     15  C   UNL     1      48.153  10.490  17.677  0.00  0.00    +0.000 A 
ATOM     16  C   UNL     1      48.052   9.442  18.576  0.00  0.00    +0.000 A 
ATOM     17  C   UNL     1      48.275   8.132  18.162  0.00  0.00    +0.000 A 
ATOM     18  N   UNL     1      48.605   7.868  16.872  0.00  0.00    +0.000 NA
BRANCH  17  19
ATOM     19  N   UNL     1      48.168   7.100  19.075  0.00  0.00    +0.000 N 
ATOM     20  C   UNL     1      49.085   7.016  20.202  0.00  0.00    +0.000 C 
ATOM     21  C   UNL     1      49.870   5.710  20.158  0.00  0.00    +0.000 C 
ATOM     22  C   UNL     1      48.961   4.497  19.955  0.00  0.00    +0.000 C 
ATOM     23  C   UNL     1      48.023   4.681  18.765  0.00  0.00    +0.000 C 
ATOM     24  C   UNL     1      47.249   5.991  18.854  0.00  0.00    +0.000 C 
BRANCH  22  25
ATOM     25  O   UNL     1      48.211   4.216  21.139  0.00  0.00    +0.000 OA
ATOM     26  H   UNL     1      47.996   5.054  21.584  0.00  0.00    +0.000 HD
ENDBRANCH  22  25
ENDBRANCH  17  19
ENDBRANCH   8  13
BRANCH   1  28
ATOM     27  N   UNL     1      44.244   3.159   8.471  0.00  0.00    +0.000 NA
ATOM     28  C   UNL     1      44.684   3.777   9.355  0.00  0.00    +0.000 C 
ENDBRANCH   1  28
TORSDOF 4
ENDMDL
MODEL 3
REMARK VINA RESULT:    -5.263      1.731      2.918
REMARK INTER + INTRA:          -6.878
REMARK INTER:                  -6.290
REMARK INTRA:                  -0.587
REMARK UNBOUND:                -0.538
REMARK  Name = 
REMARK  4 active torsions:
REMARK  status: ('A' for Active; 'I' for Inactive)
REMARK    1  A    between atoms: C_2  and  C_3
REMARK    2  A    between atoms: C_10  and  C_11
REMARK    3  A    between atoms: C_15  and  N_16
REMARK    4  A    between atoms: C_19  and  O_20
REMARK                            x       y       z     vdW  Elec       q    Type
REMARK                         _______ _______ _______ _____ _____    ______ ____
ROOT
ATOM      1  C   UNL     1      53.447   4.798  19.291  0.00  0.00    +0.000 A 
ATOM      2  C   UNL     1      52.482   3.953  18.762  0.00  0.00    +0.000 A 
ATOM      3  C   UNL     1      51.611   4.446  17.791  0.00  0.00    +0.000 A 
ATOM      4  C   UNL     1      51.718   5.769  17.359  0.00  0.00    +0.000 A 
ATOM      5  N   UNL     1      50.828   6.287  16.448  0.00  0.00    +0.000 N 
ATOM      6  C   UNL     1      51.284   7.291  15.491  0.00  0.00    +0.000 C 
ATOM      7  C   UNL     1      50.398   8.532  15.529  0.00  0.00    +0.000 C 
ATOM      8  C   UNL     1      48.898   8.208  15.473  0.00  0.00    +0.000 C 
ATOM      9  C   UNL     1      48.549   7.190  16.563  0.00  0.00    +0.000 C 
ATOM     10  C   UNL     1      49.415   5.937  16.512  0.00  0.00    +0.000 C 
ATOM     11  N   UNL     1      52.683   6.576  17.851  0.00  0.00    +0.000 NA
ATOM     12  C   UNL     1      53.512   6.091  18.803  0.00  0.00    +0.000 A 
ENDROOT
BRANCH   8  13
ATOM     13  C   UNL     1      48.405   7.806  14.084  0.00  0.00    +0.000 A 
ATOM     14  C   UNL     1      49.138   8.190  12.964  0.00  0.00    +0.000 A 
ATOM     15  C   UNL     1      48.710   7.781  11.710  0.00  0.00    +0.000 A 
ATOM     16  C   UNL     1      47.573   6.997  11.614  0.00  0.00    +0.000 A 
ATOM     17  C   UNL     1      46.860   6.641  12.755  0.00  0.00    +0.000 A 
ATOM     18  N   UNL     1      47.268   7.068  13.977  0.00  0.00    +0.000 NA
BRANCH  17  19
ATOM     19  N   UNL     1      45.728   5.858  12.637  0.00  0.00    +0.000 N 
ATOM     20  C   UNL     1      45.592   4.637  13.416  0.00  0.00    +0.000 C 
ATOM     21  C   UNL     1      45.442   3.430  12.497  0.00  0.00    +0.000 C 
ATOM     22  C   UNL     1      44.374   3.651  11.424  0.00  0.00    +0.000 C 
ATOM     23  C   UNL     1      44.584   4.963  10.672  0.00  0.00    +0.000 C 
ATOM     24  C   UNL     1      44.717   6.144  11.625  0.00  0.00    +0.000 C 
BRANCH  22  25
ATOM     25  O   UNL     1      43.063   3.610  11.991  0.00  0.00    +0.000 OA
ATOM     26  H   UNL     1      43.133   3.391  12.936  0.00  0.00    +0.000 HD
ENDBRANCH  22  25
ENDBRANCH  17  19
ENDBRANCH   8  13
BRANCH   1  28
ATOM     27  N   UNL     1      55.068   3.992  21.139  0.00  0.00    +0.000 NA
ATOM     28  C   UNL     1      54.337   4.359  20.309  0.00  0.00    +0.000 C 
ENDBRANCH   1  28
TORSDOF 4
ENDMDL
MODEL 4
REMARK VINA RESULT:    -5.237      3.901      5.986
REMARK INTER + INTRA:          -6.847
REMARK INTER:                  -6.299
REMARK INTRA:                  -0.548
REMARK UNBOUND:                -0.538
REMARK  Name = 
REMARK  4 active torsions:
REMARK  status: ('A' for Active; 'I' for Inactive)
REMARK    1  A    between atoms: C_2  and  C_3
REMARK    2  A    between atoms: C_10  and  C_11
REMARK    3  A    between atoms: C_15  and  N_16
REMARK    4  A    between atoms: C_19  and  O_20
REMARK                            x       y       z     vdW  Elec       q    Type
REMARK                         _______ _______ _______ _____ _____    ______ ____
ROOT
ATOM      1  C   UNL     1      53.722   9.734   9.671  0.00  0.00    +0.000 A 
ATOM      2  C   UNL     1      54.039   8.805  10.651  0.00  0.00    +0.000 A 
ATOM      3  C   UNL     1      53.014   8.256  11.419  0.00  0.00    +0.000 A 
ATOM      4  C   UNL     1      51.690   8.638  11.197  0.00  0.00    +0.000 A 
ATOM      5  N   UNL     1      50.674   8.152  11.987  0.00  0.00    +0.000 N 
ATOM      6  C   UNL     1      49.355   7.927  11.402  0.00  0.00    +0.000 C 
ATOM      7  C   UNL     1      48.267   8.633  12.205  0.00  0.00    +0.000 C 
ATOM      8  C   UNL     1      48.366   8.375  13.716  0.00  0.00    +0.000 C 
ATOM      9  C   UNL     1      49.779   8.705  14.204  0.00  0.00    +0.000 C 
ATOM     10  C   UNL     1      50.869   7.982  13.421  0.00  0.00    +0.000 C 
ATOM     11  N   UNL     1      51.383   9.515  10.217  0.00  0.00    +0.000 NA
ATOM     12  C   UNL     1      52.388  10.052   9.488  0.00  0.00    +0.000 A 
ENDROOT
BRANCH   8  13
ATOM     13  C   UNL     1      47.884   6.989  14.138  0.00  0.00    +0.000 A 
ATOM     14  C   UNL     1      48.503   6.350  15.209  0.00  0.00    +0.000 A 
ATOM     15  C   UNL     1      48.030   5.112  15.617  0.00  0.00    +0.000 A 
ATOM     16  C   UNL     1      46.951   4.556  14.951  0.00  0.00    +0.000 A 
ATOM     17  C   UNL     1      46.363   5.220  13.878  0.00  0.00    +0.000 A 
ATOM     18  N   UNL     1      46.849   6.418  13.466  0.00  0.00    +0.000 NA
BRANCH  17  19
ATOM     19  N   UNL     1      45.288   4.647  13.227  0.00  0.00    +0.000 N 
ATOM     20  C   UNL     1      45.415   3.338  12.603  0.00  0.00    +0.000 C 
ATOM     21  C   UNL     1      45.135   3.428  11.108  0.00  0.00    +0.000 C 
ATOM     22  C   UNL     1      43.836   4.178  10.809  0.00  0.00    +0.000 C 
ATOM     23  C   UNL     1      43.781   5.528  11.518  0.00  0.00    +0.000 C 
ATOM     24  C   UNL     1      44.054   5.393  13.011  0.00  0.00    +0.000 C 
BRANCH  22  25
ATOM     25  O   UNL     1      42.697   3.387  11.158  0.00  0.00    +0.000 OA
ATOM     26  H   UNL     1      42.988   2.638  11.704  0.00  0.00    +0.000 HD
ENDBRANCH  22  25
ENDBRANCH  17  19
ENDBRANCH   8  13
BRANCH   1  28
ATOM     27  N   UNL     1      55.565  10.854   8.241  0.00  0.00    +0.000 NA
ATOM     28  C   UNL     1      54.732  10.353   8.883  0.00  0.00    +0.000 C 
ENDBRANCH   1  28
TORSDOF 4
ENDMDL
MODEL 5
REMARK VINA RESULT:    -5.102      2.120      2.549
REMARK INTER + INTRA:          -6.684
REMARK INTER:                  -6.419
REMARK INTRA:                  -0.265
REMARK UNBOUND:                -0.538
REMARK  Name = 
REMARK  4 active torsions:
REMARK  status: ('A' for Active; 'I' for Inactive)
REMARK    1  A    between atoms: C_2  and  C_3
REMARK    2  A    between atoms: C_10  and  C_11
REMARK    3  A    between atoms: C_15  and  N_16
REMARK    4  A    between atoms: C_19  and  O_20
REMARK                            x       y       z     vdW  Elec       q    Type
REMARK                         _______ _______ _______ _____ _____    ______ ____
ROOT
ATOM      1  C   UNL     1      53.308   7.140  15.998  0.00  0.00    +0.000 A 
ATOM      2  C   UNL     1      52.082   6.871  16.590  0.00  0.00    +0.000 A 
ATOM      3  C   UNL     1      50.915   7.205  15.907  0.00  0.00    +0.000 A 
ATOM      4  C   UNL     1      50.984   7.798  14.645  0.00  0.00    +0.000 A 
ATOM      5  N   UNL     1      49.842   8.189  13.986  0.00  0.00    +0.000 N 
ATOM      6  C   UNL     1      49.794   8.113  12.529  0.00  0.00    +0.000 C 
ATOM      7  C   UNL     1      49.380   9.449  11.920  0.00  0.00    +0.000 C 
ATOM      8  C   UNL     1      48.139  10.060  12.585  0.00  0.00    +0.000 C 
ATOM      9  C   UNL     1      48.349  10.133  14.100  0.00  0.00    +0.000 C 
ATOM     10  C   UNL     1      48.737   8.794  14.717  0.00  0.00    +0.000 C 
ATOM     11  N   UNL     1      52.179   8.024  14.058  0.00  0.00    +0.000 NA
ATOM     12  C   UNL     1      53.306   7.709  14.737  0.00  0.00    +0.000 A 
ENDROOT
BRANCH   8  13
ATOM     13  C   UNL     1      46.828   9.385  12.184  0.00  0.00    +0.000 A 
ATOM     14  C   UNL     1      45.734  10.174  11.839  0.00  0.00    +0.000 A 
ATOM     15  C   UNL     1      44.562   9.555  11.431  0.00  0.00    +0.000 A 
ATOM     16  C   UNL     1      44.522   8.172  11.371  0.00  0.00    +0.000 A 
ATOM     17  C   UNL     1      45.634   7.416  11.732  0.00  0.00    +0.000 A 
ATOM     18  N   UNL     1      46.768   8.027  12.158  0.00  0.00    +0.000 NA
BRANCH  17  19
ATOM     19  N   UNL     1      45.572   6.037  11.664  0.00  0.00    +0.000 N 
ATOM     20  C   UNL     1      45.292   5.373  10.400  0.00  0.00    +0.000 C 
ATOM     21  C   UNL     1      44.022   4.537  10.504  0.00  0.00    +0.000 C 
ATOM     22  C   UNL     1      44.026   3.633  11.738  0.00  0.00    +0.000 C 
ATOM     23  C   UNL     1      44.347   4.409  13.013  0.00  0.00    +0.000 C 
ATOM     24  C   UNL     1      45.629   5.221  12.871  0.00  0.00    +0.000 C 
BRANCH  22  25
ATOM     25  O   UNL     1      44.943   2.548  11.575  0.00  0.00    +0.000 OA
ATOM     26  H   UNL     1      45.341   2.337  12.437  0.00  0.00    +0.000 HD
ENDBRANCH  22  25
ENDBRANCH  17  19
ENDBRANCH   8  13
BRANCH   1  28
ATOM     27  N   UNL     1      55.536   6.626  17.209  0.00  0.00    +0.000 NA
ATOM     28  C   UNL     1      54.531   6.854  16.665  0.00  0.00    +0.000 C 
ENDBRANCH   1  28
TORSDOF 4
ENDMDL
MODEL 6
REMARK VINA RESULT:    -5.064      4.311      7.922
REMARK INTER + INTRA:          -6.638
REMARK INTER:                  -6.304
REMARK INTRA:                  -0.334
REMARK UNBOUND:                -0.538
REMARK  Name = 
REMARK  4 active torsions:
REMARK  status: ('A' for Active; 'I' for Inactive)
REMARK    1  A    between atoms: C_2  and  C_3
REMARK    2  A    between atoms: C_10  and  C_11
REMARK    3  A    between atoms: C_15  and  N_16
REMARK    4  A    between atoms: C_19  and  O_20
REMARK                            x       y       z     vdW  Elec       q    Type
REMARK                         _______ _______ _______ _____ _____    ______ ____
ROOT
ATOM      1  C   UNL     1      44.828   3.983  11.896  0.00  0.00    +0.000 A 
ATOM      2  C   UNL     1      44.868   5.032  10.987  0.00  0.00    +0.000 A 
ATOM      3  C   UNL     1      45.842   6.016  11.135  0.00  0.00    +0.000 A 
ATOM      4  C   UNL     1      46.765   5.941  12.180  0.00  0.00    +0.000 A 
ATOM      5  N   UNL     1      47.693   6.937  12.374  0.00  0.00    +0.000 N 
ATOM      6  C   UNL     1      49.012   6.594  12.898  0.00  0.00    +0.000 C 
ATOM      7  C   UNL     1      49.355   7.438  14.122  0.00  0.00    +0.000 C 
ATOM      8  C   UNL     1      49.103   8.939  13.914  0.00  0.00    +0.000 C 
ATOM      9  C   UNL     1      47.669   9.156  13.421  0.00  0.00    +0.000 C 
ATOM     10  C   UNL     1      47.330   8.334  12.182  0.00  0.00    +0.000 C 
ATOM     11  N   UNL     1      46.745   4.899  13.039  0.00  0.00    +0.000 NA
ATOM     12  C   UNL     1      45.785   3.957  12.895  0.00  0.00    +0.000 A 
ENDROOT
BRANCH   8  13
ATOM     13  C   UNL     1      50.156   9.628  13.049  0.00  0.00    +0.000 A 
ATOM     14  C   UNL     1      50.573  10.915  13.381  0.00  0.00    +0.000 A 
ATOM     15  C   UNL     1      51.563  11.516  12.619  0.00  0.00    +0.000 A 
ATOM     16  C   UNL     1      52.111  10.814  11.558  0.00  0.00    +0.000 A 
ATOM     17  C   UNL     1      51.662   9.533  11.251  0.00  0.00    +0.000 A 
ATOM     18  N   UNL     1      50.672   8.961  11.983  0.00  0.00    +0.000 NA
BRANCH  17  19
ATOM     19  N   UNL     1      52.221   8.849  10.189  0.00  0.00    +0.000 N 
ATOM     20  C   UNL     1      52.025   7.414  10.050  0.00  0.00    +0.000 C 
ATOM     21  C   UNL     1      53.364   6.685  10.073  0.00  0.00    +0.000 C 
ATOM     22  C   UNL     1      54.376   7.310   9.111  0.00  0.00    +0.000 C 
ATOM     23  C   UNL     1      54.503   8.817   9.314  0.00  0.00    +0.000 C 
ATOM     24  C   UNL     1      53.145   9.508   9.273  0.00  0.00    +0.000 C 
BRANCH  22  25
ATOM     25  O   UNL     1      54.036   7.020   7.752  0.00  0.00    +0.000 OA
ATOM     26  H   UNL     1      53.887   6.063   7.661  0.00  0.00    +0.000 HD
ENDBRANCH  22  25
ENDBRANCH  17  19
ENDBRANCH   8  13
BRANCH   1  28
ATOM     27  N   UNL     1      43.018   2.140  11.756  0.00  0.00    +0.000 NA
ATOM     28  C   UNL     1      43.832   2.971  11.815  0.00  0.00    +0.000 C 
ENDBRANCH   1  28
TORSDOF 4
ENDMDL
MODEL 7
REMARK VINA RESULT:    -4.350     11.172     12.586
REMARK INTER + INTRA:          -5.778
REMARK INTER:                  -5.189
REMARK INTRA:                  -0.589
REMARK UNBOUND:                -0.538
REMARK  Name = 
REMARK  4 active torsions:
REMARK  status: ('A' for Active; 'I' for Inactive)
REMARK    1  A    between atoms: C_2  and  C_3
REMARK    2  A    between atoms: C_10  and  C_11
REMARK    3  A    between atoms: C_15  and  N_16
REMARK    4  A    between atoms: C_19  and  O_20
REMARK                            x       y       z     vdW  Elec       q    Type
REMARK                         _______ _______ _______ _____ _____    ______ ____
ROOT
ATOM      1  C   UNL     1      36.781   3.650  18.717  0.00  0.00    +0.000 A 
ATOM      2  C   UNL     1      38.140   3.532  18.461  0.00  0.00    +0.000 A 
ATOM      3  C   UNL     1      38.587   2.489  17.652  0.00  0.00    +0.000 A 
ATOM      4  C   UNL     1      37.675   1.583  17.107  0.00  0.00    +0.000 A 
ATOM      5  N   UNL     1      38.107   0.513  16.358  0.00  0.00    +0.000 N 
ATOM      6  C   UNL     1      37.281   0.031  15.254  0.00  0.00    +0.000 C 
ATOM      7  C   UNL     1      37.017  -1.466  15.376  0.00  0.00    +0.000 C 
ATOM      8  C   UNL     1      38.286  -2.286  15.650  0.00  0.00    +0.000 C 
ATOM      9  C   UNL     1      39.021  -1.707  16.863  0.00  0.00    +0.000 C 
ATOM     10  C   UNL     1      39.310  -0.216  16.734  0.00  0.00    +0.000 C 
ATOM     11  N   UNL     1      36.350   1.724  17.329  0.00  0.00    +0.000 NA
ATOM     12  C   UNL     1      35.930   2.731  18.128  0.00  0.00    +0.000 A 
ENDROOT
BRANCH   8  13
ATOM     13  C   UNL     1      39.181  -2.466  14.425  0.00  0.00    +0.000 A 
ATOM     14  C   UNL     1      40.482  -2.933  14.595  0.00  0.00    +0.000 A 
ATOM     15  C   UNL     1      41.272  -3.139  13.474  0.00  0.00    +0.000 A 
ATOM     16  C   UNL     1      40.739  -2.881  12.223  0.00  0.00    +0.000 A 
ATOM     17  C   UNL     1      39.438  -2.406  12.092  0.00  0.00    +0.000 A 
ATOM     18  N   UNL     1      38.678  -2.179  13.194  0.00  0.00    +0.000 NA
BRANCH  17  19
ATOM     19  N   UNL     1      38.925  -2.155  10.834  0.00  0.00    +0.000 N 
ATOM     20  C   UNL     1      38.114  -0.971  10.591  0.00  0.00    +0.000 C 
ATOM     21  C   UNL     1      36.723  -1.365  10.107  0.00  0.00    +0.000 C 
ATOM     22  C   UNL     1      36.777  -2.375   8.960  0.00  0.00    +0.000 C 
ATOM     23  C   UNL     1      37.663  -3.572   9.295  0.00  0.00    +0.000 C 
ATOM     24  C   UNL     1      39.046  -3.136   9.762  0.00  0.00    +0.000 C 
BRANCH  22  25
ATOM     25  O   UNL     1      37.219  -1.754   7.751  0.00  0.00    +0.000 OA
ATOM     26  H   UNL     1      37.243  -0.791   7.881  0.00  0.00    +0.000 HD
ENDBRANCH  22  25
ENDBRANCH  17  19
ENDBRANCH   8  13
BRANCH   1  28
ATOM     27  N   UNL     1      35.850   5.507  20.258  0.00  0.00    +0.000 NA
ATOM     28  C   UNL     1      36.273   4.673  19.564  0.00  0.00    +0.000 C 
ENDBRANCH   1  28
TORSDOF 4
ENDMDL
MODEL 8
REMARK VINA RESULT:    -4.271      3.943      8.030
REMARK INTER + INTRA:          -5.683
REMARK INTER:                  -5.366
REMARK INTRA:                  -0.317
REMARK UNBOUND:                -0.538
REMARK  Name = 
REMARK  4 active torsions:
REMARK  status: ('A' for Active; 'I' for Inactive)
REMARK    1  A    between atoms: C_2  and  C_3
REMARK    2  A    between atoms: C_10  and  C_11
REMARK    3  A    between atoms: C_15  and  N_16
REMARK    4  A    between atoms: C_19  and  O_20
REMARK                            x       y       z     vdW  Elec       q    Type
REMARK                         _______ _______ _______ _____ _____    ______ ____
ROOT
ATOM      1  C   UNL     1      45.277   4.745  11.856  0.00  0.00    +0.000 A 
ATOM      2  C   UNL     1      45.894   5.774  11.159  0.00  0.00    +0.000 A 
ATOM      3  C   UNL     1      46.850   6.552  11.809  0.00  0.00    +0.000 A 
ATOM      4  C   UNL     1      47.180   6.291  13.140  0.00  0.00    +0.000 A 
ATOM      5  N   UNL     1      48.076   7.088  13.813  0.00  0.00    +0.000 N 
ATOM      6  C   UNL     1      48.943   6.494  14.827  0.00  0.00    +0.000 C 
ATOM      7  C   UNL     1      48.839   7.246  16.151  0.00  0.00    +0.000 C 
ATOM      8  C   UNL     1      48.962   8.768  15.995  0.00  0.00    +0.000 C 
ATOM      9  C   UNL     1      47.960   9.262  14.946  0.00  0.00    +0.000 C 
ATOM     10  C   UNL     1      48.078   8.531  13.614  0.00  0.00    +0.000 C 
ATOM     11  N   UNL     1      46.603   5.265  13.802  0.00  0.00    +0.000 NA
ATOM     12  C   UNL     1      45.666   4.527  13.165  0.00  0.00    +0.000 A 
ENDROOT
BRANCH   8  13
ATOM     13  C   UNL     1      50.390   9.250  15.746  0.00  0.00    +0.000 A 
ATOM     14  C   UNL     1      51.181   9.621  16.830  0.00  0.00    +0.000 A 
ATOM     15  C   UNL     1      52.491  10.013  16.601  0.00  0.00    +0.000 A 
ATOM     16  C   UNL     1      52.973  10.013  15.303  0.00  0.00    +0.000 A 
ATOM     17  C   UNL     1      52.149   9.644  14.243  0.00  0.00    +0.000 A 
ATOM     18  N   UNL     1      50.859   9.289  14.471  0.00  0.00    +0.000 NA
BRANCH  17  19
ATOM     19  N   UNL     1      52.649   9.651  12.955  0.00  0.00    +0.000 N 
ATOM     20  C   UNL     1      52.667  10.882  12.179  0.00  0.00    +0.000 C 
ATOM     21  C   UNL     1      51.841  10.725  10.907  0.00  0.00    +0.000 C 
ATOM     22  C   UNL     1      52.202   9.454  10.138  0.00  0.00    +0.000 C 
ATOM     23  C   UNL     1      52.177   8.218  11.034  0.00  0.00    +0.000 C 
ATOM     24  C   UNL     1      53.023   8.411  12.286  0.00  0.00    +0.000 C 
BRANCH  22  25
ATOM     25  O   UNL     1      53.479   9.582   9.508  0.00  0.00    +0.000 OA
ATOM     26  H   UNL     1      53.891  10.416   9.794  0.00  0.00    +0.000 HD
ENDBRANCH  22  25
ENDBRANCH  17  19
ENDBRANCH   8  13
BRANCH   1  28
ATOM     27  N   UNL     1      43.444   3.281  10.764  0.00  0.00    +0.000 NA
ATOM     28  C   UNL     1      44.268   3.943  11.253  0.00  0.00    +0.000 C 
ENDBRANCH   1  28
TORSDOF 4
ENDMDL
