MODEL 1
REMARK VINA RESULT:    -7.971      0.000      0.000
REMARK INTER + INTRA:          -9.990
REMARK INTER:                  -9.835
REMARK INTRA:                  -0.155
REMARK UNBOUND:                -0.155
REMARK  Name = 
REMARK  4 active torsions:
REMARK  status: ('A' for Active; 'I' for Inactive)
REMARK    1  A    between atoms: C_2  and  C_4
REMARK    2  A    between atoms: C_7  and  O_8
REMARK    3  A    between atoms: O_8  and  C_9
REMARK    4  A    between atoms: C_9  and  C_10
REMARK                            x       y       z     vdW  Elec       q    Type
REMARK                         _______ _______ _______ _____ _____    ______ ____
ROOT
ATOM      1  C   UNL     1      46.625   2.800   7.423  0.00  0.00    +0.000 A 
ATOM      2  C   UNL     1      45.990   1.977   8.318  0.00  0.00    +0.000 A 
ATOM      3  N   UNL     1      45.151   2.434   9.267  0.00  0.00    +0.000 NA
ATOM      4  C   UNL     1      44.993   3.772   9.333  0.00  0.00    +0.000 A 
ATOM      5  N   UNL     1      45.635   4.666   8.566  0.00  0.00    +0.000 NA
ATOM      6  C   UNL     1      46.451   4.151   7.620  0.00  0.00    +0.000 A 
ENDROOT
BRANCH   1   8
ATOM      7  N   UNL     1      47.283   3.028   5.108  0.00  0.00    +0.000 N 
ATOM      8  C   UNL     1      47.385   2.308   6.264  0.00  0.00    +0.000 C 
ATOM      9  O   UNL     1      48.139   1.345   6.360  0.00  0.00    +0.000 OA
ATOM     10  H   UNL     1      47.944   2.778   4.374  0.00  0.00    +0.000 HD
ATOM     11  H   UNL     1      46.901   3.959   5.071  0.00  0.00    +0.000 HD
ENDBRANCH   1   8
BRANCH   4  12
ATOM     12  O   UNL     1      43.824   4.165   9.935  0.00  0.00    +0.000 OA
BRANCH  12  13
ATOM     13  C   UNL     1      43.917   5.039  11.083  0.00  0.00    +0.000 C 
ATOM     14  C   UNL     1      42.537   5.126  11.731  0.00  0.00    +0.000 C 
ATOM     15  C   UNL     1      43.165   6.352  11.167  0.00  0.00    +0.000 C 
BRANCH  13  16
ATOM     16  C   UNL     1      45.123   4.783  11.958  0.00  0.00    +0.000 A 
ATOM     17  C   UNL     1      46.008   5.826  12.271  0.00  0.00    +0.000 A 
ATOM     18  C   UNL     1      47.010   5.653  13.221  0.00  0.00    +0.000 A 
ATOM     19  C   UNL     1      47.128   4.414  13.824  0.00  0.00    +0.000 A 
ATOM     20  N   UNL     1      46.343   3.360  13.523  0.00  0.00    +0.000 NA
ATOM     21  C   UNL     1      45.363   3.572  12.609  0.00  0.00    +0.000 A 
ENDBRANCH  13  16
ENDBRANCH  12  13
ENDBRANCH   4  12
TORSDOF 4
ENDMDL
MODEL 2
REMARK VINA RESULT:    -7.362      0.966      1.514
REMARK INTER + INTRA:          -9.239
REMARK INTER:                  -9.345
REMARK INTRA:                   0.106
REMARK UNBOUND:                -0.155
REMARK  Name = 
REMARK  4 active torsions:
REMARK  status: ('A' for Active; 'I' for Inactive)
REMARK    1  A    between atoms: C_2  and  C_4
REMARK    2  A    between atoms: C_7  and  O_8
REMARK    3  A    between atoms: O_8  and  C_9
REMARK    4  A    between atoms: C_9  and  C_10
REMARK                            x       y       z     vdW  Elec       q    Type
REMARK                         _______ _______ _______ _____ _____    ______ ____
ROOT
ATOM      1  C   UNL     1      46.379   2.651   7.640  0.00  0.00    +0.000 A 
ATOM      2  C   UNL     1      45.990   3.912   8.016  0.00  0.00    +0.000 A 
ATOM      3  N   UNL     1      45.173   4.147   9.060  0.00  0.00    +0.000 NA
ATOM      4  C   UNL     1      44.705   3.062   9.711  0.00  0.00    +0.000 A 
ATOM      5  N   UNL     1      44.953   1.788   9.370  0.00  0.00    +0.000 NA
ATOM      6  C   UNL     1      45.791   1.611   8.324  0.00  0.00    +0.000 A 
ENDROOT
BRANCH   1   8
ATOM      7  N   UNL     1      47.428   3.196   5.531  0.00  0.00    +0.000 N 
ATOM      8  C   UNL     1      47.417   2.387   6.632  0.00  0.00    +0.000 C 
ATOM      9  O   UNL     1      48.280   1.536   6.816  0.00  0.00    +0.000 OA
ATOM     10  H   UNL     1      48.249   3.114   4.933  0.00  0.00    +0.000 HD
ATOM     11  H   UNL     1      46.917   4.062   5.479  0.00  0.00    +0.000 HD
ENDBRANCH   1   8
BRANCH   4  12
ATOM     12  O   UNL     1      44.307   3.314  11.000  0.00  0.00    +0.000 OA
BRANCH  12  13
ATOM     13  C   UNL     1      44.298   4.690  11.445  0.00  0.00    +0.000 C 
ATOM     14  C   UNL     1      43.044   4.912  12.287  0.00  0.00    +0.000 C 
ATOM     15  C   UNL     1      43.226   5.674  11.021  0.00  0.00    +0.000 C 
BRANCH  13  16
ATOM     16  C   UNL     1      45.630   5.178  11.970  0.00  0.00    +0.000 A 
ATOM     17  C   UNL     1      46.183   6.378  11.498  0.00  0.00    +0.000 A 
ATOM     18  C   UNL     1      47.306   6.934  12.102  0.00  0.00    +0.000 A 
ATOM     19  C   UNL     1      47.880   6.254  13.160  0.00  0.00    +0.000 A 
ATOM     20  N   UNL     1      47.426   5.070  13.620  0.00  0.00    +0.000 NA
ATOM     21  C   UNL     1      46.316   4.570  13.023  0.00  0.00    +0.000 A 
ENDBRANCH  13  16
ENDBRANCH  12  13
ENDBRANCH   4  12
TORSDOF 4
ENDMDL
MODEL 3
REMARK VINA RESULT:    -6.500      2.753      6.435
REMARK INTER + INTRA:          -8.175
REMARK INTER:                  -8.002
REMARK INTRA:                  -0.173
REMARK UNBOUND:                -0.155
REMARK  Name = 
REMARK  4 active torsions:
REMARK  status: ('A' for Active; 'I' for Inactive)
REMARK    1  A    between atoms: C_2  and  C_4
REMARK    2  A    between atoms: C_7  and  O_8
REMARK    3  A    between atoms: O_8  and  C_9
REMARK    4  A    between atoms: C_9  and  C_10
REMARK                            x       y       z     vdW  Elec       q    Type
REMARK                         _______ _______ _______ _____ _____    ______ ____
ROOT
ATOM      1  C   UNL     1      47.737   5.417  14.997  0.00  0.00    +0.000 A 
ATOM      2  C   UNL     1      47.876   6.362  14.014  0.00  0.00    +0.000 A 
ATOM      3  N   UNL     1      47.067   6.428  12.939  0.00  0.00    +0.000 NA
ATOM      4  C   UNL     1      46.118   5.474  12.844  0.00  0.00    +0.000 A 
ATOM      5  N   UNL     1      45.955   4.457  13.703  0.00  0.00    +0.000 NA
ATOM      6  C   UNL     1      46.784   4.449  14.771  0.00  0.00    +0.000 A 
ENDROOT
BRANCH   1   8
ATOM      7  N   UNL     1      48.290   6.537  17.067  0.00  0.00    +0.000 N 
ATOM      8  C   UNL     1      48.481   5.447  16.266  0.00  0.00    +0.000 C 
ATOM      9  O   UNL     1      49.172   4.498  16.620  0.00  0.00    +0.000 OA
ATOM     10  H   UNL     1      48.672   6.463  18.008  0.00  0.00    +0.000 HD
ATOM     11  H   UNL     1      47.535   7.191  16.937  0.00  0.00    +0.000 HD
ENDBRANCH   1   8
BRANCH   4  12
ATOM     12  O   UNL     1      45.049   5.829  12.060  0.00  0.00    +0.000 OA
BRANCH  12  13
ATOM     13  C   UNL     1      44.274   4.767  11.457  0.00  0.00    +0.000 C 
ATOM     14  C   UNL     1      42.814   5.212  11.404  0.00  0.00    +0.000 C 
ATOM     15  C   UNL     1      43.192   4.021  12.213  0.00  0.00    +0.000 C 
BRANCH  13  16
ATOM     16  C   UNL     1      44.904   4.169  10.220  0.00  0.00    +0.000 A 
ATOM     17  C   UNL     1      44.829   2.788   9.981  0.00  0.00    +0.000 A 
ATOM     18  C   UNL     1      45.234   2.250   8.764  0.00  0.00    +0.000 A 
ATOM     19  C   UNL     1      45.744   3.110   7.809  0.00  0.00    +0.000 A 
ATOM     20  N   UNL     1      45.892   4.436   8.003  0.00  0.00    +0.000 NA
ATOM     21  C   UNL     1      45.465   4.930   9.192  0.00  0.00    +0.000 A 
ENDBRANCH  13  16
ENDBRANCH  12  13
ENDBRANCH   4  12
TORSDOF 4
ENDMDL
MODEL 4
REMARK VINA RESULT:    -6.414      2.690      6.156
REMARK INTER + INTRA:          -8.069
REMARK INTER:                  -7.959
REMARK INTRA:                  -0.110
REMARK UNBOUND:                -0.155
REMARK  Name = 
REMARK  4 active torsions:
REMARK  status: ('A' for Active; 'I' for Inactive)
REMARK    1  A    between atoms: C_2  and  C_4
REMARK    2  A    between atoms: C_7  and  O_8
REMARK    3  A    between atoms: O_8  and  C_9
REMARK    4  A    between atoms: C_9  and  C_10
REMARK                            x       y       z     vdW  Elec       q    Type
REMARK                         _______ _______ _______ _____ _____    ______ ____
ROOT
ATOM      1  C   UNL     1      47.923   6.054  14.263  0.00  0.00    +0.000 A 
ATOM      2  C   UNL     1      47.946   6.755  13.085  0.00  0.00    +0.000 A 
ATOM      3  N   UNL     1      47.055   6.555  12.095  0.00  0.00    +0.000 NA
ATOM      4  C   UNL     1      46.144   5.580  12.297  0.00  0.00    +0.000 A 
ATOM      5  N   UNL     1      46.092   4.781  13.373  0.00  0.00    +0.000 NA
ATOM      6  C   UNL     1      47.000   5.037  14.341  0.00  0.00    +0.000 A 
ENDROOT
BRANCH   1   8
ATOM      7  N   UNL     1      48.168   6.318  16.655  0.00  0.00    +0.000 N 
ATOM      8  C   UNL     1      48.760   6.391  15.426  0.00  0.00    +0.000 C 
ATOM      9  O   UNL     1      49.953   6.643  15.298  0.00  0.00    +0.000 OA
ATOM     10  H   UNL     1      48.799   6.383  17.451  0.00  0.00    +0.000 HD
ATOM     11  H   UNL     1      47.286   5.858  16.814  0.00  0.00    +0.000 HD
ENDBRANCH   1   8
BRANCH   4  12
ATOM     12  O   UNL     1      45.004   5.720  11.546  0.00  0.00    +0.000 OA
BRANCH  12  13
ATOM     13  C   UNL     1      44.281   4.519  11.188  0.00  0.00    +0.000 C 
ATOM     14  C   UNL     1      42.786   4.809  11.305  0.00  0.00    +0.000 C 
ATOM     15  C   UNL     1      43.406   3.774  12.177  0.00  0.00    +0.000 C 
BRANCH  13  16
ATOM     16  C   UNL     1      44.800   3.832   9.946  0.00  0.00    +0.000 A 
ATOM     17  C   UNL     1      45.394   4.578   8.917  0.00  0.00    +0.000 A 
ATOM     18  C   UNL     1      46.043   3.947   7.860  0.00  0.00    +0.000 A 
ATOM     19  C   UNL     1      46.058   2.565   7.837  0.00  0.00    +0.000 A 
ATOM     20  N   UNL     1      45.456   1.797   8.767  0.00  0.00    +0.000 NA
ATOM     21  C   UNL     1      44.853   2.445   9.795  0.00  0.00    +0.000 A 
ENDBRANCH  13  16
ENDBRANCH  12  13
ENDBRANCH   4  12
TORSDOF 4
ENDMDL
MODEL 5
REMARK VINA RESULT:    -6.332      3.969      7.635
REMARK INTER + INTRA:          -7.968
REMARK INTER:                  -7.618
REMARK INTRA:                  -0.350
REMARK UNBOUND:                -0.155
REMARK  Name = 
REMARK  4 active torsions:
REMARK  status: ('A' for Active; 'I' for Inactive)
REMARK    1  A    between atoms: C_2  and  C_4
REMARK    2  A    between atoms: C_7  and  O_8
REMARK    3  A    between atoms: O_8  and  C_9
REMARK    4  A    between atoms: C_9  and  C_10
REMARK                            x       y       z     vdW  Elec       q    Type
REMARK                         _______ _______ _______ _____ _____    ______ ____
ROOT
ATOM      1  C   UNL     1      48.323   4.513  17.516  0.00  0.00    +0.000 A 
ATOM      2  C   UNL     1      47.306   3.859  16.871  0.00  0.00    +0.000 A 
ATOM      3  N   UNL     1      46.934   4.144  15.608  0.00  0.00    +0.000 NA
ATOM      4  C   UNL     1      47.591   5.156  15.004  0.00  0.00    +0.000 A 
ATOM      5  N   UNL     1      48.538   5.915  15.577  0.00  0.00    +0.000 NA
ATOM      6  C   UNL     1      48.882   5.574  16.840  0.00  0.00    +0.000 A 
ENDROOT
BRANCH   1   8
ATOM      7  N   UNL     1      48.270   3.016  19.415  0.00  0.00    +0.000 N 
ATOM      8  C   UNL     1      48.869   4.088  18.814  0.00  0.00    +0.000 C 
ATOM      9  O   UNL     1      49.866   4.620  19.290  0.00  0.00    +0.000 OA
ATOM     10  H   UNL     1      48.763   2.630  20.218  0.00  0.00    +0.000 HD
ATOM     11  H   UNL     1      47.639   2.397  18.932  0.00  0.00    +0.000 HD
ENDBRANCH   1   8
BRANCH   4  12
ATOM     12  O   UNL     1      47.553   5.106  13.633  0.00  0.00    +0.000 OA
BRANCH  12  13
ATOM     13  C   UNL     1      46.536   5.882  12.959  0.00  0.00    +0.000 C 
ATOM     14  C   UNL     1      47.211   6.709  11.868  0.00  0.00    +0.000 C 
ATOM     15  C   UNL     1      46.517   7.397  12.990  0.00  0.00    +0.000 C 
BRANCH  13  16
ATOM     16  C   UNL     1      45.286   5.101  12.621  0.00  0.00    +0.000 A 
ATOM     17  C   UNL     1      44.024   5.708  12.708  0.00  0.00    +0.000 A 
ATOM     18  C   UNL     1      42.888   5.068  12.223  0.00  0.00    +0.000 A 
ATOM     19  C   UNL     1      43.034   3.804  11.681  0.00  0.00    +0.000 A 
ATOM     20  N   UNL     1      44.211   3.149  11.622  0.00  0.00    +0.000 NA
ATOM     21  C   UNL     1      45.301   3.813  12.083  0.00  0.00    +0.000 A 
ENDBRANCH  13  16
ENDBRANCH  12  13
ENDBRANCH   4  12
TORSDOF 4
ENDMDL
MODEL 6
REMARK VINA RESULT:    -5.983      4.230      6.841
REMARK INTER + INTRA:          -7.537
REMARK INTER:                  -7.468
REMARK INTRA:                  -0.069
REMARK UNBOUND:                -0.155
REMARK  Name = 
REMARK  4 active torsions:
REMARK  status: ('A' for Active; 'I' for Inactive)
REMARK    1  A    between atoms: C_2  and  C_4
REMARK    2  A    between atoms: C_7  and  O_8
REMARK    3  A    between atoms: O_8  and  C_9
REMARK    4  A    between atoms: C_9  and  C_10
REMARK                            x       y       z     vdW  Elec       q    Type
REMARK                         _______ _______ _______ _____ _____    ______ ____
ROOT
ATOM      1  C   UNL     1      46.247   5.972  12.741  0.00  0.00    +0.000 A 
ATOM      2  C   UNL     1      47.453   6.151  13.370  0.00  0.00    +0.000 A 
ATOM      3  N   UNL     1      47.891   5.349  14.359  0.00  0.00    +0.000 NA
ATOM      4  C   UNL     1      47.054   4.364  14.746  0.00  0.00    +0.000 A 
ATOM      5  N   UNL     1      45.822   4.159  14.258  0.00  0.00    +0.000 NA
ATOM      6  C   UNL     1      45.440   4.983  13.257  0.00  0.00    +0.000 A 
ENDROOT
BRANCH   1   8
ATOM      7  N   UNL     1      45.532   5.972  10.431  0.00  0.00    +0.000 N 
ATOM      8  C   UNL     1      45.840   6.712  11.537  0.00  0.00    +0.000 C 
ATOM      9  O   UNL     1      45.704   7.931  11.556  0.00  0.00    +0.000 OA
ATOM     10  H   UNL     1      45.090   6.482   9.669  0.00  0.00    +0.000 HD
ATOM     11  H   UNL     1      45.370   4.978  10.462  0.00  0.00    +0.000 HD
ENDBRANCH   1   8
BRANCH   4  12
ATOM     12  O   UNL     1      47.682   3.311  15.365  0.00  0.00    +0.000 OA
BRANCH  12  13
ATOM     13  C   UNL     1      48.101   3.490  16.738  0.00  0.00    +0.000 C 
ATOM     14  C   UNL     1      47.005   2.938  17.647  0.00  0.00    +0.000 C 
ATOM     15  C   UNL     1      47.351   4.384  17.705  0.00  0.00    +0.000 C 
BRANCH  13  16
ATOM     16  C   UNL     1      49.537   3.101  17.001  0.00  0.00    +0.000 A 
ATOM     17  C   UNL     1      50.422   4.010  17.601  0.00  0.00    +0.000 A 
ATOM     18  C   UNL     1      51.685   3.608  18.021  0.00  0.00    +0.000 A 
ATOM     19  C   UNL     1      52.057   2.295  17.800  0.00  0.00    +0.000 A 
ATOM     20  N   UNL     1      51.272   1.391  17.179  0.00  0.00    +0.000 NA
ATOM     21  C   UNL     1      50.038   1.812  16.804  0.00  0.00    +0.000 A 
ENDBRANCH  13  16
ENDBRANCH  12  13
ENDBRANCH   4  12
TORSDOF 4
ENDMDL
MODEL 7
REMARK VINA RESULT:    -5.896      3.076      5.966
REMARK INTER + INTRA:          -7.429
REMARK INTER:                  -7.508
REMARK INTRA:                   0.079
REMARK UNBOUND:                -0.155
REMARK  Name = 
REMARK  4 active torsions:
REMARK  status: ('A' for Active; 'I' for Inactive)
REMARK    1  A    between atoms: C_2  and  C_4
REMARK    2  A    between atoms: C_7  and  O_8
REMARK    3  A    between atoms: O_8  and  C_9
REMARK    4  A    between atoms: C_9  and  C_10
REMARK                            x       y       z     vdW  Elec       q    Type
REMARK                         _______ _______ _______ _____ _____    ______ ____
ROOT
ATOM      1  C   UNL     1      46.436   8.165  12.153  0.00  0.00    +0.000 A 
ATOM      2  C   UNL     1      47.031   6.987  11.781  0.00  0.00    +0.000 A 
ATOM      3  N   UNL     1      46.340   5.935  11.301  0.00  0.00    +0.000 NA
ATOM      4  C   UNL     1      45.000   6.076  11.242  0.00  0.00    +0.000 A 
ATOM      5  N   UNL     1      44.315   7.150  11.663  0.00  0.00    +0.000 NA
ATOM      6  C   UNL     1      45.060   8.182  12.120  0.00  0.00    +0.000 A 
ENDROOT
BRANCH   1   8
ATOM      7  N   UNL     1      46.498  10.563  12.459  0.00  0.00    +0.000 N 
ATOM      8  C   UNL     1      47.187   9.384  12.492  0.00  0.00    +0.000 C 
ATOM      9  O   UNL     1      48.354   9.328  12.868  0.00  0.00    +0.000 OA
ATOM     10  H   UNL     1      46.981  11.365  12.860  0.00  0.00    +0.000 HD
ATOM     11  H   UNL     1      45.493  10.612  12.424  0.00  0.00    +0.000 HD
ENDBRANCH   1   8
BRANCH   4  12
ATOM     12  O   UNL     1      44.392   5.242  10.337  0.00  0.00    +0.000 OA
BRANCH  12  13
ATOM     13  C   UNL     1      44.678   3.827  10.427  0.00  0.00    +0.000 C 
ATOM     14  C   UNL     1      43.475   3.135  11.063  0.00  0.00    +0.000 C 
ATOM     15  C   UNL     1      44.793   3.104  11.754  0.00  0.00    +0.000 C 
BRANCH  13  16
ATOM     16  C   UNL     1      45.284   3.240   9.173  0.00  0.00    +0.000 A 
ATOM     17  C   UNL     1      45.699   4.075   8.124  0.00  0.00    +0.000 A 
ATOM     18  C   UNL     1      46.426   3.569   7.052  0.00  0.00    +0.000 A 
ATOM     19  C   UNL     1      46.701   2.214   7.033  0.00  0.00    +0.000 A 
ATOM     20  N   UNL     1      46.281   1.354   7.983  0.00  0.00    +0.000 NA
ATOM     21  C   UNL     1      45.595   1.886   9.025  0.00  0.00    +0.000 A 
ENDBRANCH  13  16
ENDBRANCH  12  13
ENDBRANCH   4  12
TORSDOF 4
ENDMDL
MODEL 8
REMARK VINA RESULT:    -5.831      4.047      7.132
REMARK INTER + INTRA:          -7.349
REMARK INTER:                  -7.014
REMARK INTRA:                  -0.335
REMARK UNBOUND:                -0.155
REMARK  Name = 
REMARK  4 active torsions:
REMARK  status: ('A' for Active; 'I' for Inactive)
REMARK    1  A    between atoms: C_2  and  C_4
REMARK    2  A    between atoms: C_7  and  O_8
REMARK    3  A    between atoms: O_8  and  C_9
REMARK    4  A    between atoms: C_9  and  C_10
REMARK                            x       y       z     vdW  Elec       q    Type
REMARK                         _______ _______ _______ _____ _____    ______ ____
ROOT
ATOM      1  C   UNL     1      47.847   4.974  16.409  0.00  0.00    +0.000 A 
ATOM      2  C   UNL     1      48.599   6.011  15.920  0.00  0.00    +0.000 A 
ATOM      3  N   UNL     1      48.626   6.346  14.615  0.00  0.00    +0.000 NA
ATOM      4  C   UNL     1      47.901   5.571  13.783  0.00  0.00    +0.000 A 
ATOM      5  N   UNL     1      47.205   4.483  14.147  0.00  0.00    +0.000 NA
ATOM      6  C   UNL     1      47.199   4.203  15.470  0.00  0.00    +0.000 A 
ENDROOT
BRANCH   1   8
ATOM      7  N   UNL     1      46.664   5.424  18.470  0.00  0.00    +0.000 N 
ATOM      8  C   UNL     1      47.653   4.717  17.845  0.00  0.00    +0.000 C 
ATOM      9  O   UNL     1      48.293   3.849  18.428  0.00  0.00    +0.000 OA
ATOM     10  H   UNL     1      46.429   5.113  19.411  0.00  0.00    +0.000 HD
ATOM     11  H   UNL     1      45.952   5.932  17.972  0.00  0.00    +0.000 HD
ENDBRANCH   1   8
BRANCH   4  12
ATOM     12  O   UNL     1      47.556   6.188  12.606  0.00  0.00    +0.000 OA
BRANCH  12  13
ATOM     13  C   UNL     1      46.278   6.862  12.549  0.00  0.00    +0.000 C 
ATOM     14  C   UNL     1      46.477   8.204  11.847  0.00  0.00    +0.000 C 
ATOM     15  C   UNL     1      46.019   8.174  13.263  0.00  0.00    +0.000 C 
BRANCH  13  16
ATOM     16  C   UNL     1      45.130   5.975  12.124  0.00  0.00    +0.000 A 
ATOM     17  C   UNL     1      45.204   5.238  10.932  0.00  0.00    +0.000 A 
ATOM     18  C   UNL     1      44.245   4.279  10.624  0.00  0.00    +0.000 A 
ATOM     19  C   UNL     1      43.200   4.095  11.510  0.00  0.00    +0.000 A 
ATOM     20  N   UNL     1      43.046   4.812  12.641  0.00  0.00    +0.000 NA
ATOM     21  C   UNL     1      44.012   5.722  12.921  0.00  0.00    +0.000 A 
ENDBRANCH  13  16
ENDBRANCH  12  13
ENDBRANCH   4  12
TORSDOF 4
ENDMDL
MODEL 9
REMARK VINA RESULT:    -5.692      3.895      6.465
REMARK INTER + INTRA:          -7.178
REMARK INTER:                  -6.832
REMARK INTRA:                  -0.345
REMARK UNBOUND:                -0.155
REMARK  Name = 
REMARK  4 active torsions:
REMARK  status: ('A' for Active; 'I' for Inactive)
REMARK    1  A    between atoms: C_2  and  C_4
REMARK    2  A    between atoms: C_7  and  O_8
REMARK    3  A    between atoms: O_8  and  C_9
REMARK    4  A    between atoms: C_9  and  C_10
REMARK                            x       y       z     vdW  Elec       q    Type
REMARK                         _______ _______ _______ _____ _____    ______ ____
ROOT
ATOM      1  C   UNL     1      45.642   5.251  12.212  0.00  0.00    +0.000 A 
ATOM      2  C   UNL     1      46.354   6.191  12.913  0.00  0.00    +0.000 A 
ATOM      3  N   UNL     1      47.056   5.901  14.025  0.00  0.00    +0.000 NA
ATOM      4  C   UNL     1      46.992   4.625  14.457  0.00  0.00    +0.000 A 
ATOM      5  N   UNL     1      46.256   3.654  13.897  0.00  0.00    +0.000 NA
ATOM      6  C   UNL     1      45.585   3.996  12.775  0.00  0.00    +0.000 A 
ENDROOT
BRANCH   1   8
ATOM      7  N   UNL     1      43.715   5.863  10.885  0.00  0.00    +0.000 N 
ATOM      8  C   UNL     1      45.034   5.506  10.897  0.00  0.00    +0.000 C 
ATOM      9  O   UNL     1      45.704   5.480   9.870  0.00  0.00    +0.000 OA
ATOM     10  H   UNL     1      43.359   6.202   9.993  0.00  0.00    +0.000 HD
ATOM     11  H   UNL     1      43.217   6.157  11.710  0.00  0.00    +0.000 HD
ENDBRANCH   1   8
BRANCH   4  12
ATOM     12  O   UNL     1      48.049   4.252  15.250  0.00  0.00    +0.000 OA
BRANCH  12  13
ATOM     13  C   UNL     1      47.820   4.148  16.674  0.00  0.00    +0.000 C 
ATOM     14  C   UNL     1      48.552   2.910  17.186  0.00  0.00    +0.000 C 
ATOM     15  C   UNL     1      47.069   2.986  17.292  0.00  0.00    +0.000 C 
BRANCH  13  16
ATOM     16  C   UNL     1      47.974   5.453  17.421  0.00  0.00    +0.000 A 
ATOM     17  C   UNL     1      47.226   5.700  18.582  0.00  0.00    +0.000 A 
ATOM     18  C   UNL     1      47.492   6.806  19.382  0.00  0.00    +0.000 A 
ATOM     19  C   UNL     1      48.492   7.673  18.984  0.00  0.00    +0.000 A 
ATOM     20  N   UNL     1      49.205   7.518  17.850  0.00  0.00    +0.000 NA
ATOM     21  C   UNL     1      48.936   6.416  17.107  0.00  0.00    +0.000 A 
ENDBRANCH  13  16
ENDBRANCH  12  13
ENDBRANCH   4  12
TORSDOF 4
ENDMDL
