MODEL 1
REMARK VINA RESULT:    -8.080      0.000      0.000
REMARK INTER + INTRA:         -12.040
REMARK INTER:                 -10.914
REMARK INTRA:                  -1.126
REMARK UNBOUND:                -1.126
REMARK  Name = 
REMARK  7 active torsions:
REMARK  status: ('A' for Active; 'I' for Inactive)
REMARK    1  A    between atoms: C_1  and  C_2
REMARK    2  A    between atoms: C_2  and  N_3
REMARK    3  A    between atoms: C_2  and  C_16
REMARK    4  A    between atoms: C_4  and  C_6
REMARK    5  A    between atoms: C_19  and  C_20
REMARK    6  A    between atoms: C_20  and  N_21
REMARK    7  A    between atoms: C_22  and  C_24
REMARK                            x       y       z     vdW  Elec       q    Type
REMARK                         _______ _______ _______ _____ _____    ______ ____
ROOT
ATOM      1  C   UNL     1      47.481   8.831  13.937  0.00  0.00    +0.000 C 
ATOM      2  C   UNL     1      47.879   7.352  13.889  0.00  0.00    +0.000 C 
ENDROOT
BRANCH   2   3
ATOM      3  C   UNL     1      46.923   6.574  12.987  0.00  0.00    +0.000 A 
ATOM      4  C   UNL     1      46.563   5.253  13.285  0.00  0.00    +0.000 A 
ATOM      5  C   UNL     1      45.677   4.547  12.458  0.00  0.00    +0.000 A 
ATOM      6  C   UNL     1      45.133   5.142  11.309  0.00  0.00    +0.000 A 
ATOM      7  C   UNL     1      45.469   6.471  11.026  0.00  0.00    +0.000 A 
ATOM      8  C   UNL     1      46.356   7.174  11.849  0.00  0.00    +0.000 A 
BRANCH   6   9
ATOM      9  C   UNL     1      44.199   4.379  10.404  0.00  0.00    +0.000 C 
BRANCH   9  10
ATOM     10  N   UNL     1      44.880   3.321   9.700  0.00  0.00    +0.000 N 
ATOM     11  C   UNL     1      45.596   3.567   8.550  0.00  0.00    +0.000 C 
ATOM     12  O   UNL     1      45.673   4.681   8.040  0.00  0.00    +0.000 OA
ATOM     13  H   UNL     1      44.926   2.413  10.136  0.00  0.00    +0.000 HD
BRANCH  11  14
ATOM     14  C   UNL     1      46.254   2.416   7.988  0.00  0.00    +0.000 A 
ATOM     15  C   UNL     1      46.067   1.053   8.138  0.00  0.00    +0.000 A 
ATOM     16  C   UNL     1      47.040   0.451   7.322  0.00  0.00    +0.000 A 
ATOM     17  N   UNL     1      47.793   1.349   6.686  0.00  0.00    +0.000 NA
ATOM     18  N   UNL     1      47.293   2.530   7.100  0.00  0.00    +0.000 N 
ATOM     19  H   UNL     1      47.705   3.388   6.741  0.00  0.00    +0.000 HD
ENDBRANCH  11  14
ENDBRANCH   9  10
ENDBRANCH   6   9
ENDBRANCH   2   3
BRANCH   2  20
ATOM     20  N   UNL     1      47.884   6.733  15.204  0.00  0.00    +0.000 N 
ATOM     21  C   UNL     1      49.016   6.387  15.897  0.00  0.00    +0.000 C 
ATOM     22  O   UNL     1      50.150   6.612  15.489  0.00  0.00    +0.000 OA
ATOM     23  H   UNL     1      47.033   6.231  15.435  0.00  0.00    +0.000 HD
BRANCH  21  24
ATOM     24  C   UNL     1      48.783   5.793  17.221  0.00  0.00    +0.000 A 
ATOM     25  C   UNL     1      49.005   4.438  17.427  0.00  0.00    +0.000 A 
ATOM     26  S   UNL     1      48.740   3.942  19.038  0.00  0.00    +0.000 S 
ATOM     27  C   UNL     1      48.268   5.511  19.503  0.00  0.00    +0.000 A 
ATOM     28  N   UNL     1      47.882   5.781  20.780  0.00  0.00    +0.000 NA
ATOM     29  C   UNL     1      47.525   7.006  20.981  0.00  0.00    +0.000 A 
ATOM     30  N   UNL     1      47.523   7.986  20.024  0.00  0.00    +0.000 N 
ATOM     31  C   UNL     1      47.933   7.767  18.733  0.00  0.00    +0.000 A 
ATOM     32  O   UNL     1      47.970   8.679  17.914  0.00  0.00    +0.000 OA
ATOM     33  C   UNL     1      48.333   6.402  18.449  0.00  0.00    +0.000 A 
ATOM     34  H   UNL     1      47.241   8.929  20.247  0.00  0.00    +0.000 HD
ENDBRANCH  21  24
ENDBRANCH   2  20
TORSDOF 6
ENDMDL
MODEL 2
REMARK VINA RESULT:    -7.788      1.615      2.131
REMARK INTER + INTRA:         -11.645
REMARK INTER:                 -10.749
REMARK INTRA:                  -0.896
REMARK UNBOUND:                -1.126
REMARK  Name = 
REMARK  7 active torsions:
REMARK  status: ('A' for Active; 'I' for Inactive)
REMARK    1  A    between atoms: C_1  and  C_2
REMARK    2  A    between atoms: C_2  and  N_3
REMARK    3  A    between atoms: C_2  and  C_16
REMARK    4  A    between atoms: C_4  and  C_6
REMARK    5  A    between atoms: C_19  and  C_20
REMARK    6  A    between atoms: C_20  and  N_21
REMARK    7  A    between atoms: C_22  and  C_24
REMARK                            x       y       z     vdW  Elec       q    Type
REMARK                         _______ _______ _______ _____ _____    ______ ____
ROOT
ATOM      1  C   UNL     1      46.968   9.095  13.453  0.00  0.00    +0.000 C 
ATOM      2  C   UNL     1      47.676   7.742  13.592  0.00  0.00    +0.000 C 
ENDROOT
BRANCH   2   3
ATOM      3  C   UNL     1      46.832   6.635  12.962  0.00  0.00    +0.000 A 
ATOM      4  C   UNL     1      46.499   5.482  13.684  0.00  0.00    +0.000 A 
ATOM      5  C   UNL     1      45.717   4.473  13.103  0.00  0.00    +0.000 A 
ATOM      6  C   UNL     1      45.252   4.591  11.785  0.00  0.00    +0.000 A 
ATOM      7  C   UNL     1      45.559   5.755  11.072  0.00  0.00    +0.000 A 
ATOM      8  C   UNL     1      46.343   6.759  11.650  0.00  0.00    +0.000 A 
BRANCH   6   9
ATOM      9  C   UNL     1      44.430   3.498  11.148  0.00  0.00    +0.000 C 
BRANCH   9  10
ATOM     10  N   UNL     1      45.175   2.785  10.140  0.00  0.00    +0.000 N 
ATOM     11  C   UNL     1      45.136   3.160   8.816  0.00  0.00    +0.000 C 
ATOM     12  O   UNL     1      44.449   4.092   8.410  0.00  0.00    +0.000 OA
ATOM     13  H   UNL     1      45.828   2.078  10.443  0.00  0.00    +0.000 HD
BRANCH  11  14
ATOM     14  C   UNL     1      45.967   2.376   7.939  0.00  0.00    +0.000 A 
ATOM     15  C   UNL     1      46.703   2.684   6.808  0.00  0.00    +0.000 A 
ATOM     16  C   UNL     1      47.293   1.473   6.406  0.00  0.00    +0.000 A 
ATOM     17  N   UNL     1      46.974   0.462   7.215  0.00  0.00    +0.000 NA
ATOM     18  N   UNL     1      46.177   1.036   8.138  0.00  0.00    +0.000 N 
ATOM     19  H   UNL     1      45.802   0.458   8.886  0.00  0.00    +0.000 HD
ENDBRANCH  11  14
ENDBRANCH   9  10
ENDBRANCH   6   9
ENDBRANCH   2   3
BRANCH   2  20
ATOM     20  N   UNL     1      47.943   7.392  14.977  0.00  0.00    +0.000 N 
ATOM     21  C   UNL     1      49.167   7.004  15.459  0.00  0.00    +0.000 C 
ATOM     22  O   UNL     1      50.179   6.959  14.768  0.00  0.00    +0.000 OA
ATOM     23  H   UNL     1      47.127   7.089  15.498  0.00  0.00    +0.000 HD
BRANCH  21  24
ATOM     24  C   UNL     1      49.211   6.717  16.900  0.00  0.00    +0.000 A 
ATOM     25  C   UNL     1      49.578   7.710  17.798  0.00  0.00    +0.000 A 
ATOM     26  S   UNL     1      49.511   7.211  19.429  0.00  0.00    +0.000 S 
ATOM     27  C   UNL     1      49.042   5.635  18.986  0.00  0.00    +0.000 A 
ATOM     28  N   UNL     1      48.835   4.672  19.925  0.00  0.00    +0.000 NA
ATOM     29  C   UNL     1      48.511   3.518  19.443  0.00  0.00    +0.000 A 
ATOM     30  N   UNL     1      48.370   3.241  18.109  0.00  0.00    +0.000 N 
ATOM     31  C   UNL     1      48.539   4.187  17.130  0.00  0.00    +0.000 A 
ATOM     32  O   UNL     1      48.354   3.919  15.948  0.00  0.00    +0.000 OA
ATOM     33  C   UNL     1      48.917   5.500  17.616  0.00  0.00    +0.000 A 
ATOM     34  H   UNL     1      48.104   2.319  17.796  0.00  0.00    +0.000 HD
ENDBRANCH  21  24
ENDBRANCH   2  20
TORSDOF 6
ENDMDL
MODEL 3
REMARK VINA RESULT:    -7.494      3.935      8.734
REMARK INTER + INTRA:         -11.249
REMARK INTER:                 -10.310
REMARK INTRA:                  -0.938
REMARK UNBOUND:                -1.126
REMARK  Name = 
REMARK  7 active torsions:
REMARK  status: ('A' for Active; 'I' for Inactive)
REMARK    1  A    between atoms: C_1  and  C_2
REMARK    2  A    between atoms: C_2  and  N_3
REMARK    3  A    between atoms: C_2  and  C_16
REMARK    4  A    between atoms: C_4  and  C_6
REMARK    5  A    between atoms: C_19  and  C_20
REMARK    6  A    between atoms: C_20  and  N_21
REMARK    7  A    between atoms: C_22  and  C_24
REMARK                            x       y       z     vdW  Elec       q    Type
REMARK                         _______ _______ _______ _____ _____    ______ ____
ROOT
ATOM      1  C   UNL     1      49.311   7.342  12.896  0.00  0.00    +0.000 C 
ATOM      2  C   UNL     1      47.969   6.876  13.471  0.00  0.00    +0.000 C 
ENDROOT
BRANCH   2   3
ATOM      3  C   UNL     1      48.187   6.107  14.773  0.00  0.00    +0.000 A 
ATOM      4  C   UNL     1      49.162   6.510  15.694  0.00  0.00    +0.000 A 
ATOM      5  C   UNL     1      49.352   5.806  16.892  0.00  0.00    +0.000 A 
ATOM      6  C   UNL     1      48.574   4.679  17.196  0.00  0.00    +0.000 A 
ATOM      7  C   UNL     1      47.579   4.293  16.290  0.00  0.00    +0.000 A 
ATOM      8  C   UNL     1      47.393   4.992  15.094  0.00  0.00    +0.000 A 
BRANCH   6   9
ATOM      9  C   UNL     1      48.790   3.904  18.473  0.00  0.00    +0.000 C 
BRANCH   9  10
ATOM     10  N   UNL     1      50.090   3.282  18.508  0.00  0.00    +0.000 N 
ATOM     11  C   UNL     1      50.416   2.248  17.658  0.00  0.00    +0.000 C 
ATOM     12  O   UNL     1      49.623   1.776  16.850  0.00  0.00    +0.000 OA
ATOM     13  H   UNL     1      50.803   3.702  19.085  0.00  0.00    +0.000 HD
BRANCH  11  14
ATOM     14  C   UNL     1      51.765   1.761  17.786  0.00  0.00    +0.000 A 
ATOM     15  C   UNL     1      53.004   2.363  17.654  0.00  0.00    +0.000 A 
ATOM     16  C   UNL     1      53.942   1.345  17.899  0.00  0.00    +0.000 A 
ATOM     17  N   UNL     1      53.361   0.178  18.177  0.00  0.00    +0.000 NA
ATOM     18  N   UNL     1      52.044   0.458  18.109  0.00  0.00    +0.000 N 
ATOM     19  H   UNL     1      51.376  -0.286  18.294  0.00  0.00    +0.000 HD
ENDBRANCH  11  14
ENDBRANCH   9  10
ENDBRANCH   6   9
ENDBRANCH   2   3
BRANCH   2  20
ATOM     20  N   UNL     1      47.230   6.029  12.549  0.00  0.00    +0.000 N 
ATOM     21  C   UNL     1      46.217   6.465  11.734  0.00  0.00    +0.000 C 
ATOM     22  O   UNL     1      45.862   7.636  11.669  0.00  0.00    +0.000 OA
ATOM     23  H   UNL     1      47.235   5.044  12.789  0.00  0.00    +0.000 HD
BRANCH  21  24
ATOM     24  C   UNL     1      45.625   5.436  10.866  0.00  0.00    +0.000 A 
ATOM     25  C   UNL     1      45.770   5.518   9.488  0.00  0.00    +0.000 A 
ATOM     26  S   UNL     1      45.071   4.205   8.651  0.00  0.00    +0.000 S 
ATOM     27  C   UNL     1      44.504   3.511  10.099  0.00  0.00    +0.000 A 
ATOM     28  N   UNL     1      43.786   2.355  10.092  0.00  0.00    +0.000 NA
ATOM     29  C   UNL     1      43.398   1.961  11.259  0.00  0.00    +0.000 A 
ATOM     30  N   UNL     1      43.666   2.614  12.433  0.00  0.00    +0.000 N 
ATOM     31  C   UNL     1      44.412   3.765  12.491  0.00  0.00    +0.000 A 
ATOM     32  O   UNL     1      44.679   4.296  13.564  0.00  0.00    +0.000 OA
ATOM     33  C   UNL     1      44.863   4.259  11.204  0.00  0.00    +0.000 A 
ATOM     34  H   UNL     1      43.343   2.249  13.316  0.00  0.00    +0.000 HD
ENDBRANCH  21  24
ENDBRANCH   2  20
TORSDOF 6
ENDMDL
MODEL 4
REMARK VINA RESULT:    -7.479      3.032      4.677
REMARK INTER + INTRA:         -11.228
REMARK INTER:                 -10.034
REMARK INTRA:                  -1.194
REMARK UNBOUND:                -1.126
REMARK  Name = 
REMARK  7 active torsions:
REMARK  status: ('A' for Active; 'I' for Inactive)
REMARK    1  A    between atoms: C_1  and  C_2
REMARK    2  A    between atoms: C_2  and  N_3
REMARK    3  A    between atoms: C_2  and  C_16
REMARK    4  A    between atoms: C_4  and  C_6
REMARK    5  A    between atoms: C_19  and  C_20
REMARK    6  A    between atoms: C_20  and  N_21
REMARK    7  A    between atoms: C_22  and  C_24
REMARK                            x       y       z     vdW  Elec       q    Type
REMARK                         _______ _______ _______ _____ _____    ______ ____
ROOT
ATOM      1  C   UNL     1      47.422   4.353  15.513  0.00  0.00    +0.000 C 
ATOM      2  C   UNL     1      47.189   5.616  14.677  0.00  0.00    +0.000 C 
ENDROOT
BRANCH   2   3
ATOM      3  C   UNL     1      46.442   5.271  13.390  0.00  0.00    +0.000 A 
ATOM      4  C   UNL     1      45.821   4.026  13.228  0.00  0.00    +0.000 A 
ATOM      5  C   UNL     1      45.128   3.719  12.048  0.00  0.00    +0.000 A 
ATOM      6  C   UNL     1      45.044   4.647  10.999  0.00  0.00    +0.000 A 
ATOM      7  C   UNL     1      45.639   5.902  11.171  0.00  0.00    +0.000 A 
ATOM      8  C   UNL     1      46.333   6.207  12.347  0.00  0.00    +0.000 A 
BRANCH   6   9
ATOM      9  C   UNL     1      44.321   4.312   9.718  0.00  0.00    +0.000 C 
BRANCH   9  10
ATOM     10  N   UNL     1      45.237   3.972   8.658  0.00  0.00    +0.000 N 
ATOM     11  C   UNL     1      45.604   2.666   8.416  0.00  0.00    +0.000 C 
ATOM     12  O   UNL     1      45.204   1.727   9.096  0.00  0.00    +0.000 OA
ATOM     13  H   UNL     1      45.510   4.698   8.014  0.00  0.00    +0.000 HD
BRANCH  11  14
ATOM     14  C   UNL     1      46.492   2.484   7.298  0.00  0.00    +0.000 A 
ATOM     15  C   UNL     1      46.649   3.153   6.096  0.00  0.00    +0.000 A 
ATOM     16  C   UNL     1      47.689   2.482   5.429  0.00  0.00    +0.000 A 
ATOM     17  N   UNL     1      48.174   1.466   6.142  0.00  0.00    +0.000 NA
ATOM     18  N   UNL     1      47.439   1.492   7.271  0.00  0.00    +0.000 N 
ATOM     19  H   UNL     1      47.628   0.803   7.994  0.00  0.00    +0.000 HD
ENDBRANCH  11  14
ENDBRANCH   9  10
ENDBRANCH   6   9
ENDBRANCH   2   3
BRANCH   2  20
ATOM     20  N   UNL     1      48.428   6.291  14.329  0.00  0.00    +0.000 N 
ATOM     21  C   UNL     1      49.034   7.252  15.098  0.00  0.00    +0.000 C 
ATOM     22  O   UNL     1      48.607   7.607  16.191  0.00  0.00    +0.000 OA
ATOM     23  H   UNL     1      48.638   6.297  13.337  0.00  0.00    +0.000 HD
BRANCH  21  24
ATOM     24  C   UNL     1      50.294   7.783  14.559  0.00  0.00    +0.000 A 
ATOM     25  C   UNL     1      51.481   7.607  15.257  0.00  0.00    +0.000 A 
ATOM     26  S   UNL     1      52.846   8.236  14.448  0.00  0.00    +0.000 S 
ATOM     27  C   UNL     1      51.889   8.813  13.163  0.00  0.00    +0.000 A 
ATOM     28  N   UNL     1      52.444   9.487  12.120  0.00  0.00    +0.000 NA
ATOM     29  C   UNL     1      51.596   9.889  11.233  0.00  0.00    +0.000 A 
ATOM     30  N   UNL     1      50.244   9.674  11.291  0.00  0.00    +0.000 N 
ATOM     31  C   UNL     1      49.645   8.974  12.308  0.00  0.00    +0.000 A 
ATOM     32  O   UNL     1      48.438   8.754  12.303  0.00  0.00    +0.000 OA
ATOM     33  C   UNL     1      50.552   8.510  13.340  0.00  0.00    +0.000 A 
ATOM     34  H   UNL     1      49.633  10.006  10.559  0.00  0.00    +0.000 HD
ENDBRANCH  21  24
ENDBRANCH   2  20
TORSDOF 6
ENDMDL
MODEL 5
REMARK VINA RESULT:    -6.945      2.647      3.434
REMARK INTER + INTRA:         -10.507
REMARK INTER:                  -9.709
REMARK INTRA:                  -0.798
REMARK UNBOUND:                -1.126
REMARK  Name = 
REMARK  7 active torsions:
REMARK  status: ('A' for Active; 'I' for Inactive)
REMARK    1  A    between atoms: C_1  and  C_2
REMARK    2  A    between atoms: C_2  and  N_3
REMARK    3  A    between atoms: C_2  and  C_16
REMARK    4  A    between atoms: C_4  and  C_6
REMARK    5  A    between atoms: C_19  and  C_20
REMARK    6  A    between atoms: C_20  and  N_21
REMARK    7  A    between atoms: C_22  and  C_24
REMARK                            x       y       z     vdW  Elec       q    Type
REMARK                         _______ _______ _______ _____ _____    ______ ____
ROOT
ATOM      1  C   UNL     1      47.585   3.484  15.630  0.00  0.00    +0.000 C 
ATOM      2  C   UNL     1      47.032   4.851  15.212  0.00  0.00    +0.000 C 
ENDROOT
BRANCH   2   3
ATOM      3  C   UNL     1      46.352   4.753  13.847  0.00  0.00    +0.000 A 
ATOM      4  C   UNL     1      46.006   3.511  13.300  0.00  0.00    +0.000 A 
ATOM      5  C   UNL     1      45.373   3.428  12.051  0.00  0.00    +0.000 A 
ATOM      6  C   UNL     1      45.075   4.586  11.317  0.00  0.00    +0.000 A 
ATOM      7  C   UNL     1      45.392   5.829  11.875  0.00  0.00    +0.000 A 
ATOM      8  C   UNL     1      46.027   5.911  13.119  0.00  0.00    +0.000 A 
BRANCH   6   9
ATOM      9  C   UNL     1      44.415   4.501   9.962  0.00  0.00    +0.000 C 
BRANCH   9  10
ATOM     10  N   UNL     1      45.342   4.084   8.940  0.00  0.00    +0.000 N 
ATOM     11  C   UNL     1      45.402   2.775   8.514  0.00  0.00    +0.000 C 
ATOM     12  O   UNL     1      44.701   1.888   8.991  0.00  0.00    +0.000 OA
ATOM     13  H   UNL     1      45.864   4.795   8.452  0.00  0.00    +0.000 HD
BRANCH  11  14
ATOM     14  C   UNL     1      46.348   2.525   7.458  0.00  0.00    +0.000 A 
ATOM     15  C   UNL     1      46.694   3.220   6.313  0.00  0.00    +0.000 A 
ATOM     16  C   UNL     1      47.686   2.444   5.690  0.00  0.00    +0.000 A 
ATOM     17  N   UNL     1      47.970   1.338   6.378  0.00  0.00    +0.000 NA
ATOM     18  N   UNL     1      47.152   1.413   7.447  0.00  0.00    +0.000 N 
ATOM     19  H   UNL     1      47.186   0.671   8.141  0.00  0.00    +0.000 HD
ENDBRANCH  11  14
ENDBRANCH   9  10
ENDBRANCH   6   9
ENDBRANCH   2   3
BRANCH   2  20
ATOM     20  N   UNL     1      48.063   5.873  15.145  0.00  0.00    +0.000 N 
ATOM     21  C   UNL     1      48.728   6.380  16.233  0.00  0.00    +0.000 C 
ATOM     22  O   UNL     1      48.547   5.982  17.378  0.00  0.00    +0.000 OA
ATOM     23  H   UNL     1      48.020   6.460  14.319  0.00  0.00    +0.000 HD
BRANCH  21  24
ATOM     24  C   UNL     1      49.749   7.393  15.926  0.00  0.00    +0.000 A 
ATOM     25  C   UNL     1      50.985   7.008  15.425  0.00  0.00    +0.000 A 
ATOM     26  S   UNL     1      52.015   8.323  15.074  0.00  0.00    +0.000 S 
ATOM     27  C   UNL     1      50.863   9.447  15.630  0.00  0.00    +0.000 A 
ATOM     28  N   UNL     1      51.125  10.783  15.629  0.00  0.00    +0.000 NA
ATOM     29  C   UNL     1      50.172  11.513  16.104  0.00  0.00    +0.000 A 
ATOM     30  N   UNL     1      48.980  11.031  16.577  0.00  0.00    +0.000 N 
ATOM     31  C   UNL     1      48.661   9.697  16.570  0.00  0.00    +0.000 A 
ATOM     32  O   UNL     1      47.564   9.303  16.952  0.00  0.00    +0.000 OA
ATOM     33  C   UNL     1      49.703   8.829  16.057  0.00  0.00    +0.000 A 
ATOM     34  H   UNL     1      48.269  11.657  16.928  0.00  0.00    +0.000 HD
ENDBRANCH  21  24
ENDBRANCH   2  20
TORSDOF 6
ENDMDL
MODEL 6
REMARK VINA RESULT:    -6.896      3.557      9.184
REMARK INTER + INTRA:         -10.440
REMARK INTER:                  -9.388
REMARK INTRA:                  -1.053
REMARK UNBOUND:                -1.126
REMARK  Name = 
REMARK  7 active torsions:
REMARK  status: ('A' for Active; 'I' for Inactive)
REMARK    1  A    between atoms: C_1  and  C_2
REMARK    2  A    between atoms: C_2  and  N_3
REMARK    3  A    between atoms: C_2  and  C_16
REMARK    4  A    between atoms: C_4  and  C_6
REMARK    5  A    between atoms: C_19  and  C_20
REMARK    6  A    between atoms: C_20  and  N_21
REMARK    7  A    between atoms: C_22  and  C_24
REMARK                            x       y       z     vdW  Elec       q    Type
REMARK                         _______ _______ _______ _____ _____    ______ ____
ROOT
ATOM      1  C   UNL     1      48.814   7.922  11.531  0.00  0.00    +0.000 C 
ATOM      2  C   UNL     1      47.881   7.499  12.672  0.00  0.00    +0.000 C 
ENDROOT
BRANCH   2   3
ATOM      3  C   UNL     1      48.693   7.140  13.915  0.00  0.00    +0.000 A 
ATOM      4  C   UNL     1      49.977   7.662  14.115  0.00  0.00    +0.000 A 
ATOM      5  C   UNL     1      50.713   7.337  15.264  0.00  0.00    +0.000 A 
ATOM      6  C   UNL     1      50.185   6.476  16.238  0.00  0.00    +0.000 A 
ATOM      7  C   UNL     1      48.891   5.977  16.054  0.00  0.00    +0.000 A 
ATOM      8  C   UNL     1      48.158   6.299  14.907  0.00  0.00    +0.000 A 
BRANCH   6   9
ATOM      9  C   UNL     1      50.983   6.104  17.464  0.00  0.00    +0.000 C 
BRANCH   9  10
ATOM     10  N   UNL     1      51.413   4.728  17.425  0.00  0.00    +0.000 N 
ATOM     11  C   UNL     1      52.374   4.250  18.289  0.00  0.00    +0.000 C 
ATOM     12  O   UNL     1      52.939   4.962  19.113  0.00  0.00    +0.000 OA
ATOM     13  H   UNL     1      50.905   4.088  16.834  0.00  0.00    +0.000 HD
BRANCH  11  14
ATOM     14  C   UNL     1      52.664   2.847  18.155  0.00  0.00    +0.000 A 
ATOM     15  C   UNL     1      53.844   2.130  18.058  0.00  0.00    +0.000 A 
ATOM     16  C   UNL     1      53.455   0.784  17.942  0.00  0.00    +0.000 A 
ATOM     17  N   UNL     1      52.131   0.636  17.970  0.00  0.00    +0.000 NA
ATOM     18  N   UNL     1      51.675   1.898  18.107  0.00  0.00    +0.000 N 
ATOM     19  H   UNL     1      50.671   2.052  18.162  0.00  0.00    +0.000 HD
ENDBRANCH  11  14
ENDBRANCH   9  10
ENDBRANCH   6   9
ENDBRANCH   2   3
BRANCH   2  20
ATOM     20  N   UNL     1      47.046   6.363  12.318  0.00  0.00    +0.000 N 
ATOM     21  C   UNL     1      45.675   6.386  12.288  0.00  0.00    +0.000 C 
ATOM     22  O   UNL     1      45.013   7.392  12.516  0.00  0.00    +0.000 OA
ATOM     23  H   UNL     1      47.488   5.460  12.449  0.00  0.00    +0.000 HD
BRANCH  21  24
ATOM     24  C   UNL     1      45.037   5.126  11.880  0.00  0.00    +0.000 A 
ATOM     25  C   UNL     1      44.320   4.375  12.802  0.00  0.00    +0.000 A 
ATOM     26  S   UNL     1      43.602   2.980  12.132  0.00  0.00    +0.000 S 
ATOM     27  C   UNL     1      44.269   3.303  10.599  0.00  0.00    +0.000 A 
ATOM     28  N   UNL     1      44.058   2.464   9.549  0.00  0.00    +0.000 NA
ATOM     29  C   UNL     1      44.648   2.820   8.456  0.00  0.00    +0.000 A 
ATOM     30  N   UNL     1      45.426   3.939   8.317  0.00  0.00    +0.000 N 
ATOM     31  C   UNL     1      45.641   4.828   9.340  0.00  0.00    +0.000 A 
ATOM     32  O   UNL     1      46.299   5.849   9.167  0.00  0.00    +0.000 OA
ATOM     33  C   UNL     1      45.010   4.469  10.596  0.00  0.00    +0.000 A 
ATOM     34  H   UNL     1      45.853   4.168   7.431  0.00  0.00    +0.000 HD
ENDBRANCH  21  24
ENDBRANCH   2  20
TORSDOF 6
ENDMDL
MODEL 7
REMARK VINA RESULT:    -6.739      3.423      4.868
REMARK INTER + INTRA:         -10.229
REMARK INTER:                  -9.071
REMARK INTRA:                  -1.157
REMARK UNBOUND:                -1.126
REMARK  Name = 
REMARK  7 active torsions:
REMARK  status: ('A' for Active; 'I' for Inactive)
REMARK    1  A    between atoms: C_1  and  C_2
REMARK    2  A    between atoms: C_2  and  N_3
REMARK    3  A    between atoms: C_2  and  C_16
REMARK    4  A    between atoms: C_4  and  C_6
REMARK    5  A    between atoms: C_19  and  C_20
REMARK    6  A    between atoms: C_20  and  N_21
REMARK    7  A    between atoms: C_22  and  C_24
REMARK                            x       y       z     vdW  Elec       q    Type
REMARK                         _______ _______ _______ _____ _____    ______ ____
ROOT
ATOM      1  C   UNL     1      47.904   5.432  15.417  0.00  0.00    +0.000 C 
ATOM      2  C   UNL     1      47.644   6.530  14.380  0.00  0.00    +0.000 C 
ENDROOT
BRANCH   2   3
ATOM      3  C   UNL     1      46.824   5.978  13.215  0.00  0.00    +0.000 A 
ATOM      4  C   UNL     1      46.847   6.597  11.959  0.00  0.00    +0.000 A 
ATOM      5  C   UNL     1      46.099   6.080  10.891  0.00  0.00    +0.000 A 
ATOM      6  C   UNL     1      45.307   4.934  11.054  0.00  0.00    +0.000 A 
ATOM      7  C   UNL     1      45.307   4.297  12.300  0.00  0.00    +0.000 A 
ATOM      8  C   UNL     1      46.049   4.815  13.366  0.00  0.00    +0.000 A 
BRANCH   6   9
ATOM      9  C   UNL     1      44.483   4.387   9.914  0.00  0.00    +0.000 C 
BRANCH   9  10
ATOM     10  N   UNL     1      45.302   4.041   8.779  0.00  0.00    +0.000 N 
ATOM     11  C   UNL     1      45.738   2.751   8.572  0.00  0.00    +0.000 C 
ATOM     12  O   UNL     1      45.487   1.833   9.346  0.00  0.00    +0.000 OA
ATOM     13  H   UNL     1      45.449   4.741   8.068  0.00  0.00    +0.000 HD
BRANCH  11  14
ATOM     14  C   UNL     1      46.511   2.558   7.373  0.00  0.00    +0.000 A 
ATOM     15  C   UNL     1      46.602   3.259   6.184  0.00  0.00    +0.000 A 
ATOM     16  C   UNL     1      47.535   2.552   5.405  0.00  0.00    +0.000 A 
ATOM     17  N   UNL     1      48.017   1.484   6.039  0.00  0.00    +0.000 NA
ATOM     18  N   UNL     1      47.388   1.513   7.230  0.00  0.00    +0.000 N 
ATOM     19  H   UNL     1      47.597   0.788   7.911  0.00  0.00    +0.000 HD
ENDBRANCH  11  14
ENDBRANCH   9  10
ENDBRANCH   6   9
ENDBRANCH   2   3
BRANCH   2  20
ATOM     20  N   UNL     1      48.872   7.103  13.854  0.00  0.00    +0.000 N 
ATOM     21  C   UNL     1      49.170   8.442  13.857  0.00  0.00    +0.000 C 
ATOM     22  O   UNL     1      48.440   9.293  14.353  0.00  0.00    +0.000 OA
ATOM     23  H   UNL     1      49.337   6.530  13.158  0.00  0.00    +0.000 HD
BRANCH  21  24
ATOM     24  C   UNL     1      50.481   8.793  13.292  0.00  0.00    +0.000 A 
ATOM     25  C   UNL     1      50.560   9.534  12.121  0.00  0.00    +0.000 A 
ATOM     26  S   UNL     1      52.161   9.895  11.652  0.00  0.00    +0.000 S 
ATOM     27  C   UNL     1      52.803   9.028  12.969  0.00  0.00    +0.000 A 
ATOM     28  N   UNL     1      54.147   8.917  13.151  0.00  0.00    +0.000 NA
ATOM     29  C   UNL     1      54.490   8.208  14.174  0.00  0.00    +0.000 A 
ATOM     30  N   UNL     1      53.612   7.603  15.035  0.00  0.00    +0.000 N 
ATOM     31  C   UNL     1      52.250   7.713  14.908  0.00  0.00    +0.000 A 
ATOM     32  O   UNL     1      51.492   7.203  15.726  0.00  0.00    +0.000 OA
ATOM     33  C   UNL     1      51.810   8.490  13.765  0.00  0.00    +0.000 A 
ATOM     34  H   UNL     1      53.944   7.068  15.824  0.00  0.00    +0.000 HD
ENDBRANCH  21  24
ENDBRANCH   2  20
TORSDOF 6
ENDMDL
MODEL 8
REMARK VINA RESULT:    -6.454      4.610      7.935
REMARK INTER + INTRA:          -9.844
REMARK INTER:                  -9.651
REMARK INTRA:                  -0.193
REMARK UNBOUND:                -1.126
REMARK  Name = 
REMARK  7 active torsions:
REMARK  status: ('A' for Active; 'I' for Inactive)
REMARK    1  A    between atoms: C_1  and  C_2
REMARK    2  A    between atoms: C_2  and  N_3
REMARK    3  A    between atoms: C_2  and  C_16
REMARK    4  A    between atoms: C_4  and  C_6
REMARK    5  A    between atoms: C_19  and  C_20
REMARK    6  A    between atoms: C_20  and  N_21
REMARK    7  A    between atoms: C_22  and  C_24
REMARK                            x       y       z     vdW  Elec       q    Type
REMARK                         _______ _______ _______ _____ _____    ______ ____
ROOT
ATOM      1  C   UNL     1      45.353   9.291  12.517  0.00  0.00    +0.000 C 
ATOM      2  C   UNL     1      46.251   8.161  13.031  0.00  0.00    +0.000 C 
ENDROOT
BRANCH   2   3
ATOM      3  C   UNL     1      47.674   8.331  12.502  0.00  0.00    +0.000 A 
ATOM      4  C   UNL     1      48.572   7.256  12.486  0.00  0.00    +0.000 A 
ATOM      5  C   UNL     1      49.874   7.416  11.990  0.00  0.00    +0.000 A 
ATOM      6  C   UNL     1      50.312   8.656  11.501  0.00  0.00    +0.000 A 
ATOM      7  C   UNL     1      49.407   9.723  11.488  0.00  0.00    +0.000 A 
ATOM      8  C   UNL     1      48.110   9.565  11.987  0.00  0.00    +0.000 A 
BRANCH   6   9
ATOM      9  C   UNL     1      51.718   8.839  10.988  0.00  0.00    +0.000 C 
BRANCH   9  10
ATOM     10  N   UNL     1      52.001   7.964   9.876  0.00  0.00    +0.000 N 
ATOM     11  C   UNL     1      53.120   7.162   9.858  0.00  0.00    +0.000 C 
ATOM     12  O   UNL     1      53.953   7.163  10.759  0.00  0.00    +0.000 OA
ATOM     13  H   UNL     1      51.295   7.858   9.164  0.00  0.00    +0.000 HD
BRANCH  11  14
ATOM     14  C   UNL     1      53.240   6.315   8.700  0.00  0.00    +0.000 A 
ATOM     15  C   UNL     1      53.991   5.185   8.428  0.00  0.00    +0.000 A 
ATOM     16  C   UNL     1      53.664   4.828   7.109  0.00  0.00    +0.000 A 
ATOM     17  N   UNL     1      52.766   5.653   6.569  0.00  0.00    +0.000 NA
ATOM     18  N   UNL     1      52.520   6.539   7.554  0.00  0.00    +0.000 N 
ATOM     19  H   UNL     1      51.847   7.283   7.386  0.00  0.00    +0.000 HD
ENDBRANCH  11  14
ENDBRANCH   9  10
ENDBRANCH   6   9
ENDBRANCH   2   3
BRANCH   2  20
ATOM     20  N   UNL     1      45.767   6.845  12.648  0.00  0.00    +0.000 N 
ATOM     21  C   UNL     1      44.826   6.615  11.678  0.00  0.00    +0.000 C 
ATOM     22  O   UNL     1      44.328   7.505  10.998  0.00  0.00    +0.000 OA
ATOM     23  H   UNL     1      45.872   6.135  13.364  0.00  0.00    +0.000 HD
BRANCH  21  24
ATOM     24  C   UNL     1      44.503   5.200  11.442  0.00  0.00    +0.000 A 
ATOM     25  C   UNL     1      43.766   4.487  12.377  0.00  0.00    +0.000 A 
ATOM     26  S   UNL     1      43.439   2.880  11.904  0.00  0.00    +0.000 S 
ATOM     27  C   UNL     1      44.317   3.068  10.457  0.00  0.00    +0.000 A 
ATOM     28  N   UNL     1      44.455   2.037   9.579  0.00  0.00    +0.000 NA
ATOM     29  C   UNL     1      45.170   2.315   8.540  0.00  0.00    +0.000 A 
ATOM     30  N   UNL     1      45.755   3.529   8.296  0.00  0.00    +0.000 N 
ATOM     31  C   UNL     1      45.617   4.604   9.137  0.00  0.00    +0.000 A 
ATOM     32  O   UNL     1      46.110   5.694   8.863  0.00  0.00    +0.000 OA
ATOM     33  C   UNL     1      44.833   4.343  10.329  0.00  0.00    +0.000 A 
ATOM     34  H   UNL     1      46.295   3.687   7.457  0.00  0.00    +0.000 HD
ENDBRANCH  21  24
ENDBRANCH   2  20
TORSDOF 6
ENDMDL
MODEL 9
REMARK VINA RESULT:    -6.348      4.079      6.085
REMARK INTER + INTRA:          -9.701
REMARK INTER:                  -8.369
REMARK INTRA:                  -1.332
REMARK UNBOUND:                -1.126
REMARK  Name = 
REMARK  7 active torsions:
REMARK  status: ('A' for Active; 'I' for Inactive)
REMARK    1  A    between atoms: C_1  and  C_2
REMARK    2  A    between atoms: C_2  and  N_3
REMARK    3  A    between atoms: C_2  and  C_16
REMARK    4  A    between atoms: C_4  and  C_6
REMARK    5  A    between atoms: C_19  and  C_20
REMARK    6  A    between atoms: C_20  and  N_21
REMARK    7  A    between atoms: C_22  and  C_24
REMARK                            x       y       z     vdW  Elec       q    Type
REMARK                         _______ _______ _______ _____ _____    ______ ____
ROOT
ATOM      1  C   UNL     1      48.696   7.675  16.006  0.00  0.00    +0.000 C 
ATOM      2  C   UNL     1      48.542   8.560  14.764  0.00  0.00    +0.000 C 
ENDROOT
BRANCH   2   3
ATOM      3  C   UNL     1      47.496   7.972  13.820  0.00  0.00    +0.000 A 
ATOM      4  C   UNL     1      46.440   8.754  13.335  0.00  0.00    +0.000 A 
ATOM      5  C   UNL     1      45.487   8.211  12.460  0.00  0.00    +0.000 A 
ATOM      6  C   UNL     1      45.564   6.871  12.053  0.00  0.00    +0.000 A 
ATOM      7  C   UNL     1      46.635   6.096  12.512  0.00  0.00    +0.000 A 
ATOM      8  C   UNL     1      47.583   6.637  13.388  0.00  0.00    +0.000 A 
BRANCH   6   9
ATOM      9  C   UNL     1      44.529   6.276  11.130  0.00  0.00    +0.000 C 
BRANCH   9  10
ATOM     10  N   UNL     1      45.098   5.276  10.262  0.00  0.00    +0.000 N 
ATOM     11  C   UNL     1      44.481   4.060  10.063  0.00  0.00    +0.000 C 
ATOM     12  O   UNL     1      43.440   3.744  10.629  0.00  0.00    +0.000 OA
ATOM     13  H   UNL     1      45.897   5.531   9.701  0.00  0.00    +0.000 HD
BRANCH  11  14
ATOM     14  C   UNL     1      45.150   3.186   9.135  0.00  0.00    +0.000 A 
ATOM     15  C   UNL     1      45.830   3.406   7.950  0.00  0.00    +0.000 A 
ATOM     16  C   UNL     1      46.247   2.136   7.517  0.00  0.00    +0.000 A 
ATOM     17  N   UNL     1      45.878   1.169   8.357  0.00  0.00    +0.000 NA
ATOM     18  N   UNL     1      45.222   1.830   9.331  0.00  0.00    +0.000 N 
ATOM     19  H   UNL     1      44.841   1.300  10.110  0.00  0.00    +0.000 HD
ENDBRANCH  11  14
ENDBRANCH   9  10
ENDBRANCH   6   9
ENDBRANCH   2   3
BRANCH   2  20
ATOM     20  N   UNL     1      49.789   8.719  14.035  0.00  0.00    +0.000 N 
ATOM     21  C   UNL     1      50.165   9.862  13.376  0.00  0.00    +0.000 C 
ATOM     22  O   UNL     1      49.497  10.890  13.377  0.00  0.00    +0.000 OA
ATOM     23  H   UNL     1      50.205   7.849  13.719  0.00  0.00    +0.000 HD
BRANCH  21  24
ATOM     24  C   UNL     1      51.481   9.805  12.723  0.00  0.00    +0.000 A 
ATOM     25  C   UNL     1      52.479  10.700  13.084  0.00  0.00    +0.000 A 
ATOM     26  S   UNL     1      53.953  10.442  12.264  0.00  0.00    +0.000 S 
ATOM     27  C   UNL     1      53.292   9.159  11.361  0.00  0.00    +0.000 A 
ATOM     28  N   UNL     1      54.034   8.497  10.432  0.00  0.00    +0.000 NA
ATOM     29  C   UNL     1      53.394   7.566   9.804  0.00  0.00    +0.000 A 
ATOM     30  N   UNL     1      52.083   7.236  10.023  0.00  0.00    +0.000 N 
ATOM     31  C   UNL     1      51.306   7.856  10.969  0.00  0.00    +0.000 A 
ATOM     32  O   UNL     1      50.151   7.500  11.176  0.00  0.00    +0.000 OA
ATOM     33  C   UNL     1      51.973   8.919  11.696  0.00  0.00    +0.000 A 
ATOM     34  H   UNL     1      51.642   6.490   9.505  0.00  0.00    +0.000 HD
ENDBRANCH  21  24
ENDBRANCH   2  20
TORSDOF 6
ENDMDL
