MODEL 1
REMARK VINA RESULT:    -8.019      0.000      0.000
REMARK INTER + INTRA:         -13.013
REMARK INTER:                 -11.769
REMARK INTRA:                  -1.244
REMARK UNBOUND:                -1.244
REMARK  Name = 
REMARK  8 active torsions:
REMARK  status: ('A' for Active; 'I' for Inactive)
REMARK    1  A    between atoms: C_2  and  C_3
REMARK    2  A    between atoms: C_7  and  C_8
REMARK    3  A    between atoms: C_8  and  N_9
REMARK    4  A    between atoms: N_9  and  C_10
REMARK    5  A    between atoms: C_10  and  C_11
REMARK    6  A    between atoms: C_14  and  C_15
REMARK    7  A    between atoms: C_15  and  N_16
REMARK    8  A    between atoms: C_17  and  C_19
REMARK                            x       y       z     vdW  Elec       q    Type
REMARK                         _______ _______ _______ _____ _____    ______ ____
ROOT
ATOM      1  C   UNL     1      44.281   5.150  13.004  0.00  0.00    +0.000 A 
ATOM      2  C   UNL     1      44.675   6.396  12.521  0.00  0.00    +0.000 A 
ATOM      3  C   UNL     1      45.952   6.867  12.821  0.00  0.00    +0.000 A 
ATOM      4  C   UNL     1      46.811   6.085  13.597  0.00  0.00    +0.000 A 
ATOM      5  C   UNL     1      46.321   4.868  14.058  0.00  0.00    +0.000 A 
ATOM      6  N   UNL     1      45.091   4.381  13.772  0.00  0.00    +0.000 NA
ENDROOT
BRANCH   1   7
ATOM      7  C   UNL     1      42.934   4.576  12.607  0.00  0.00    +0.000 C 
BRANCH   7   8
ATOM      8  N   UNL     1      42.861   4.162  11.195  0.00  0.00    +0.000 NA
ATOM      9  H   UNL     1      41.884   3.968  10.967  0.00  0.00    +0.000 HD
BRANCH   8  10
ATOM     10  C   UNL     1      43.610   2.915  10.975  0.00  0.00    +0.000 C 
BRANCH  10  15
ATOM     11  C   UNL     1      45.968   2.026   8.275  0.00  0.00    +0.000 A 
ATOM     12  C   UNL     1      46.288   3.235   7.671  0.00  0.00    +0.000 A 
ATOM     13  C   UNL     1      45.702   4.393   8.171  0.00  0.00    +0.000 A 
ATOM     14  C   UNL     1      44.827   4.302   9.251  0.00  0.00    +0.000 A 
ATOM     15  C   UNL     1      44.569   3.050   9.809  0.00  0.00    +0.000 A 
ATOM     16  N   UNL     1      45.120   1.908   9.324  0.00  0.00    +0.000 NA
BRANCH  11  18
ATOM     17  N   UNL     1      47.040  -0.194   7.453  0.00  0.00    +0.000 NA
ATOM     18  C   UNL     1      46.547   0.800   7.801  0.00  0.00    +0.000 C 
ENDBRANCH  11  18
ENDBRANCH  10  15
ENDBRANCH   8  10
ENDBRANCH   7   8
ENDBRANCH   1   7
BRANCH   4  19
ATOM     19  C   UNL     1      48.191   6.544  13.963  0.00  0.00    +0.000 C 
BRANCH  19  20
ATOM     20  N   UNL     1      48.252   6.955  15.341  0.00  0.00    +0.000 N 
ATOM     21  C   UNL     1      49.404   6.838  16.077  0.00  0.00    +0.000 C 
ATOM     22  O   UNL     1      50.450   6.416  15.590  0.00  0.00    +0.000 OA
ATOM     23  H   UNL     1      47.368   7.055  15.831  0.00  0.00    +0.000 HD
BRANCH  21  24
ATOM     24  C   UNL     1      49.332   7.307  17.465  0.00  0.00    +0.000 A 
ATOM     25  C   UNL     1      50.100   8.390  17.874  0.00  0.00    +0.000 A 
ATOM     26  S   UNL     1      49.857   8.821  19.507  0.00  0.00    +0.000 S 
ATOM     27  C   UNL     1      48.751   7.549  19.736  0.00  0.00    +0.000 A 
ATOM     28  N   UNL     1      48.171   7.332  20.948  0.00  0.00    +0.000 NA
ATOM     29  C   UNL     1      47.369   6.319  20.982  0.00  0.00    +0.000 A 
ATOM     30  N   UNL     1      47.089   5.508  19.916  0.00  0.00    +0.000 N 
ATOM     31  C   UNL     1      47.626   5.706  18.665  0.00  0.00    +0.000 A 
ATOM     32  O   UNL     1      47.314   4.996  17.717  0.00  0.00    +0.000 OA
ATOM     33  C   UNL     1      48.550   6.821  18.577  0.00  0.00    +0.000 A 
ATOM     34  H   UNL     1      46.439   4.740  20.002  0.00  0.00    +0.000 HD
ENDBRANCH  21  24
ENDBRANCH  19  20
ENDBRANCH   4  19
TORSDOF 8
ENDMDL
MODEL 2
REMARK VINA RESULT:    -7.885      3.195      3.509
REMARK INTER + INTRA:         -12.817
REMARK INTER:                 -11.966
REMARK INTRA:                  -0.851
REMARK UNBOUND:                -1.244
REMARK  Name = 
REMARK  8 active torsions:
REMARK  status: ('A' for Active; 'I' for Inactive)
REMARK    1  A    between atoms: C_2  and  C_3
REMARK    2  A    between atoms: C_7  and  C_8
REMARK    3  A    between atoms: C_8  and  N_9
REMARK    4  A    between atoms: N_9  and  C_10
REMARK    5  A    between atoms: C_10  and  C_11
REMARK    6  A    between atoms: C_14  and  C_15
REMARK    7  A    between atoms: C_15  and  N_16
REMARK    8  A    between atoms: C_17  and  C_19
REMARK                            x       y       z     vdW  Elec       q    Type
REMARK                         _______ _______ _______ _____ _____    ______ ____
ROOT
ATOM      1  C   UNL     1      46.266   4.443  13.383  0.00  0.00    +0.000 A 
ATOM      2  C   UNL     1      46.687   5.672  12.879  0.00  0.00    +0.000 A 
ATOM      3  C   UNL     1      47.546   6.459  13.643  0.00  0.00    +0.000 A 
ATOM      4  C   UNL     1      47.970   6.005  14.894  0.00  0.00    +0.000 A 
ATOM      5  C   UNL     1      47.476   4.779  15.326  0.00  0.00    +0.000 A 
ATOM      6  N   UNL     1      46.651   3.988  14.601  0.00  0.00    +0.000 NA
ENDROOT
BRANCH   1   7
ATOM      7  C   UNL     1      45.411   3.527  12.528  0.00  0.00    +0.000 C 
BRANCH   7   8
ATOM      8  N   UNL     1      44.248   4.198  11.923  0.00  0.00    +0.000 NA
ATOM      9  H   UNL     1      43.504   4.244  12.622  0.00  0.00    +0.000 HD
BRANCH   8  10
ATOM     10  C   UNL     1      43.725   3.422  10.788  0.00  0.00    +0.000 C 
BRANCH  10  15
ATOM     11  C   UNL     1      46.042   2.084   8.242  0.00  0.00    +0.000 A 
ATOM     12  C   UNL     1      46.524   3.204   7.577  0.00  0.00    +0.000 A 
ATOM     13  C   UNL     1      46.066   4.453   7.981  0.00  0.00    +0.000 A 
ATOM     14  C   UNL     1      45.153   4.538   9.030  0.00  0.00    +0.000 A 
ATOM     15  C   UNL     1      44.730   3.365   9.654  0.00  0.00    +0.000 A 
ATOM     16  N   UNL     1      45.154   2.137   9.262  0.00  0.00    +0.000 NA
BRANCH  11  18
ATOM     17  N   UNL     1      46.881  -0.278   7.559  0.00  0.00    +0.000 NA
ATOM     18  C   UNL     1      46.484   0.770   7.868  0.00  0.00    +0.000 C 
ENDBRANCH  11  18
ENDBRANCH  10  15
ENDBRANCH   8  10
ENDBRANCH   7   8
ENDBRANCH   1   7
BRANCH   4  19
ATOM     19  C   UNL     1      48.884   6.814  15.765  0.00  0.00    +0.000 C 
BRANCH  19  20
ATOM     20  N   UNL     1      49.958   6.006  16.282  0.00  0.00    +0.000 N 
ATOM     21  C   UNL     1      49.944   5.527  17.568  0.00  0.00    +0.000 C 
ATOM     22  O   UNL     1      49.002   5.728  18.330  0.00  0.00    +0.000 OA
ATOM     23  H   UNL     1      50.842   6.043  15.784  0.00  0.00    +0.000 HD
BRANCH  21  24
ATOM     24  C   UNL     1      51.095   4.705  17.960  0.00  0.00    +0.000 A 
ATOM     25  C   UNL     1      52.176   5.287  18.608  0.00  0.00    +0.000 A 
ATOM     26  S   UNL     1      53.401   4.175  19.026  0.00  0.00    +0.000 S 
ATOM     27  C   UNL     1      52.549   2.885  18.315  0.00  0.00    +0.000 A 
ATOM     28  N   UNL     1      53.064   1.625  18.301  0.00  0.00    +0.000 NA
ATOM     29  C   UNL     1      52.320   0.751  17.710  0.00  0.00    +0.000 A 
ATOM     30  N   UNL     1      51.105   1.017  17.137  0.00  0.00    +0.000 N 
ATOM     31  C   UNL     1      50.531   2.266  17.153  0.00  0.00    +0.000 A 
ATOM     32  O   UNL     1      49.417   2.462  16.680  0.00  0.00    +0.000 OA
ATOM     33  C   UNL     1      51.336   3.292  17.790  0.00  0.00    +0.000 A 
ATOM     34  H   UNL     1      50.562   0.285  16.703  0.00  0.00    +0.000 HD
ENDBRANCH  21  24
ENDBRANCH  19  20
ENDBRANCH   4  19
TORSDOF 8
ENDMDL
MODEL 3
REMARK VINA RESULT:    -7.333      2.009      2.240
REMARK INTER + INTRA:         -12.006
REMARK INTER:                 -10.944
REMARK INTRA:                  -1.062
REMARK UNBOUND:                -1.244
REMARK  Name = 
REMARK  8 active torsions:
REMARK  status: ('A' for Active; 'I' for Inactive)
REMARK    1  A    between atoms: C_2  and  C_3
REMARK    2  A    between atoms: C_7  and  C_8
REMARK    3  A    between atoms: C_8  and  N_9
REMARK    4  A    between atoms: N_9  and  C_10
REMARK    5  A    between atoms: C_10  and  C_11
REMARK    6  A    between atoms: C_14  and  C_15
REMARK    7  A    between atoms: C_15  and  N_16
REMARK    8  A    between atoms: C_17  and  C_19
REMARK                            x       y       z     vdW  Elec       q    Type
REMARK                         _______ _______ _______ _____ _____    ______ ____
ROOT
ATOM      1  C   UNL     1      44.952   5.310  12.845  0.00  0.00    +0.000 A 
ATOM      2  C   UNL     1      45.065   6.327  11.899  0.00  0.00    +0.000 A 
ATOM      3  C   UNL     1      46.258   7.042  11.813  0.00  0.00    +0.000 A 
ATOM      4  C   UNL     1      47.315   6.728  12.671  0.00  0.00    +0.000 A 
ATOM      5  C   UNL     1      47.099   5.717  13.601  0.00  0.00    +0.000 A 
ATOM      6  N   UNL     1      45.957   4.998  13.699  0.00  0.00    +0.000 NA
ENDROOT
BRANCH   1   7
ATOM      7  C   UNL     1      43.699   4.454  12.889  0.00  0.00    +0.000 C 
BRANCH   7   8
ATOM      8  N   UNL     1      43.133   4.166  11.560  0.00  0.00    +0.000 NA
ATOM      9  H   UNL     1      42.117   4.117  11.647  0.00  0.00    +0.000 HD
BRANCH   8  10
ATOM     10  C   UNL     1      43.588   2.856  11.069  0.00  0.00    +0.000 C 
BRANCH  10  15
ATOM     11  C   UNL     1      45.916   2.012   8.328  0.00  0.00    +0.000 A 
ATOM     12  C   UNL     1      46.176   3.222   7.699  0.00  0.00    +0.000 A 
ATOM     13  C   UNL     1      45.558   4.366   8.195  0.00  0.00    +0.000 A 
ATOM     14  C   UNL     1      44.712   4.259   9.296  0.00  0.00    +0.000 A 
ATOM     15  C   UNL     1      44.514   3.008   9.879  0.00  0.00    +0.000 A 
ATOM     16  N   UNL     1      45.096   1.880   9.398  0.00  0.00    +0.000 NA
BRANCH  11  18
ATOM     17  N   UNL     1      46.989  -0.190   7.463  0.00  0.00    +0.000 NA
ATOM     18  C   UNL     1      46.530   0.802   7.860  0.00  0.00    +0.000 C 
ENDBRANCH  11  18
ENDBRANCH  10  15
ENDBRANCH   8  10
ENDBRANCH   7   8
ENDBRANCH   1   7
BRANCH   4  19
ATOM     19  C   UNL     1      48.617   7.471  12.634  0.00  0.00    +0.000 C 
BRANCH  19  20
ATOM     20  N   UNL     1      49.538   6.952  13.612  0.00  0.00    +0.000 N 
ATOM     21  C   UNL     1      49.905   7.684  14.713  0.00  0.00    +0.000 C 
ATOM     22  O   UNL     1      49.441   8.798  14.942  0.00  0.00    +0.000 OA
ATOM     23  H   UNL     1      50.123   6.173  13.325  0.00  0.00    +0.000 HD
BRANCH  21  24
ATOM     24  C   UNL     1      50.840   7.030  15.636  0.00  0.00    +0.000 A 
ATOM     25  C   UNL     1      52.201   7.297  15.551  0.00  0.00    +0.000 A 
ATOM     26  S   UNL     1      53.129   6.482  16.729  0.00  0.00    +0.000 S 
ATOM     27  C   UNL     1      51.752   5.712  17.364  0.00  0.00    +0.000 A 
ATOM     28  N   UNL     1      51.851   4.836  18.400  0.00  0.00    +0.000 NA
ATOM     29  C   UNL     1      50.729   4.310  18.765  0.00  0.00    +0.000 A 
ATOM     30  N   UNL     1      49.515   4.584  18.193  0.00  0.00    +0.000 N 
ATOM     31  C   UNL     1      49.361   5.484  17.164  0.00  0.00    +0.000 A 
ATOM     32  O   UNL     1      48.254   5.749  16.709  0.00  0.00    +0.000 OA
ATOM     33  C   UNL     1      50.596   6.090  16.704  0.00  0.00    +0.000 A 
ATOM     34  H   UNL     1      48.669   4.152  18.534  0.00  0.00    +0.000 HD
ENDBRANCH  21  24
ENDBRANCH  19  20
ENDBRANCH   4  19
TORSDOF 8
ENDMDL
MODEL 4
REMARK VINA RESULT:    -7.269      3.661      8.941
REMARK INTER + INTRA:         -11.912
REMARK INTER:                 -10.643
REMARK INTRA:                  -1.269
REMARK UNBOUND:                -1.244
REMARK  Name = 
REMARK  8 active torsions:
REMARK  status: ('A' for Active; 'I' for Inactive)
REMARK    1  A    between atoms: C_2  and  C_3
REMARK    2  A    between atoms: C_7  and  C_8
REMARK    3  A    between atoms: C_8  and  N_9
REMARK    4  A    between atoms: N_9  and  C_10
REMARK    5  A    between atoms: C_10  and  C_11
REMARK    6  A    between atoms: C_14  and  C_15
REMARK    7  A    between atoms: C_15  and  N_16
REMARK    8  A    between atoms: C_17  and  C_19
REMARK                            x       y       z     vdW  Elec       q    Type
REMARK                         _______ _______ _______ _____ _____    ______ ____
ROOT
ATOM      1  C   UNL     1      49.374   7.880  15.691  0.00  0.00    +0.000 A 
ATOM      2  C   UNL     1      48.378   8.827  15.460  0.00  0.00    +0.000 A 
ATOM      3  C   UNL     1      47.720   8.833  14.232  0.00  0.00    +0.000 A 
ATOM      4  C   UNL     1      48.067   7.894  13.258  0.00  0.00    +0.000 A 
ATOM      5  C   UNL     1      49.092   7.006  13.569  0.00  0.00    +0.000 A 
ATOM      6  N   UNL     1      49.739   6.969  14.756  0.00  0.00    +0.000 NA
ENDROOT
BRANCH   1   7
ATOM      7  C   UNL     1      50.033   7.793  17.055  0.00  0.00    +0.000 C 
BRANCH   7   8
ATOM      8  N   UNL     1      49.076   7.684  18.169  0.00  0.00    +0.000 NA
ATOM      9  H   UNL     1      49.198   8.494  18.778  0.00  0.00    +0.000 HD
BRANCH   8  10
ATOM     10  C   UNL     1      49.350   6.488  18.981  0.00  0.00    +0.000 C 
BRANCH  10  15
ATOM     11  C   UNL     1      49.344   3.117  17.471  0.00  0.00    +0.000 A 
ATOM     12  C   UNL     1      48.033   2.914  17.062  0.00  0.00    +0.000 A 
ATOM     13  C   UNL     1      47.109   3.927  17.294  0.00  0.00    +0.000 A 
ATOM     14  C   UNL     1      47.527   5.100  17.918  0.00  0.00    +0.000 A 
ATOM     15  C   UNL     1      48.866   5.230  18.286  0.00  0.00    +0.000 A 
ATOM     16  N   UNL     1      49.777   4.245  18.082  0.00  0.00    +0.000 NA
BRANCH  11  18
ATOM     17  N   UNL     1      51.127   1.277  17.040  0.00  0.00    +0.000 NA
ATOM     18  C   UNL     1      50.339   2.105  17.254  0.00  0.00    +0.000 C 
ENDBRANCH  11  18
ENDBRANCH  10  15
ENDBRANCH   8  10
ENDBRANCH   7   8
ENDBRANCH   1   7
BRANCH   4  19
ATOM     19  C   UNL     1      47.403   7.859  11.914  0.00  0.00    +0.000 C 
BRANCH  19  20
ATOM     20  N   UNL     1      46.722   6.608  11.704  0.00  0.00    +0.000 N 
ATOM     21  C   UNL     1      45.358   6.544  11.570  0.00  0.00    +0.000 C 
ATOM     22  O   UNL     1      44.653   7.550  11.581  0.00  0.00    +0.000 OA
ATOM     23  H   UNL     1      47.228   5.762  11.947  0.00  0.00    +0.000 HD
BRANCH  21  24
ATOM     24  C   UNL     1      44.795   5.207  11.346  0.00  0.00    +0.000 A 
ATOM     25  C   UNL     1      44.029   4.603  12.334  0.00  0.00    +0.000 A 
ATOM     26  S   UNL     1      43.423   3.071  11.885  0.00  0.00    +0.000 S 
ATOM     27  C   UNL     1      44.201   3.145  10.374  0.00  0.00    +0.000 A 
ATOM     28  N   UNL     1      44.111   2.117   9.486  0.00  0.00    +0.000 NA
ATOM     29  C   UNL     1      44.768   2.299   8.390  0.00  0.00    +0.000 A 
ATOM     30  N   UNL     1      45.502   3.417   8.095  0.00  0.00    +0.000 N 
ATOM     31  C   UNL     1      45.597   4.493   8.946  0.00  0.00    +0.000 A 
ATOM     32  O   UNL     1      46.217   5.502   8.631  0.00  0.00    +0.000 OA
ATOM     33  C   UNL     1      44.891   4.331  10.203  0.00  0.00    +0.000 A 
ATOM     34  H   UNL     1      45.981   3.508   7.211  0.00  0.00    +0.000 HD
ENDBRANCH  21  24
ENDBRANCH  19  20
ENDBRANCH   4  19
TORSDOF 8
ENDMDL
MODEL 5
REMARK VINA RESULT:    -6.984      1.814      2.260
REMARK INTER + INTRA:         -11.494
REMARK INTER:                 -10.894
REMARK INTRA:                  -0.600
REMARK UNBOUND:                -1.244
REMARK  Name = 
REMARK  8 active torsions:
REMARK  status: ('A' for Active; 'I' for Inactive)
REMARK    1  A    between atoms: C_2  and  C_3
REMARK    2  A    between atoms: C_7  and  C_8
REMARK    3  A    between atoms: C_8  and  N_9
REMARK    4  A    between atoms: N_9  and  C_10
REMARK    5  A    between atoms: C_10  and  C_11
REMARK    6  A    between atoms: C_14  and  C_15
REMARK    7  A    between atoms: C_15  and  N_16
REMARK    8  A    between atoms: C_17  and  C_19
REMARK                            x       y       z     vdW  Elec       q    Type
REMARK                         _______ _______ _______ _____ _____    ______ ____
ROOT
ATOM      1  C   UNL     1      44.474   5.737  11.632  0.00  0.00    +0.000 A 
ATOM      2  C   UNL     1      44.583   7.105  11.385  0.00  0.00    +0.000 A 
ATOM      3  C   UNL     1      45.612   7.823  11.990  0.00  0.00    +0.000 A 
ATOM      4  C   UNL     1      46.514   7.164  12.828  0.00  0.00    +0.000 A 
ATOM      5  C   UNL     1      46.310   5.804  13.038  0.00  0.00    +0.000 A 
ATOM      6  N   UNL     1      45.327   5.079  12.454  0.00  0.00    +0.000 NA
ENDROOT
BRANCH   1   7
ATOM      7  C   UNL     1      43.423   4.919  10.906  0.00  0.00    +0.000 C 
BRANCH   7   8
ATOM      8  N   UNL     1      43.607   4.880   9.446  0.00  0.00    +0.000 NA
ATOM      9  H   UNL     1      43.192   4.017   9.092  0.00  0.00    +0.000 HD
BRANCH   8  10
ATOM     10  C   UNL     1      45.036   4.844   9.098  0.00  0.00    +0.000 C 
BRANCH  10  15
ATOM     11  C   UNL     1      46.795   2.148   7.287  0.00  0.00    +0.000 A 
ATOM     12  C   UNL     1      46.282   0.972   7.818  0.00  0.00    +0.000 A 
ATOM     13  C   UNL     1      45.318   1.068   8.815  0.00  0.00    +0.000 A 
ATOM     14  C   UNL     1      44.901   2.327   9.241  0.00  0.00    +0.000 A 
ATOM     15  C   UNL     1      45.457   3.460   8.646  0.00  0.00    +0.000 A 
ATOM     16  N   UNL     1      46.410   3.384   7.683  0.00  0.00    +0.000 NA
BRANCH  11  18
ATOM     17  N   UNL     1      48.600   2.031   5.423  0.00  0.00    +0.000 NA
ATOM     18  C   UNL     1      47.790   2.107   6.252  0.00  0.00    +0.000 C 
ENDBRANCH  11  18
ENDBRANCH  10  15
ENDBRANCH   8  10
ENDBRANCH   7   8
ENDBRANCH   1   7
BRANCH   4  19
ATOM     19  C   UNL     1      47.633   7.886  13.517  0.00  0.00    +0.000 C 
BRANCH  19  20
ATOM     20  N   UNL     1      47.869   7.346  14.831  0.00  0.00    +0.000 N 
ATOM     21  C   UNL     1      49.136   7.085  15.284  0.00  0.00    +0.000 C 
ATOM     22  O   UNL     1      50.135   7.333  14.614  0.00  0.00    +0.000 OA
ATOM     23  H   UNL     1      47.083   6.897  15.291  0.00  0.00    +0.000 HD
BRANCH  21  24
ATOM     24  C   UNL     1      49.234   6.549  16.647  0.00  0.00    +0.000 A 
ATOM     25  C   UNL     1      49.827   7.305  17.650  0.00  0.00    +0.000 A 
ATOM     26  S   UNL     1      49.814   6.541  19.177  0.00  0.00    +0.000 S 
ATOM     27  C   UNL     1      49.058   5.156  18.541  0.00  0.00    +0.000 A 
ATOM     28  N   UNL     1      48.776   4.084  19.329  0.00  0.00    +0.000 NA
ATOM     29  C   UNL     1      48.222   3.096  18.709  0.00  0.00    +0.000 A 
ATOM     30  N   UNL     1      47.917   3.083  17.375  0.00  0.00    +0.000 N 
ATOM     31  C   UNL     1      48.154   4.153  16.544  0.00  0.00    +0.000 A 
ATOM     32  O   UNL     1      47.820   4.132  15.365  0.00  0.00    +0.000 OA
ATOM     33  C   UNL     1      48.795   5.284  17.189  0.00  0.00    +0.000 A 
ATOM     34  H   UNL     1      47.468   2.284  16.951  0.00  0.00    +0.000 HD
ENDBRANCH  21  24
ENDBRANCH  19  20
ENDBRANCH   4  19
TORSDOF 8
ENDMDL
MODEL 6
REMARK VINA RESULT:    -6.921      4.195      5.481
REMARK INTER + INTRA:         -11.402
REMARK INTER:                 -10.294
REMARK INTRA:                  -1.108
REMARK UNBOUND:                -1.244
REMARK  Name = 
REMARK  8 active torsions:
REMARK  status: ('A' for Active; 'I' for Inactive)
REMARK    1  A    between atoms: C_2  and  C_3
REMARK    2  A    between atoms: C_7  and  C_8
REMARK    3  A    between atoms: C_8  and  N_9
REMARK    4  A    between atoms: N_9  and  C_10
REMARK    5  A    between atoms: C_10  and  C_11
REMARK    6  A    between atoms: C_14  and  C_15
REMARK    7  A    between atoms: C_15  and  N_16
REMARK    8  A    between atoms: C_17  and  C_19
REMARK                            x       y       z     vdW  Elec       q    Type
REMARK                         _______ _______ _______ _____ _____    ______ ____
ROOT
ATOM      1  C   UNL     1      47.913   6.200  14.587  0.00  0.00    +0.000 A 
ATOM      2  C   UNL     1      48.656   6.552  15.712  0.00  0.00    +0.000 A 
ATOM      3  C   UNL     1      48.791   5.632  16.750  0.00  0.00    +0.000 A 
ATOM      4  C   UNL     1      48.183   4.379  16.646  0.00  0.00    +0.000 A 
ATOM      5  C   UNL     1      47.437   4.128  15.499  0.00  0.00    +0.000 A 
ATOM      6  N   UNL     1      47.299   4.996  14.471  0.00  0.00    +0.000 NA
ENDROOT
BRANCH   1   7
ATOM      7  C   UNL     1      47.835   7.147  13.405  0.00  0.00    +0.000 C 
BRANCH   7   8
ATOM      8  N   UNL     1      47.423   6.494  12.150  0.00  0.00    +0.000 NA
ATOM      9  H   UNL     1      48.059   6.790  11.409  0.00  0.00    +0.000 HD
BRANCH   8  10
ATOM     10  C   UNL     1      46.072   6.922  11.756  0.00  0.00    +0.000 C 
BRANCH  10  15
ATOM     11  C   UNL     1      44.337   3.762  10.957  0.00  0.00    +0.000 A 
ATOM     12  C   UNL     1      43.354   3.640  11.930  0.00  0.00    +0.000 A 
ATOM     13  C   UNL     1      43.258   4.640  12.893  0.00  0.00    +0.000 A 
ATOM     14  C   UNL     1      44.138   5.718  12.846  0.00  0.00    +0.000 A 
ATOM     15  C   UNL     1      45.089   5.770  11.826  0.00  0.00    +0.000 A 
ATOM     16  N   UNL     1      45.207   4.796  10.889  0.00  0.00    +0.000 NA
BRANCH  11  18
ATOM     17  N   UNL     1      44.609   1.979   9.086  0.00  0.00    +0.000 NA
ATOM     18  C   UNL     1      44.478   2.760   9.937  0.00  0.00    +0.000 C 
ENDBRANCH  11  18
ENDBRANCH  10  15
ENDBRANCH   8  10
ENDBRANCH   7   8
ENDBRANCH   1   7
BRANCH   4  19
ATOM     19  C   UNL     1      48.282   3.354  17.736  0.00  0.00    +0.000 C 
BRANCH  19  20
ATOM     20  N   UNL     1      49.656   3.021  18.011  0.00  0.00    +0.000 N 
ATOM     21  C   UNL     1      50.373   2.189  17.189  0.00  0.00    +0.000 C 
ATOM     22  O   UNL     1      49.897   1.719  16.159  0.00  0.00    +0.000 OA
ATOM     23  H   UNL     1      49.985   3.173  18.960  0.00  0.00    +0.000 HD
BRANCH  21  24
ATOM     24  C   UNL     1      51.767   1.945  17.579  0.00  0.00    +0.000 A 
ATOM     25  C   UNL     1      52.218   0.645  17.765  0.00  0.00    +0.000 A 
ATOM     26  S   UNL     1      53.872   0.549  18.174  0.00  0.00    +0.000 S 
ATOM     27  C   UNL     1      54.031   2.243  18.160  0.00  0.00    +0.000 A 
ATOM     28  N   UNL     1      55.217   2.840  18.458  0.00  0.00    +0.000 NA
ATOM     29  C   UNL     1      55.186   4.131  18.430  0.00  0.00    +0.000 A 
ATOM     30  N   UNL     1      54.082   4.880  18.125  0.00  0.00    +0.000 N 
ATOM     31  C   UNL     1      52.871   4.322  17.788  0.00  0.00    +0.000 A 
ATOM     32  O   UNL     1      51.915   5.018  17.467  0.00  0.00    +0.000 OA
ATOM     33  C   UNL     1      52.846   2.872  17.824  0.00  0.00    +0.000 A 
ATOM     34  H   UNL     1      54.126   5.889  18.104  0.00  0.00    +0.000 HD
ENDBRANCH  21  24
ENDBRANCH  19  20
ENDBRANCH   4  19
TORSDOF 8
ENDMDL
MODEL 7
REMARK VINA RESULT:    -6.703      4.086      9.539
REMARK INTER + INTRA:         -11.082
REMARK INTER:                  -9.931
REMARK INTRA:                  -1.151
REMARK UNBOUND:                -1.244
REMARK  Name = 
REMARK  8 active torsions:
REMARK  status: ('A' for Active; 'I' for Inactive)
REMARK    1  A    between atoms: C_2  and  C_3
REMARK    2  A    between atoms: C_7  and  C_8
REMARK    3  A    between atoms: C_8  and  N_9
REMARK    4  A    between atoms: N_9  and  C_10
REMARK    5  A    between atoms: C_10  and  C_11
REMARK    6  A    between atoms: C_14  and  C_15
REMARK    7  A    between atoms: C_15  and  N_16
REMARK    8  A    between atoms: C_17  and  C_19
REMARK                            x       y       z     vdW  Elec       q    Type
REMARK                         _______ _______ _______ _____ _____    ______ ____
ROOT
ATOM      1  C   UNL     1      48.155   7.748  14.261  0.00  0.00    +0.000 A 
ATOM      2  C   UNL     1      48.035   6.426  13.839  0.00  0.00    +0.000 A 
ATOM      3  C   UNL     1      47.044   6.096  12.916  0.00  0.00    +0.000 A 
ATOM      4  C   UNL     1      46.193   7.092  12.432  0.00  0.00    +0.000 A 
ATOM      5  C   UNL     1      46.370   8.378  12.931  0.00  0.00    +0.000 A 
ATOM      6  N   UNL     1      47.331   8.729  13.817  0.00  0.00    +0.000 NA
ENDROOT
BRANCH   1   7
ATOM      7  C   UNL     1      49.289   8.147  15.187  0.00  0.00    +0.000 C 
BRANCH   7   8
ATOM      8  N   UNL     1      50.173   7.028  15.555  0.00  0.00    +0.000 NA
ATOM      9  H   UNL     1      49.906   6.211  15.003  0.00  0.00    +0.000 HD
BRANCH   8  10
ATOM     10  C   UNL     1      50.000   6.666  16.971  0.00  0.00    +0.000 C 
BRANCH  10  15
ATOM     11  C   UNL     1      49.727   2.995  17.275  0.00  0.00    +0.000 A 
ATOM     12  C   UNL     1      48.366   2.750  17.407  0.00  0.00    +0.000 A 
ATOM     13  C   UNL     1      47.500   3.838  17.397  0.00  0.00    +0.000 A 
ATOM     14  C   UNL     1      48.021   5.122  17.253  0.00  0.00    +0.000 A 
ATOM     15  C   UNL     1      49.400   5.281  17.113  0.00  0.00    +0.000 A 
ATOM     16  N   UNL     1      50.260   4.232  17.137  0.00  0.00    +0.000 NA
BRANCH  11  18
ATOM     17  N   UNL     1      51.454   1.054  17.259  0.00  0.00    +0.000 NA
ATOM     18  C   UNL     1      50.665   1.908  17.276  0.00  0.00    +0.000 C 
ENDBRANCH  11  18
ENDBRANCH  10  15
ENDBRANCH   8  10
ENDBRANCH   7   8
ENDBRANCH   1   7
BRANCH   4  19
ATOM     19  C   UNL     1      45.101   6.795  11.449  0.00  0.00    +0.000 C 
BRANCH  19  20
ATOM     20  N   UNL     1      45.368   5.577  10.728  0.00  0.00    +0.000 N 
ATOM     21  C   UNL     1      44.354   4.780  10.261  0.00  0.00    +0.000 C 
ATOM     22  O   UNL     1      43.171   5.080  10.397  0.00  0.00    +0.000 OA
ATOM     23  H   UNL     1      46.297   5.179  10.827  0.00  0.00    +0.000 HD
BRANCH  21  24
ATOM     24  C   UNL     1      44.767   3.575   9.531  0.00  0.00    +0.000 A 
ATOM     25  C   UNL     1      44.157   2.357   9.800  0.00  0.00    +0.000 A 
ATOM     26  S   UNL     1      44.733   1.077   8.829  0.00  0.00    +0.000 S 
ATOM     27  C   UNL     1      45.849   2.097   8.047  0.00  0.00    +0.000 A 
ATOM     28  N   UNL     1      46.695   1.617   7.097  0.00  0.00    +0.000 NA
ATOM     29  C   UNL     1      47.501   2.498   6.605  0.00  0.00    +0.000 A 
ATOM     30  N   UNL     1      47.535   3.817   6.970  0.00  0.00    +0.000 N 
ATOM     31  C   UNL     1      46.680   4.355   7.904  0.00  0.00    +0.000 A 
ATOM     32  O   UNL     1      46.698   5.551   8.171  0.00  0.00    +0.000 OA
ATOM     33  C   UNL     1      45.765   3.401   8.502  0.00  0.00    +0.000 A 
ATOM     34  H   UNL     1      48.179   4.462   6.536  0.00  0.00    +0.000 HD
ENDBRANCH  21  24
ENDBRANCH  19  20
ENDBRANCH   4  19
TORSDOF 8
ENDMDL
MODEL 8
REMARK VINA RESULT:    -6.553      3.560      8.619
REMARK INTER + INTRA:         -10.862
REMARK INTER:                  -9.562
REMARK INTRA:                  -1.300
REMARK UNBOUND:                -1.244
REMARK  Name = 
REMARK  8 active torsions:
REMARK  status: ('A' for Active; 'I' for Inactive)
REMARK    1  A    between atoms: C_2  and  C_3
REMARK    2  A    between atoms: C_7  and  C_8
REMARK    3  A    between atoms: C_8  and  N_9
REMARK    4  A    between atoms: N_9  and  C_10
REMARK    5  A    between atoms: C_10  and  C_11
REMARK    6  A    between atoms: C_14  and  C_15
REMARK    7  A    between atoms: C_15  and  N_16
REMARK    8  A    between atoms: C_17  and  C_19
REMARK                            x       y       z     vdW  Elec       q    Type
REMARK                         _______ _______ _______ _____ _____    ______ ____
ROOT
ATOM      1  C   UNL     1      50.561   7.535  15.286  0.00  0.00    +0.000 A 
ATOM      2  C   UNL     1      49.278   6.995  15.229  0.00  0.00    +0.000 A 
ATOM      3  C   UNL     1      48.479   7.261  14.118  0.00  0.00    +0.000 A 
ATOM      4  C   UNL     1      48.976   8.060  13.086  0.00  0.00    +0.000 A 
ATOM      5  C   UNL     1      50.258   8.578  13.244  0.00  0.00    +0.000 A 
ATOM      6  N   UNL     1      51.059   8.326  14.305  0.00  0.00    +0.000 NA
ENDROOT
BRANCH   1   7
ATOM      7  C   UNL     1      51.482   7.177  16.438  0.00  0.00    +0.000 C 
BRANCH   7   8
ATOM      8  N   UNL     1      50.992   7.632  17.750  0.00  0.00    +0.000 NA
ATOM      9  H   UNL     1      51.680   8.275  18.145  0.00  0.00    +0.000 HD
BRANCH   8  10
ATOM     10  C   UNL     1      50.870   6.503  18.686  0.00  0.00    +0.000 C 
BRANCH  10  15
ATOM     11  C   UNL     1      48.783   3.731  17.421  0.00  0.00    +0.000 A 
ATOM     12  C   UNL     1      47.488   4.063  17.796  0.00  0.00    +0.000 A 
ATOM     13  C   UNL     1      47.291   5.248  18.497  0.00  0.00    +0.000 A 
ATOM     14  C   UNL     1      48.387   6.055  18.792  0.00  0.00    +0.000 A 
ATOM     15  C   UNL     1      49.654   5.656  18.367  0.00  0.00    +0.000 A 
ATOM     16  N   UNL     1      49.866   4.495  17.697  0.00  0.00    +0.000 NA
BRANCH  11  18
ATOM     17  N   UNL     1      49.257   1.564  16.069  0.00  0.00    +0.000 NA
ATOM     18  C   UNL     1      49.042   2.521  16.694  0.00  0.00    +0.000 C 
ENDBRANCH  11  18
ENDBRANCH  10  15
ENDBRANCH   8  10
ENDBRANCH   7   8
ENDBRANCH   1   7
BRANCH   4  19
ATOM     19  C   UNL     1      48.160   8.392  11.873  0.00  0.00    +0.000 C 
BRANCH  19  20
ATOM     20  N   UNL     1      47.512   7.218  11.347  0.00  0.00    +0.000 N 
ATOM     21  C   UNL     1      46.147   7.078  11.370  0.00  0.00    +0.000 C 
ATOM     22  O   UNL     1      45.407   7.958  11.801  0.00  0.00    +0.000 OA
ATOM     23  H   UNL     1      48.086   6.388  11.232  0.00  0.00    +0.000 HD
BRANCH  21  24
ATOM     24  C   UNL     1      45.618   5.838  10.789  0.00  0.00    +0.000 A 
ATOM     25  C   UNL     1      45.860   5.538   9.454  0.00  0.00    +0.000 A 
ATOM     26  S   UNL     1      45.205   4.040   8.963  0.00  0.00    +0.000 S 
ATOM     27  C   UNL     1      44.539   3.762  10.504  0.00  0.00    +0.000 A 
ATOM     28  N   UNL     1      43.812   2.643  10.764  0.00  0.00    +0.000 NA
ATOM     29  C   UNL     1      43.349   2.574  11.967  0.00  0.00    +0.000 A 
ATOM     30  N   UNL     1      43.553   3.518  12.938  0.00  0.00    +0.000 N 
ATOM     31  C   UNL     1      44.306   4.650  12.733  0.00  0.00    +0.000 A 
ATOM     32  O   UNL     1      44.515   5.449  13.637  0.00  0.00    +0.000 OA
ATOM     33  C   UNL     1      44.833   4.785  11.388  0.00  0.00    +0.000 A 
ATOM     34  H   UNL     1      43.178   3.398  13.868  0.00  0.00    +0.000 HD
ENDBRANCH  21  24
ENDBRANCH  19  20
ENDBRANCH   4  19
TORSDOF 8
ENDMDL
MODEL 9
REMARK VINA RESULT:    -6.419      2.182      2.926
REMARK INTER + INTRA:         -10.665
REMARK INTER:                  -9.703
REMARK INTRA:                  -0.963
REMARK UNBOUND:                -1.244
REMARK  Name = 
REMARK  8 active torsions:
REMARK  status: ('A' for Active; 'I' for Inactive)
REMARK    1  A    between atoms: C_2  and  C_3
REMARK    2  A    between atoms: C_7  and  C_8
REMARK    3  A    between atoms: C_8  and  N_9
REMARK    4  A    between atoms: N_9  and  C_10
REMARK    5  A    between atoms: C_10  and  C_11
REMARK    6  A    between atoms: C_14  and  C_15
REMARK    7  A    between atoms: C_15  and  N_16
REMARK    8  A    between atoms: C_17  and  C_19
REMARK                            x       y       z     vdW  Elec       q    Type
REMARK                         _______ _______ _______ _____ _____    ______ ____
ROOT
ATOM      1  C   UNL     1      46.284   5.865  12.552  0.00  0.00    +0.000 A 
ATOM      2  C   UNL     1      47.273   6.447  13.342  0.00  0.00    +0.000 A 
ATOM      3  C   UNL     1      47.697   5.787  14.493  0.00  0.00    +0.000 A 
ATOM      4  C   UNL     1      47.127   4.559  14.834  0.00  0.00    +0.000 A 
ATOM      5  C   UNL     1      46.127   4.069  14.001  0.00  0.00    +0.000 A 
ATOM      6  N   UNL     1      45.704   4.681  12.871  0.00  0.00    +0.000 NA
ENDROOT
BRANCH   1   7
ATOM      7  C   UNL     1      45.878   6.517  11.244  0.00  0.00    +0.000 C 
BRANCH   7   8
ATOM      8  N   UNL     1      44.954   5.701  10.437  0.00  0.00    +0.000 NA
ATOM      9  H   UNL     1      44.854   4.790  10.887  0.00  0.00    +0.000 HD
BRANCH   8  10
ATOM     10  C   UNL     1      45.502   5.461   9.093  0.00  0.00    +0.000 C 
BRANCH  10  15
ATOM     11  C   UNL     1      46.585   2.249   7.626  0.00  0.00    +0.000 A 
ATOM     12  C   UNL     1      45.772   1.295   8.223  0.00  0.00    +0.000 A 
ATOM     13  C   UNL     1      44.827   1.724   9.149  0.00  0.00    +0.000 A 
ATOM     14  C   UNL     1      44.728   3.083   9.441  0.00  0.00    +0.000 A 
ATOM     15  C   UNL     1      45.574   3.978   8.787  0.00  0.00    +0.000 A 
ATOM     16  N   UNL     1      46.512   3.574   7.893  0.00  0.00    +0.000 NA
BRANCH  11  18
ATOM     17  N   UNL     1      48.401   1.577   5.894  0.00  0.00    +0.000 NA
ATOM     18  C   UNL     1      47.574   1.861   6.660  0.00  0.00    +0.000 C 
ENDBRANCH  11  18
ENDBRANCH  10  15
ENDBRANCH   8  10
ENDBRANCH   7   8
ENDBRANCH   1   7
BRANCH   4  19
ATOM     19  C   UNL     1      47.533   3.809  16.067  0.00  0.00    +0.000 C 
BRANCH  19  20
ATOM     20  N   UNL     1      48.327   4.635  16.939  0.00  0.00    +0.000 N 
ATOM     21  C   UNL     1      47.792   5.226  18.055  0.00  0.00    +0.000 C 
ATOM     22  O   UNL     1      46.623   5.051  18.391  0.00  0.00    +0.000 OA
ATOM     23  H   UNL     1      49.195   5.003  16.561  0.00  0.00    +0.000 HD
BRANCH  21  24
ATOM     24  C   UNL     1      48.716   6.031  18.863  0.00  0.00    +0.000 A 
ATOM     25  C   UNL     1      48.303   7.251  19.382  0.00  0.00    +0.000 A 
ATOM     26  S   UNL     1      49.492   8.027  20.329  0.00  0.00    +0.000 S 
ATOM     27  C   UNL     1      50.614   6.781  20.041  0.00  0.00    +0.000 A 
ATOM     28  N   UNL     1      51.873   6.836  20.555  0.00  0.00    +0.000 NA
ATOM     29  C   UNL     1      52.623   5.835  20.237  0.00  0.00    +0.000 A 
ATOM     30  N   UNL     1      52.230   4.779  19.459  0.00  0.00    +0.000 N 
ATOM     31  C   UNL     1      50.961   4.664  18.944  0.00  0.00    +0.000 A 
ATOM     32  O   UNL     1      50.622   3.680  18.296  0.00  0.00    +0.000 OA
ATOM     33  C   UNL     1      50.082   5.775  19.255  0.00  0.00    +0.000 A 
ATOM     34  H   UNL     1      52.860   4.015  19.260  0.00  0.00    +0.000 HD
ENDBRANCH  21  24
ENDBRANCH  19  20
ENDBRANCH   4  19
TORSDOF 8
ENDMDL
