MODEL 1
REMARK VINA RESULT:    -8.911      0.000      0.000
REMARK INTER + INTRA:         -13.178
REMARK INTER:                 -12.557
REMARK INTRA:                  -0.621
REMARK UNBOUND:                -0.621
REMARK  Name = 
REMARK  10 active torsions:
REMARK  status: ('A' for Active; 'I' for Inactive)
REMARK    1  A    between atoms: C_1  and  C_2
REMARK    2  A    between atoms: C_2  and  C_3
REMARK    3  A    between atoms: C_2  and  C_4
REMARK    4  A    between atoms: C_2  and  C_5
REMARK    5  A    between atoms: N_8  and  C_9
REMARK    6  A    between atoms: C_9  and  C_10
REMARK    7  A    between atoms: C_10  and  C_11
REMARK    8  A    between atoms: C_15  and  C_16
REMARK    9  A    between atoms: C_19  and  C_20
REMARK   10  A    between atoms: C_29  and  C_30
REMARK                            x       y       z     vdW  Elec       q    Type
REMARK                         _______ _______ _______ _____ _____    ______ ____
ROOT
ATOM      1  C   UNL     1      46.904   7.732  12.212  0.00  0.00    +0.000 C 
ENDROOT
BRANCH   1   5
ATOM      2  C   UNL     1      48.273   5.672  16.264  0.00  0.00    +0.000 A 
ATOM      3  N   UNL     1      48.305   6.657  15.297  0.00  0.00    +0.000 NA
ATOM      4  C   UNL     1      47.838   6.449  14.056  0.00  0.00    +0.000 A 
ATOM      5  N   UNL     1      47.980   7.514  13.171  0.00  0.00    +0.000 N 
ATOM      6  C   UNL     1      47.303   5.230  13.701  0.00  0.00    +0.000 A 
ATOM      7  C   UNL     1      47.225   4.224  14.660  0.00  0.00    +0.000 A 
ATOM      8  C   UNL     1      47.729   4.409  15.959  0.00  0.00    +0.000 A 
ATOM      9  H   UNL     1      48.250   8.320  13.728  0.00  0.00    +0.000 HD
BRANCH   8  10
ATOM     10  C   UNL     1      47.602   3.250  16.895  0.00  0.00    +0.000 C 
ATOM     11  N   UNL     1      48.708   2.454  17.088  0.00  0.00    +0.000 N 
ATOM     12  O   UNL     1      46.580   2.947  17.481  0.00  0.00    +0.000 OA
ATOM     13  H   UNL     1      49.640   2.666  16.772  0.00  0.00    +0.000 HD
ATOM     14  H   UNL     1      48.588   1.668  17.714  0.00  0.00    +0.000 HD
ENDBRANCH   8  10
BRANCH   2  16
ATOM     15  C   UNL     1      49.130   7.670  17.593  0.00  0.00    +0.000 C 
ATOM     16  C   UNL     1      48.931   6.119  17.591  0.00  0.00    +0.000 C 
ATOM     17  C   UNL     1      50.340   5.513  17.742  0.00  0.00    +0.000 C 
ATOM     18  C   UNL     1      48.078   5.841  18.845  0.00  0.00    +0.000 C 
ENDBRANCH   2  16
ENDBRANCH   1   5
BRANCH   1  19
ATOM     19  C   UNL     1      45.513   7.600  12.848  0.00  0.00    +0.000 C 
BRANCH  19  20
ATOM     20  C   UNL     1      44.675   6.476  12.264  0.00  0.00    +0.000 A 
ATOM     21  C   UNL     1      43.424   6.146  12.784  0.00  0.00    +0.000 A 
ATOM     22  C   UNL     1      42.707   5.099  12.226  0.00  0.00    +0.000 A 
ATOM     23  C   UNL     1      43.261   4.385  11.175  0.00  0.00    +0.000 A 
ATOM     24  C   UNL     1      44.520   4.741  10.694  0.00  0.00    +0.000 A 
ATOM     25  N   UNL     1      45.226   5.771  11.239  0.00  0.00    +0.000 NA
BRANCH  24  26
ATOM     26  C   UNL     1      45.151   4.019   9.566  0.00  0.00    +0.000 A 
ATOM     27  C   UNL     1      45.118   2.613   9.484  0.00  0.00    +0.000 A 
ATOM     28  C   UNL     1      45.736   1.921   8.438  0.00  0.00    +0.000 A 
ATOM     29  C   UNL     1      46.407   2.615   7.425  0.00  0.00    +0.000 A 
ATOM     30  C   UNL     1      46.440   4.016   7.484  0.00  0.00    +0.000 A 
ATOM     31  C   UNL     1      45.819   4.704   8.536  0.00  0.00    +0.000 A 
BRANCH  29  32
ATOM     32  C   UNL     1      47.075   1.878   6.291  0.00  0.00    +0.000 C 
ATOM     33  F   UNL     1      46.626   2.254   5.060  0.00  0.00    +0.000 F 
ATOM     34  F   UNL     1      48.423   2.067   6.267  0.00  0.00    +0.000 F 
ATOM     35  F   UNL     1      46.886   0.532   6.358  0.00  0.00    +0.000 F 
ENDBRANCH  29  32
ENDBRANCH  24  26
ENDBRANCH  19  20
ENDBRANCH   1  19
TORSDOF 7
ENDMDL
MODEL 2
REMARK VINA RESULT:    -8.159      2.040      2.877
REMARK INTER + INTRA:         -12.119
REMARK INTER:                 -11.358
REMARK INTRA:                  -0.761
REMARK UNBOUND:                -0.621
REMARK  Name = 
REMARK  10 active torsions:
REMARK  status: ('A' for Active; 'I' for Inactive)
REMARK    1  A    between atoms: C_1  and  C_2
REMARK    2  A    between atoms: C_2  and  C_3
REMARK    3  A    between atoms: C_2  and  C_4
REMARK    4  A    between atoms: C_2  and  C_5
REMARK    5  A    between atoms: N_8  and  C_9
REMARK    6  A    between atoms: C_9  and  C_10
REMARK    7  A    between atoms: C_10  and  C_11
REMARK    8  A    between atoms: C_15  and  C_16
REMARK    9  A    between atoms: C_19  and  C_20
REMARK   10  A    between atoms: C_29  and  C_30
REMARK                            x       y       z     vdW  Elec       q    Type
REMARK                         _______ _______ _______ _____ _____    ______ ____
ROOT
ATOM      1  C   UNL     1      47.387   6.712  13.411  0.00  0.00    +0.000 C 
ENDROOT
BRANCH   1   5
ATOM      2  C   UNL     1      50.281   5.342  16.916  0.00  0.00    +0.000 A 
ATOM      3  N   UNL     1      49.064   5.428  16.270  0.00  0.00    +0.000 NA
ATOM      4  C   UNL     1      48.810   6.377  15.355  0.00  0.00    +0.000 A 
ATOM      5  N   UNL     1      47.525   6.374  14.822  0.00  0.00    +0.000 N 
ATOM      6  C   UNL     1      49.770   7.308  15.024  0.00  0.00    +0.000 A 
ATOM      7  C   UNL     1      51.020   7.232  15.632  0.00  0.00    +0.000 A 
ATOM      8  C   UNL     1      51.302   6.263  16.609  0.00  0.00    +0.000 A 
ATOM      9  H   UNL     1      47.091   5.502  15.116  0.00  0.00    +0.000 HD
BRANCH   8  10
ATOM     10  C   UNL     1      52.675   6.293  17.201  0.00  0.00    +0.000 C 
ATOM     11  N   UNL     1      52.894   7.116  18.282  0.00  0.00    +0.000 N 
ATOM     12  O   UNL     1      53.621   5.656  16.777  0.00  0.00    +0.000 OA
ATOM     13  H   UNL     1      52.177   7.589  18.807  0.00  0.00    +0.000 HD
ATOM     14  H   UNL     1      53.836   7.127  18.651  0.00  0.00    +0.000 HD
ENDBRANCH   8  10
BRANCH   2  16
ATOM     15  C   UNL     1      51.426   3.179  17.619  0.00  0.00    +0.000 C 
ATOM     16  C   UNL     1      50.314   4.218  17.977  0.00  0.00    +0.000 C 
ATOM     17  C   UNL     1      48.990   3.430  17.992  0.00  0.00    +0.000 C 
ATOM     18  C   UNL     1      50.682   4.697  19.396  0.00  0.00    +0.000 C 
ENDBRANCH   2  16
ENDBRANCH   1   5
BRANCH   1  19
ATOM     19  C   UNL     1      46.001   7.279  13.074  0.00  0.00    +0.000 C 
BRANCH  19  20
ATOM     20  C   UNL     1      45.067   6.272  12.426  0.00  0.00    +0.000 A 
ATOM     21  C   UNL     1      43.793   6.018  12.936  0.00  0.00    +0.000 A 
ATOM     22  C   UNL     1      42.986   5.076  12.317  0.00  0.00    +0.000 A 
ATOM     23  C   UNL     1      43.473   4.386  11.218  0.00  0.00    +0.000 A 
ATOM     24  C   UNL     1      44.756   4.663  10.749  0.00  0.00    +0.000 A 
ATOM     25  N   UNL     1      45.551   5.590  11.353  0.00  0.00    +0.000 NA
BRANCH  24  26
ATOM     26  C   UNL     1      45.318   3.963   9.572  0.00  0.00    +0.000 A 
ATOM     27  C   UNL     1      45.306   2.558   9.478  0.00  0.00    +0.000 A 
ATOM     28  C   UNL     1      45.860   1.887   8.382  0.00  0.00    +0.000 A 
ATOM     29  C   UNL     1      46.443   2.604   7.332  0.00  0.00    +0.000 A 
ATOM     30  C   UNL     1      46.454   4.004   7.402  0.00  0.00    +0.000 A 
ATOM     31  C   UNL     1      45.897   4.670   8.504  0.00  0.00    +0.000 A 
BRANCH  29  32
ATOM     32  C   UNL     1      47.041   1.891   6.145  0.00  0.00    +0.000 C 
ATOM     33  F   UNL     1      46.848   0.542   6.167  0.00  0.00    +0.000 F 
ATOM     34  F   UNL     1      46.523   2.321   4.961  0.00  0.00    +0.000 F 
ATOM     35  F   UNL     1      48.388   2.069   6.052  0.00  0.00    +0.000 F 
ENDBRANCH  29  32
ENDBRANCH  24  26
ENDBRANCH  19  20
ENDBRANCH   1  19
TORSDOF 7
ENDMDL
MODEL 3
REMARK VINA RESULT:    -7.810      1.099      1.655
REMARK INTER + INTRA:         -11.627
REMARK INTER:                 -10.563
REMARK INTRA:                  -1.064
REMARK UNBOUND:                -0.621
REMARK  Name = 
REMARK  10 active torsions:
REMARK  status: ('A' for Active; 'I' for Inactive)
REMARK    1  A    between atoms: C_1  and  C_2
REMARK    2  A    between atoms: C_2  and  C_3
REMARK    3  A    between atoms: C_2  and  C_4
REMARK    4  A    between atoms: C_2  and  C_5
REMARK    5  A    between atoms: N_8  and  C_9
REMARK    6  A    between atoms: C_9  and  C_10
REMARK    7  A    between atoms: C_10  and  C_11
REMARK    8  A    between atoms: C_15  and  C_16
REMARK    9  A    between atoms: C_19  and  C_20
REMARK   10  A    between atoms: C_29  and  C_30
REMARK                            x       y       z     vdW  Elec       q    Type
REMARK                         _______ _______ _______ _____ _____    ______ ____
ROOT
ATOM      1  C   UNL     1      47.061   7.849  12.252  0.00  0.00    +0.000 C 
ENDROOT
BRANCH   1   5
ATOM      2  C   UNL     1      48.510   7.114  16.713  0.00  0.00    +0.000 A 
ATOM      3  N   UNL     1      48.384   7.849  15.552  0.00  0.00    +0.000 NA
ATOM      4  C   UNL     1      48.108   7.273  14.371  0.00  0.00    +0.000 A 
ATOM      5  N   UNL     1      48.059   8.131  13.277  0.00  0.00    +0.000 N 
ATOM      6  C   UNL     1      47.938   5.909  14.279  0.00  0.00    +0.000 A 
ATOM      7  C   UNL     1      48.025   5.139  15.435  0.00  0.00    +0.000 A 
ATOM      8  C   UNL     1      48.337   5.716  16.677  0.00  0.00    +0.000 A 
ATOM      9  H   UNL     1      48.059   9.077  13.650  0.00  0.00    +0.000 HD
BRANCH   8  10
ATOM     10  C   UNL     1      48.419   4.784  17.844  0.00  0.00    +0.000 C 
ATOM     11  N   UNL     1      47.250   4.454  18.490  0.00  0.00    +0.000 N 
ATOM     12  O   UNL     1      49.454   4.315  18.278  0.00  0.00    +0.000 OA
ATOM     13  H   UNL     1      46.323   4.664  18.158  0.00  0.00    +0.000 HD
ATOM     14  H   UNL     1      47.338   3.835  19.285  0.00  0.00    +0.000 HD
ENDBRANCH   8  10
BRANCH   2  16
ATOM     15  C   UNL     1      48.920   9.493  17.524  0.00  0.00    +0.000 C 
ATOM     16  C   UNL     1      48.901   7.984  17.930  0.00  0.00    +0.000 C 
ATOM     17  C   UNL     1      50.328   7.657  18.409  0.00  0.00    +0.000 C 
ATOM     18  C   UNL     1      47.901   7.917  19.103  0.00  0.00    +0.000 C 
ENDBRANCH   2  16
ENDBRANCH   1   5
BRANCH   1  19
ATOM     19  C   UNL     1      45.641   7.749  12.826  0.00  0.00    +0.000 C 
BRANCH  19  20
ATOM     20  C   UNL     1      44.856   6.552  12.317  0.00  0.00    +0.000 A 
ATOM     21  C   UNL     1      43.679   6.128  12.935  0.00  0.00    +0.000 A 
ATOM     22  C   UNL     1      43.011   5.019  12.441  0.00  0.00    +0.000 A 
ATOM     23  C   UNL     1      43.541   4.337  11.358  0.00  0.00    +0.000 A 
ATOM     24  C   UNL     1      44.726   4.788  10.778  0.00  0.00    +0.000 A 
ATOM     25  N   UNL     1      45.384   5.880  11.259  0.00  0.00    +0.000 NA
BRANCH  24  26
ATOM     26  C   UNL     1      45.327   4.103   9.611  0.00  0.00    +0.000 A 
ATOM     27  C   UNL     1      45.971   4.826   8.587  0.00  0.00    +0.000 A 
ATOM     28  C   UNL     1      46.517   4.190   7.467  0.00  0.00    +0.000 A 
ATOM     29  C   UNL     1      46.445   2.799   7.335  0.00  0.00    +0.000 A 
ATOM     30  C   UNL     1      45.819   2.062   8.350  0.00  0.00    +0.000 A 
ATOM     31  C   UNL     1      45.272   2.706   9.469  0.00  0.00    +0.000 A 
BRANCH  29  32
ATOM     32  C   UNL     1      47.033   2.103   6.132  0.00  0.00    +0.000 C 
ATOM     33  F   UNL     1      48.356   2.372   5.942  0.00  0.00    +0.000 F 
ATOM     34  F   UNL     1      46.937   0.747   6.214  0.00  0.00    +0.000 F 
ATOM     35  F   UNL     1      46.414   2.453   4.971  0.00  0.00    +0.000 F 
ENDBRANCH  29  32
ENDBRANCH  24  26
ENDBRANCH  19  20
ENDBRANCH   1  19
TORSDOF 7
ENDMDL
MODEL 4
REMARK VINA RESULT:    -7.728      1.636      2.399
REMARK INTER + INTRA:         -11.511
REMARK INTER:                 -10.766
REMARK INTRA:                  -0.746
REMARK UNBOUND:                -0.621
REMARK  Name = 
REMARK  10 active torsions:
REMARK  status: ('A' for Active; 'I' for Inactive)
REMARK    1  A    between atoms: C_1  and  C_2
REMARK    2  A    between atoms: C_2  and  C_3
REMARK    3  A    between atoms: C_2  and  C_4
REMARK    4  A    between atoms: C_2  and  C_5
REMARK    5  A    between atoms: N_8  and  C_9
REMARK    6  A    between atoms: C_9  and  C_10
REMARK    7  A    between atoms: C_10  and  C_11
REMARK    8  A    between atoms: C_15  and  C_16
REMARK    9  A    between atoms: C_19  and  C_20
REMARK   10  A    between atoms: C_29  and  C_30
REMARK                            x       y       z     vdW  Elec       q    Type
REMARK                         _______ _______ _______ _____ _____    ______ ____
ROOT
ATOM      1  C   UNL     1      47.152   5.385  14.003  0.00  0.00    +0.000 C 
ENDROOT
BRANCH   1   5
ATOM      2  C   UNL     1      48.625   6.710  18.317  0.00  0.00    +0.000 A 
ATOM      3  N   UNL     1      48.523   6.833  16.946  0.00  0.00    +0.000 NA
ATOM      4  C   UNL     1      48.197   5.794  16.162  0.00  0.00    +0.000 A 
ATOM      5  N   UNL     1      48.180   6.051  14.795  0.00  0.00    +0.000 N 
ATOM      6  C   UNL     1      47.949   4.553  16.707  0.00  0.00    +0.000 A 
ATOM      7  C   UNL     1      48.011   4.400  18.089  0.00  0.00    +0.000 A 
ATOM      8  C   UNL     1      48.373   5.466  18.929  0.00  0.00    +0.000 A 
ATOM      9  H   UNL     1      48.239   7.060  14.688  0.00  0.00    +0.000 HD
BRANCH   8  10
ATOM     10  C   UNL     1      48.420   5.175  20.395  0.00  0.00    +0.000 C 
ATOM     11  N   UNL     1      47.243   5.241  21.104  0.00  0.00    +0.000 N 
ATOM     12  O   UNL     1      49.435   4.907  21.011  0.00  0.00    +0.000 OA
ATOM     13  H   UNL     1      46.324   5.320  20.700  0.00  0.00    +0.000 HD
ATOM     14  H   UNL     1      47.308   5.054  22.096  0.00  0.00    +0.000 HD
ENDBRANCH   8  10
BRANCH   2  16
ATOM     15  C   UNL     1      48.039   8.451  20.082  0.00  0.00    +0.000 C 
ATOM     16  C   UNL     1      49.082   8.020  19.000  0.00  0.00    +0.000 C 
ATOM     17  C   UNL     1      49.146   9.180  17.988  0.00  0.00    +0.000 C 
ATOM     18  C   UNL     1      50.410   7.899  19.777  0.00  0.00    +0.000 C 
ENDBRANCH   2  16
ENDBRANCH   1   5
BRANCH   1  19
ATOM     19  C   UNL     1      45.937   6.285  13.740  0.00  0.00    +0.000 C 
BRANCH  19  20
ATOM     20  C   UNL     1      44.946   5.703  12.747  0.00  0.00    +0.000 A 
ATOM     21  C   UNL     1      43.569   5.762  12.964  0.00  0.00    +0.000 A 
ATOM     22  C   UNL     1      42.708   5.200  12.034  0.00  0.00    +0.000 A 
ATOM     23  C   UNL     1      43.235   4.568  10.919  0.00  0.00    +0.000 A 
ATOM     24  C   UNL     1      44.618   4.522  10.748  0.00  0.00    +0.000 A 
ATOM     25  N   UNL     1      45.467   5.076  11.658  0.00  0.00    +0.000 NA
BRANCH  24  26
ATOM     26  C   UNL     1      45.232   3.870   9.569  0.00  0.00    +0.000 A 
ATOM     27  C   UNL     1      45.297   2.467   9.457  0.00  0.00    +0.000 A 
ATOM     28  C   UNL     1      45.900   1.842   8.361  0.00  0.00    +0.000 A 
ATOM     29  C   UNL     1      46.456   2.604   7.327  0.00  0.00    +0.000 A 
ATOM     30  C   UNL     1      46.390   4.002   7.416  0.00  0.00    +0.000 A 
ATOM     31  C   UNL     1      45.785   4.621   8.518  0.00  0.00    +0.000 A 
BRANCH  29  32
ATOM     32  C   UNL     1      47.107   1.940   6.139  0.00  0.00    +0.000 C 
ATOM     33  F   UNL     1      46.863   0.601   6.063  0.00  0.00    +0.000 F 
ATOM     34  F   UNL     1      46.687   2.462   4.953  0.00  0.00    +0.000 F 
ATOM     35  F   UNL     1      48.463   2.069   6.145  0.00  0.00    +0.000 F 
ENDBRANCH  29  32
ENDBRANCH  24  26
ENDBRANCH  19  20
ENDBRANCH   1  19
TORSDOF 7
ENDMDL
MODEL 5
REMARK VINA RESULT:    -7.660      3.453      4.439
REMARK INTER + INTRA:         -11.416
REMARK INTER:                 -10.444
REMARK INTRA:                  -0.972
REMARK UNBOUND:                -0.621
REMARK  Name = 
REMARK  10 active torsions:
REMARK  status: ('A' for Active; 'I' for Inactive)
REMARK    1  A    between atoms: C_1  and  C_2
REMARK    2  A    between atoms: C_2  and  C_3
REMARK    3  A    between atoms: C_2  and  C_4
REMARK    4  A    between atoms: C_2  and  C_5
REMARK    5  A    between atoms: N_8  and  C_9
REMARK    6  A    between atoms: C_9  and  C_10
REMARK    7  A    between atoms: C_10  and  C_11
REMARK    8  A    between atoms: C_15  and  C_16
REMARK    9  A    between atoms: C_19  and  C_20
REMARK   10  A    between atoms: C_29  and  C_30
REMARK                            x       y       z     vdW  Elec       q    Type
REMARK                         _______ _______ _______ _____ _____    ______ ____
ROOT
ATOM      1  C   UNL     1      46.725   7.175  13.412  0.00  0.00    +0.000 C 
ENDROOT
BRANCH   1   5
ATOM      2  C   UNL     1      51.112   8.972  13.164  0.00  0.00    +0.000 A 
ATOM      3  N   UNL     1      49.821   8.905  13.649  0.00  0.00    +0.000 NA
ATOM      4  C   UNL     1      48.837   8.298  12.968  0.00  0.00    +0.000 A 
ATOM      5  N   UNL     1      47.576   8.350  13.553  0.00  0.00    +0.000 N 
ATOM      6  C   UNL     1      49.086   7.713  11.745  0.00  0.00    +0.000 A 
ATOM      7  C   UNL     1      50.382   7.733  11.240  0.00  0.00    +0.000 A 
ATOM      8  C   UNL     1      51.425   8.382  11.923  0.00  0.00    +0.000 A 
ATOM      9  H   UNL     1      47.710   8.690  14.502  0.00  0.00    +0.000 HD
BRANCH   8  10
ATOM     10  C   UNL     1      52.771   8.350  11.272  0.00  0.00    +0.000 C 
ATOM     11  N   UNL     1      53.625   7.324  11.608  0.00  0.00    +0.000 N 
ATOM     12  O   UNL     1      53.173   9.183  10.483  0.00  0.00    +0.000 OA
ATOM     13  H   UNL     1      53.372   6.507  12.139  0.00  0.00    +0.000 HD
ATOM     14  H   UNL     1      54.534   7.337  11.164  0.00  0.00    +0.000 HD
ENDBRANCH   8  10
BRANCH   2  16
ATOM     15  C   UNL     1      51.257  10.327  15.315  0.00  0.00    +0.000 C 
ATOM     16  C   UNL     1      52.054   9.781  14.086  0.00  0.00    +0.000 C 
ATOM     17  C   UNL     1      52.611  11.020  13.360  0.00  0.00    +0.000 C 
ATOM     18  C   UNL     1      53.196   8.952  14.708  0.00  0.00    +0.000 C 
ENDBRANCH   2  16
ENDBRANCH   1   5
BRANCH   1  19
ATOM     19  C   UNL     1      45.329   7.519  12.876  0.00  0.00    +0.000 C 
BRANCH  19  20
ATOM     20  C   UNL     1      44.578   6.327  12.309  0.00  0.00    +0.000 A 
ATOM     21  C   UNL     1      43.370   5.893  12.856  0.00  0.00    +0.000 A 
ATOM     22  C   UNL     1      42.734   4.788  12.311  0.00  0.00    +0.000 A 
ATOM     23  C   UNL     1      43.324   4.122  11.249  0.00  0.00    +0.000 A 
ATOM     24  C   UNL     1      44.537   4.584  10.741  0.00  0.00    +0.000 A 
ATOM     25  N   UNL     1      45.165   5.671  11.272  0.00  0.00    +0.000 NA
BRANCH  24  26
ATOM     26  C   UNL     1      45.204   3.917   9.600  0.00  0.00    +0.000 A 
ATOM     27  C   UNL     1      45.836   4.659   8.583  0.00  0.00    +0.000 A 
ATOM     28  C   UNL     1      46.444   4.038   7.486  0.00  0.00    +0.000 A 
ATOM     29  C   UNL     1      46.448   2.644   7.372  0.00  0.00    +0.000 A 
ATOM     30  C   UNL     1      45.834   1.888   8.381  0.00  0.00    +0.000 A 
ATOM     31  C   UNL     1      45.226   2.516   9.477  0.00  0.00    +0.000 A 
BRANCH  29  32
ATOM     32  C   UNL     1      47.102   1.964   6.195  0.00  0.00    +0.000 C 
ATOM     33  F   UNL     1      46.879   0.620   6.150  0.00  0.00    +0.000 F 
ATOM     34  F   UNL     1      46.667   2.453   5.000  0.00  0.00    +0.000 F 
ATOM     35  F   UNL     1      48.455   2.114   6.190  0.00  0.00    +0.000 F 
ENDBRANCH  29  32
ENDBRANCH  24  26
ENDBRANCH  19  20
ENDBRANCH   1  19
TORSDOF 7
ENDMDL
MODEL 6
REMARK VINA RESULT:    -7.373      2.917      4.701
REMARK INTER + INTRA:         -11.011
REMARK INTER:                  -9.306
REMARK INTRA:                  -1.705
REMARK UNBOUND:                -0.621
REMARK  Name = 
REMARK  10 active torsions:
REMARK  status: ('A' for Active; 'I' for Inactive)
REMARK    1  A    between atoms: C_1  and  C_2
REMARK    2  A    between atoms: C_2  and  C_3
REMARK    3  A    between atoms: C_2  and  C_4
REMARK    4  A    between atoms: C_2  and  C_5
REMARK    5  A    between atoms: N_8  and  C_9
REMARK    6  A    between atoms: C_9  and  C_10
REMARK    7  A    between atoms: C_10  and  C_11
REMARK    8  A    between atoms: C_15  and  C_16
REMARK    9  A    between atoms: C_19  and  C_20
REMARK   10  A    between atoms: C_29  and  C_30
REMARK                            x       y       z     vdW  Elec       q    Type
REMARK                         _______ _______ _______ _____ _____    ______ ____
ROOT
ATOM      1  C   UNL     1      50.776   8.647  13.613  0.00  0.00    +0.000 C 
ENDROOT
BRANCH   1   5
ATOM      2  C   UNL     1      49.265   5.213  16.521  0.00  0.00    +0.000 A 
ATOM      3  N   UNL     1      49.095   6.221  15.594  0.00  0.00    +0.000 NA
ATOM      4  C   UNL     1      50.028   7.165  15.390  0.00  0.00    +0.000 A 
ATOM      5  N   UNL     1      49.701   8.147  14.461  0.00  0.00    +0.000 N 
ATOM      6  C   UNL     1      51.203   7.156  16.110  0.00  0.00    +0.000 A 
ATOM      7  C   UNL     1      51.422   6.136  17.030  0.00  0.00    +0.000 A 
ATOM      8  C   UNL     1      50.451   5.151  17.278  0.00  0.00    +0.000 A 
ATOM      9  H   UNL     1      48.867   7.824  13.978  0.00  0.00    +0.000 HD
BRANCH   8  10
ATOM     10  C   UNL     1      50.796   4.116  18.301  0.00  0.00    +0.000 C 
ATOM     11  N   UNL     1      50.282   4.267  19.568  0.00  0.00    +0.000 N 
ATOM     12  O   UNL     1      51.521   3.162  18.097  0.00  0.00    +0.000 OA
ATOM     13  H   UNL     1      49.571   4.929  19.833  0.00  0.00    +0.000 HD
ATOM     14  H   UNL     1      50.544   3.560  20.244  0.00  0.00    +0.000 HD
ENDBRANCH   8  10
BRANCH   2  16
ATOM     15  C   UNL     1      47.112   4.475  15.377  0.00  0.00    +0.000 C 
ATOM     16  C   UNL     1      48.029   4.289  16.629  0.00  0.00    +0.000 C 
ATOM     17  C   UNL     1      47.162   4.664  17.847  0.00  0.00    +0.000 C 
ATOM     18  C   UNL     1      48.363   2.783  16.638  0.00  0.00    +0.000 C 
ENDBRANCH   2  16
ENDBRANCH   1   5
BRANCH   1  19
ATOM     19  C   UNL     1      50.275   9.105  12.236  0.00  0.00    +0.000 C 
BRANCH  19  20
ATOM     20  C   UNL     1      48.766   9.250  12.150  0.00  0.00    +0.000 A 
ATOM     21  C   UNL     1      48.144  10.498  12.213  0.00  0.00    +0.000 A 
ATOM     22  C   UNL     1      46.761  10.574  12.148  0.00  0.00    +0.000 A 
ATOM     23  C   UNL     1      46.023   9.406  12.047  0.00  0.00    +0.000 A 
ATOM     24  C   UNL     1      46.685   8.180  11.999  0.00  0.00    +0.000 A 
ATOM     25  N   UNL     1      48.044   8.101  12.060  0.00  0.00    +0.000 NA
BRANCH  24  26
ATOM     26  C   UNL     1      45.945   6.904  11.879  0.00  0.00    +0.000 A 
ATOM     27  C   UNL     1      45.153   6.412  12.935  0.00  0.00    +0.000 A 
ATOM     28  C   UNL     1      44.473   5.193  12.841  0.00  0.00    +0.000 A 
ATOM     29  C   UNL     1      44.555   4.422  11.677  0.00  0.00    +0.000 A 
ATOM     30  C   UNL     1      45.329   4.901  10.610  0.00  0.00    +0.000 A 
ATOM     31  C   UNL     1      46.009   6.123  10.711  0.00  0.00    +0.000 A 
BRANCH  29  32
ATOM     32  C   UNL     1      43.823   3.107  11.564  0.00  0.00    +0.000 C 
ATOM     33  F   UNL     1      44.007   2.289  12.639  0.00  0.00    +0.000 F 
ATOM     34  F   UNL     1      42.476   3.267  11.445  0.00  0.00    +0.000 F 
ATOM     35  F   UNL     1      44.212   2.384  10.478  0.00  0.00    +0.000 F 
ENDBRANCH  29  32
ENDBRANCH  24  26
ENDBRANCH  19  20
ENDBRANCH   1  19
TORSDOF 7
ENDMDL
MODEL 7
REMARK VINA RESULT:    -7.313      3.689      5.175
REMARK INTER + INTRA:         -10.926
REMARK INTER:                  -9.098
REMARK INTRA:                  -1.828
REMARK UNBOUND:                -0.621
REMARK  Name = 
REMARK  10 active torsions:
REMARK  status: ('A' for Active; 'I' for Inactive)
REMARK    1  A    between atoms: C_1  and  C_2
REMARK    2  A    between atoms: C_2  and  C_3
REMARK    3  A    between atoms: C_2  and  C_4
REMARK    4  A    between atoms: C_2  and  C_5
REMARK    5  A    between atoms: N_8  and  C_9
REMARK    6  A    between atoms: C_9  and  C_10
REMARK    7  A    between atoms: C_10  and  C_11
REMARK    8  A    between atoms: C_15  and  C_16
REMARK    9  A    between atoms: C_19  and  C_20
REMARK   10  A    between atoms: C_29  and  C_30
REMARK                            x       y       z     vdW  Elec       q    Type
REMARK                         _______ _______ _______ _____ _____    ______ ____
ROOT
ATOM      1  C   UNL     1      51.374   8.754  13.981  0.00  0.00    +0.000 C 
ENDROOT
BRANCH   1   5
ATOM      2  C   UNL     1      49.738   5.858  17.369  0.00  0.00    +0.000 A 
ATOM      3  N   UNL     1      50.500   6.170  16.261  0.00  0.00    +0.000 NA
ATOM      4  C   UNL     1      50.218   7.223  15.477  0.00  0.00    +0.000 A 
ATOM      5  N   UNL     1      51.042   7.388  14.368  0.00  0.00    +0.000 N 
ATOM      6  C   UNL     1      49.143   8.038  15.757  0.00  0.00    +0.000 A 
ATOM      7  C   UNL     1      48.371   7.773  16.884  0.00  0.00    +0.000 A 
ATOM      8  C   UNL     1      48.632   6.664  17.706  0.00  0.00    +0.000 A 
ATOM      9  H   UNL     1      51.829   6.757  14.495  0.00  0.00    +0.000 HD
BRANCH   8  10
ATOM     10  C   UNL     1      47.723   6.474  18.879  0.00  0.00    +0.000 C 
ATOM     11  N   UNL     1      46.693   5.570  18.756  0.00  0.00    +0.000 N 
ATOM     12  O   UNL     1      47.817   7.083  19.927  0.00  0.00    +0.000 OA
ATOM     13  H   UNL     1      46.584   4.912  18.002  0.00  0.00    +0.000 HD
ATOM     14  H   UNL     1      46.085   5.473  19.559  0.00  0.00    +0.000 HD
ENDBRANCH   8  10
BRANCH   2  16
ATOM     15  C   UNL     1      51.641   4.179  17.576  0.00  0.00    +0.000 C 
ATOM     16  C   UNL     1      50.210   4.565  18.072  0.00  0.00    +0.000 C 
ATOM     17  C   UNL     1      49.302   3.373  17.710  0.00  0.00    +0.000 C 
ATOM     18  C   UNL     1      50.358   4.694  19.602  0.00  0.00    +0.000 C 
ENDBRANCH   2  16
ENDBRANCH   1   5
BRANCH   1  19
ATOM     19  C   UNL     1      51.000   9.060  12.524  0.00  0.00    +0.000 C 
BRANCH  19  20
ATOM     20  C   UNL     1      49.526   9.362  12.319  0.00  0.00    +0.000 A 
ATOM     21  C   UNL     1      49.062  10.665  12.137  0.00  0.00    +0.000 A 
ATOM     22  C   UNL     1      47.704  10.888  11.972  0.00  0.00    +0.000 A 
ATOM     23  C   UNL     1      46.831   9.813  12.017  0.00  0.00    +0.000 A 
ATOM     24  C   UNL     1      47.337   8.529  12.214  0.00  0.00    +0.000 A 
ATOM     25  N   UNL     1      48.671   8.305  12.373  0.00  0.00    +0.000 NA
BRANCH  24  26
ATOM     26  C   UNL     1      46.449   7.345  12.258  0.00  0.00    +0.000 A 
ATOM     27  C   UNL     1      45.211   7.330  11.585  0.00  0.00    +0.000 A 
ATOM     28  C   UNL     1      44.353   6.227  11.645  0.00  0.00    +0.000 A 
ATOM     29  C   UNL     1      44.709   5.089  12.377  0.00  0.00    +0.000 A 
ATOM     30  C   UNL     1      45.943   5.081  13.043  0.00  0.00    +0.000 A 
ATOM     31  C   UNL     1      46.798   6.190  12.980  0.00  0.00    +0.000 A 
BRANCH  29  32
ATOM     32  C   UNL     1      43.792   3.892  12.446  0.00  0.00    +0.000 C 
ATOM     33  F   UNL     1      42.884   3.845  11.430  0.00  0.00    +0.000 F 
ATOM     34  F   UNL     1      44.469   2.712  12.394  0.00  0.00    +0.000 F 
ATOM     35  F   UNL     1      43.064   3.857  13.595  0.00  0.00    +0.000 F 
ENDBRANCH  29  32
ENDBRANCH  24  26
ENDBRANCH  19  20
ENDBRANCH   1  19
TORSDOF 7
ENDMDL
MODEL 8
REMARK VINA RESULT:    -7.178      3.997      6.073
REMARK INTER + INTRA:         -10.736
REMARK INTER:                  -9.806
REMARK INTRA:                  -0.930
REMARK UNBOUND:                -0.621
REMARK  Name = 
REMARK  10 active torsions:
REMARK  status: ('A' for Active; 'I' for Inactive)
REMARK    1  A    between atoms: C_1  and  C_2
REMARK    2  A    between atoms: C_2  and  C_3
REMARK    3  A    between atoms: C_2  and  C_4
REMARK    4  A    between atoms: C_2  and  C_5
REMARK    5  A    between atoms: N_8  and  C_9
REMARK    6  A    between atoms: C_9  and  C_10
REMARK    7  A    between atoms: C_10  and  C_11
REMARK    8  A    between atoms: C_15  and  C_16
REMARK    9  A    between atoms: C_19  and  C_20
REMARK   10  A    between atoms: C_29  and  C_30
REMARK                            x       y       z     vdW  Elec       q    Type
REMARK                         _______ _______ _______ _____ _____    ______ ____
ROOT
ATOM      1  C   UNL     1      49.428   5.235  17.893  0.00  0.00    +0.000 C 
ENDROOT
BRANCH   1   5
ATOM      2  C   UNL     1      53.370   2.598  18.104  0.00  0.00    +0.000 A 
ATOM      3  N   UNL     1      52.672   3.783  17.993  0.00  0.00    +0.000 NA
ATOM      4  C   UNL     1      51.385   3.818  17.611  0.00  0.00    +0.000 A 
ATOM      5  N   UNL     1      50.823   5.085  17.495  0.00  0.00    +0.000 N 
ATOM      6  C   UNL     1      50.710   2.654  17.314  0.00  0.00    +0.000 A 
ATOM      7  C   UNL     1      51.373   1.438  17.445  0.00  0.00    +0.000 A 
ATOM      8  C   UNL     1      52.725   1.377  17.821  0.00  0.00    +0.000 A 
ATOM      9  H   UNL     1      51.480   5.734  17.922  0.00  0.00    +0.000 HD
BRANCH   8  10
ATOM     10  C   UNL     1      53.332   0.014  17.912  0.00  0.00    +0.000 C 
ATOM     11  N   UNL     1      53.969  -0.484  16.798  0.00  0.00    +0.000 N 
ATOM     12  O   UNL     1      53.280  -0.698  18.897  0.00  0.00    +0.000 OA
ATOM     13  H   UNL     1      54.197   0.045  15.973  0.00  0.00    +0.000 HD
ATOM     14  H   UNL     1      54.357  -1.415  16.884  0.00  0.00    +0.000 HD
ENDBRANCH   8  10
BRANCH   2  16
ATOM     15  C   UNL     1      55.074   4.288  18.957  0.00  0.00    +0.000 C 
ATOM     16  C   UNL     1      54.852   2.813  18.488  0.00  0.00    +0.000 C 
ATOM     17  C   UNL     1      55.775   2.615  17.270  0.00  0.00    +0.000 C 
ATOM     18  C   UNL     1      55.328   1.957  19.679  0.00  0.00    +0.000 C 
ENDBRANCH   2  16
ENDBRANCH   1   5
BRANCH   1  19
ATOM     19  C   UNL     1      48.813   6.551  17.397  0.00  0.00    +0.000 C 
BRANCH  19  20
ATOM     20  C   UNL     1      48.947   6.764  15.899  0.00  0.00    +0.000 A 
ATOM     21  C   UNL     1      49.959   7.557  15.357  0.00  0.00    +0.000 A 
ATOM     22  C   UNL     1      50.026   7.733  13.984  0.00  0.00    +0.000 A 
ATOM     23  C   UNL     1      49.069   7.137  13.178  0.00  0.00    +0.000 A 
ATOM     24  C   UNL     1      48.068   6.363  13.762  0.00  0.00    +0.000 A 
ATOM     25  N   UNL     1      48.001   6.185  15.111  0.00  0.00    +0.000 NA
BRANCH  24  26
ATOM     26  C   UNL     1      47.030   5.694  12.946  0.00  0.00    +0.000 A 
ATOM     27  C   UNL     1      46.531   6.283  11.766  0.00  0.00    +0.000 A 
ATOM     28  C   UNL     1      45.530   5.673  11.004  0.00  0.00    +0.000 A 
ATOM     29  C   UNL     1      44.994   4.440  11.392  0.00  0.00    +0.000 A 
ATOM     30  C   UNL     1      45.485   3.834  12.557  0.00  0.00    +0.000 A 
ATOM     31  C   UNL     1      46.489   4.451  13.317  0.00  0.00    +0.000 A 
BRANCH  29  32
ATOM     32  C   UNL     1      43.915   3.772  10.576  0.00  0.00    +0.000 C 
ATOM     33  F   UNL     1      42.676   3.858  11.138  0.00  0.00    +0.000 F 
ATOM     34  F   UNL     1      43.795   4.307   9.330  0.00  0.00    +0.000 F 
ATOM     35  F   UNL     1      44.146   2.443  10.392  0.00  0.00    +0.000 F 
ENDBRANCH  29  32
ENDBRANCH  24  26
ENDBRANCH  19  20
ENDBRANCH   1  19
TORSDOF 7
ENDMDL
MODEL 9
REMARK VINA RESULT:    -7.124      3.691      5.264
REMARK INTER + INTRA:         -10.660
REMARK INTER:                  -9.100
REMARK INTRA:                  -1.560
REMARK UNBOUND:                -0.621
REMARK  Name = 
REMARK  10 active torsions:
REMARK  status: ('A' for Active; 'I' for Inactive)
REMARK    1  A    between atoms: C_1  and  C_2
REMARK    2  A    between atoms: C_2  and  C_3
REMARK    3  A    between atoms: C_2  and  C_4
REMARK    4  A    between atoms: C_2  and  C_5
REMARK    5  A    between atoms: N_8  and  C_9
REMARK    6  A    between atoms: C_9  and  C_10
REMARK    7  A    between atoms: C_10  and  C_11
REMARK    8  A    between atoms: C_15  and  C_16
REMARK    9  A    between atoms: C_19  and  C_20
REMARK   10  A    between atoms: C_29  and  C_30
REMARK                            x       y       z     vdW  Elec       q    Type
REMARK                         _______ _______ _______ _____ _____    ______ ____
ROOT
ATOM      1  C   UNL     1      49.940   9.487  15.957  0.00  0.00    +0.000 C 
ENDROOT
BRANCH   1   5
ATOM      2  C   UNL     1      50.702   5.043  17.441  0.00  0.00    +0.000 A 
ATOM      3  N   UNL     1      51.087   6.267  16.932  0.00  0.00    +0.000 NA
ATOM      4  C   UNL     1      50.211   7.102  16.351  0.00  0.00    +0.000 A 
ATOM      5  N   UNL     1      50.748   8.279  15.839  0.00  0.00    +0.000 N 
ATOM      6  C   UNL     1      48.881   6.760  16.242  0.00  0.00    +0.000 A 
ATOM      7  C   UNL     1      48.451   5.548  16.773  0.00  0.00    +0.000 A 
ATOM      8  C   UNL     1      49.352   4.647  17.365  0.00  0.00    +0.000 A 
ATOM      9  H   UNL     1      51.698   8.343  16.194  0.00  0.00    +0.000 HD
BRANCH   8  10
ATOM     10  C   UNL     1      48.773   3.369  17.884  0.00  0.00    +0.000 C 
ATOM     11  N   UNL     1      48.535   3.272  19.236  0.00  0.00    +0.000 N 
ATOM     12  O   UNL     1      48.521   2.398  17.196  0.00  0.00    +0.000 OA
ATOM     13  H   UNL     1      48.574   4.036  19.890  0.00  0.00    +0.000 HD
ATOM     14  H   UNL     1      48.159   2.390  19.561  0.00  0.00    +0.000 HD
ENDBRANCH   8  10
BRANCH   2  16
ATOM     15  C   UNL     1      51.915   4.307  19.556  0.00  0.00    +0.000 C 
ATOM     16  C   UNL     1      51.893   4.227  17.995  0.00  0.00    +0.000 C 
ATOM     17  C   UNL     1      53.236   4.816  17.523  0.00  0.00    +0.000 C 
ATOM     18  C   UNL     1      51.822   2.716  17.691  0.00  0.00    +0.000 C 
ENDBRANCH   2  16
ENDBRANCH   1   5
BRANCH   1  19
ATOM     19  C   UNL     1      49.710  10.176  14.605  0.00  0.00    +0.000 C 
BRANCH  19  20
ATOM     20  C   UNL     1      49.544   9.209  13.445  0.00  0.00    +0.000 A 
ATOM     21  C   UNL     1      50.474   9.142  12.407  0.00  0.00    +0.000 A 
ATOM     22  C   UNL     1      50.267   8.255  11.362  0.00  0.00    +0.000 A 
ATOM     23  C   UNL     1      49.126   7.469  11.358  0.00  0.00    +0.000 A 
ATOM     24  C   UNL     1      48.218   7.576  12.410  0.00  0.00    +0.000 A 
ATOM     25  N   UNL     1      48.419   8.445  13.440  0.00  0.00    +0.000 NA
BRANCH  24  26
ATOM     26  C   UNL     1      46.989   6.751  12.460  0.00  0.00    +0.000 A 
ATOM     27  C   UNL     1      46.914   5.595  13.262  0.00  0.00    +0.000 A 
ATOM     28  C   UNL     1      45.768   4.793  13.294  0.00  0.00    +0.000 A 
ATOM     29  C   UNL     1      44.647   5.126  12.527  0.00  0.00    +0.000 A 
ATOM     30  C   UNL     1      44.699   6.280  11.732  0.00  0.00    +0.000 A 
ATOM     31  C   UNL     1      45.851   7.078  11.703  0.00  0.00    +0.000 A 
BRANCH  29  32
ATOM     32  C   UNL     1      43.405   4.270  12.556  0.00  0.00    +0.000 C 
ATOM     33  F   UNL     1      43.668   2.934  12.620  0.00  0.00    +0.000 F 
ATOM     34  F   UNL     1      42.607   4.543  13.625  0.00  0.00    +0.000 F 
ATOM     35  F   UNL     1      42.626   4.441  11.453  0.00  0.00    +0.000 F 
ENDBRANCH  29  32
ENDBRANCH  24  26
ENDBRANCH  19  20
ENDBRANCH   1  19
TORSDOF 7
ENDMDL
