MODEL 1
REMARK VINA RESULT:    -7.298      0.000      0.000
REMARK INTER + INTRA:         -10.435
REMARK INTER:                  -9.858
REMARK INTRA:                  -0.577
REMARK UNBOUND:                -0.577
REMARK  Name = 
REMARK  7 active torsions:
REMARK  status: ('A' for Active; 'I' for Inactive)
REMARK    1  A    between atoms: C_1  and  O_2
REMARK    2  A    between atoms: O_2  and  C_3
REMARK    3  A    between atoms: C_5  and  C_6
REMARK    4  A    between atoms: C_11  and  O_12
REMARK    5  A    between atoms: O_12  and  C_13
REMARK    6  A    between atoms: C_13  and  C_14
REMARK    7  A    between atoms: C_18  and  C_19
REMARK                            x       y       z     vdW  Elec       q    Type
REMARK                         _______ _______ _______ _____ _____    ______ ____
ROOT
ATOM      1  C   UNL     1      45.718   6.056  12.383  0.00  0.00    +0.000 A 
ATOM      2  C   UNL     1      46.443   5.768  13.551  0.00  0.00    +0.000 A 
ATOM      3  C   UNL     1      46.605   4.445  13.977  0.00  0.00    +0.000 A 
ATOM      4  C   UNL     1      46.012   3.412  13.250  0.00  0.00    +0.000 A 
ATOM      5  C   UNL     1      45.317   3.693  12.074  0.00  0.00    +0.000 A 
ATOM      6  C   UNL     1      45.209   5.007  11.598  0.00  0.00    +0.000 A 
ENDROOT
BRANCH   3   7
ATOM      7  C   UNL     1      47.364   4.082  15.202  0.00  0.00    +0.000 C 
ATOM      8  N   UNL     1      47.530   5.049  16.153  0.00  0.00    +0.000 N 
ATOM      9  O   UNL     1      47.864   2.973  15.339  0.00  0.00    +0.000 OA
ATOM     10  H   UNL     1      47.337   6.025  15.987  0.00  0.00    +0.000 HD
ATOM     11  H   UNL     1      48.135   4.812  16.930  0.00  0.00    +0.000 HD
ENDBRANCH   3   7
BRANCH   1  13
ATOM     12  C   UNL     1      46.232   8.265  13.063  0.00  0.00    +0.000 C 
ATOM     13  O   UNL     1      45.637   7.397  12.102  0.00  0.00    +0.000 OA
ENDBRANCH   1  13
BRANCH   6  14
ATOM     14  O   UNL     1      44.646   5.309  10.380  0.00  0.00    +0.000 OA
BRANCH  14  15
ATOM     15  C   UNL     1      44.136   4.188   9.654  0.00  0.00    +0.000 C 
BRANCH  15  16
ATOM     16  C   UNL     1      45.159   3.602   8.709  0.00  0.00    +0.000 A 
ATOM     17  C   UNL     1      45.985   4.475   7.980  0.00  0.00    +0.000 A 
ATOM     18  C   UNL     1      46.999   3.982   7.160  0.00  0.00    +0.000 A 
ATOM     19  C   UNL     1      47.210   2.609   7.066  0.00  0.00    +0.000 A 
ATOM     20  C   UNL     1      46.401   1.725   7.788  0.00  0.00    +0.000 A 
ATOM     21  C   UNL     1      45.377   2.220   8.607  0.00  0.00    +0.000 A 
BRANCH  20  22
ATOM     22  C   UNL     1      46.635   0.312   7.704  0.00  0.00    +0.000 C 
ATOM     23  N   UNL     1      46.830  -0.830   7.642  0.00  0.00    +0.000 NA
ENDBRANCH  20  22
ENDBRANCH  15  16
ENDBRANCH  14  15
ENDBRANCH   6  14
TORSDOF 6
ENDMDL
MODEL 2
REMARK VINA RESULT:    -7.230      2.118      6.320
REMARK INTER + INTRA:         -10.344
REMARK INTER:                 -10.280
REMARK INTRA:                  -0.064
REMARK UNBOUND:                -0.577
REMARK  Name = 
REMARK  7 active torsions:
REMARK  status: ('A' for Active; 'I' for Inactive)
REMARK    1  A    between atoms: C_1  and  O_2
REMARK    2  A    between atoms: O_2  and  C_3
REMARK    3  A    between atoms: C_5  and  C_6
REMARK    4  A    between atoms: C_11  and  O_12
REMARK    5  A    between atoms: O_12  and  C_13
REMARK    6  A    between atoms: C_13  and  C_14
REMARK    7  A    between atoms: C_18  and  C_19
REMARK                            x       y       z     vdW  Elec       q    Type
REMARK                         _______ _______ _______ _____ _____    ______ ____
ROOT
ATOM      1  C   UNL     1      44.634   2.809   9.552  0.00  0.00    +0.000 A 
ATOM      2  C   UNL     1      45.452   1.997   8.750  0.00  0.00    +0.000 A 
ATOM      3  C   UNL     1      46.399   2.568   7.893  0.00  0.00    +0.000 A 
ATOM      4  C   UNL     1      46.503   3.957   7.815  0.00  0.00    +0.000 A 
ATOM      5  C   UNL     1      45.713   4.766   8.632  0.00  0.00    +0.000 A 
ATOM      6  C   UNL     1      44.812   4.203   9.547  0.00  0.00    +0.000 A 
ENDROOT
BRANCH   3   7
ATOM      7  C   UNL     1      47.292   1.758   7.026  0.00  0.00    +0.000 C 
ATOM      8  N   UNL     1      48.347   2.394   6.434  0.00  0.00    +0.000 N 
ATOM      9  O   UNL     1      47.071   0.573   6.809  0.00  0.00    +0.000 OA
ATOM     10  H   UNL     1      48.437   3.398   6.400  0.00  0.00    +0.000 HD
ATOM     11  H   UNL     1      48.881   1.848   5.769  0.00  0.00    +0.000 HD
ENDBRANCH   3   7
BRANCH   1  13
ATOM     12  C   UNL     1      43.619   2.550  11.676  0.00  0.00    +0.000 C 
ATOM     13  O   UNL     1      43.749   2.104  10.328  0.00  0.00    +0.000 OA
ENDBRANCH   1  13
BRANCH   6  14
ATOM     14  O   UNL     1      44.111   4.960  10.457  0.00  0.00    +0.000 OA
BRANCH  14  15
ATOM     15  C   UNL     1      44.688   6.233  10.757  0.00  0.00    +0.000 C 
BRANCH  15  16
ATOM     16  C   UNL     1      45.877   6.121  11.684  0.00  0.00    +0.000 A 
ATOM     17  C   UNL     1      46.982   6.963  11.470  0.00  0.00    +0.000 A 
ATOM     18  C   UNL     1      48.066   6.958  12.347  0.00  0.00    +0.000 A 
ATOM     19  C   UNL     1      48.055   6.119  13.458  0.00  0.00    +0.000 A 
ATOM     20  C   UNL     1      46.961   5.277  13.690  0.00  0.00    +0.000 A 
ATOM     21  C   UNL     1      45.875   5.278  12.804  0.00  0.00    +0.000 A 
BRANCH  20  22
ATOM     22  C   UNL     1      46.946   4.429  14.847  0.00  0.00    +0.000 C 
ATOM     23  N   UNL     1      46.935   3.750  15.788  0.00  0.00    +0.000 NA
ENDBRANCH  20  22
ENDBRANCH  15  16
ENDBRANCH  14  15
ENDBRANCH   6  14
TORSDOF 6
ENDMDL
MODEL 3
REMARK VINA RESULT:    -7.162      1.475      2.941
REMARK INTER + INTRA:         -10.252
REMARK INTER:                  -9.796
REMARK INTRA:                  -0.455
REMARK UNBOUND:                -0.577
REMARK  Name = 
REMARK  7 active torsions:
REMARK  status: ('A' for Active; 'I' for Inactive)
REMARK    1  A    between atoms: C_1  and  O_2
REMARK    2  A    between atoms: O_2  and  C_3
REMARK    3  A    between atoms: C_5  and  C_6
REMARK    4  A    between atoms: C_11  and  O_12
REMARK    5  A    between atoms: O_12  and  C_13
REMARK    6  A    between atoms: C_13  and  C_14
REMARK    7  A    between atoms: C_18  and  C_19
REMARK                            x       y       z     vdW  Elec       q    Type
REMARK                         _______ _______ _______ _____ _____    ______ ____
ROOT
ATOM      1  C   UNL     1      46.201   4.983  12.963  0.00  0.00    +0.000 A 
ATOM      2  C   UNL     1      46.704   6.220  13.398  0.00  0.00    +0.000 A 
ATOM      3  C   UNL     1      46.190   7.415  12.885  0.00  0.00    +0.000 A 
ATOM      4  C   UNL     1      45.193   7.370  11.910  0.00  0.00    +0.000 A 
ATOM      5  C   UNL     1      44.671   6.144  11.498  0.00  0.00    +0.000 A 
ATOM      6  C   UNL     1      45.128   4.943  12.058  0.00  0.00    +0.000 A 
ENDROOT
BRANCH   3   7
ATOM      7  C   UNL     1      46.681   8.751  13.311  0.00  0.00    +0.000 C 
ATOM      8  N   UNL     1      47.129   8.881  14.595  0.00  0.00    +0.000 N 
ATOM      9  O   UNL     1      46.646   9.715  12.557  0.00  0.00    +0.000 OA
ATOM     10  H   UNL     1      46.967   8.185  15.308  0.00  0.00    +0.000 HD
ATOM     11  H   UNL     1      47.362   9.820  14.894  0.00  0.00    +0.000 HD
ENDBRANCH   3   7
BRANCH   1  13
ATOM     12  C   UNL     1      47.137   4.051  14.930  0.00  0.00    +0.000 C 
ATOM     13  O   UNL     1      46.814   3.903  13.549  0.00  0.00    +0.000 OA
ENDBRANCH   1  13
BRANCH   6  14
ATOM     14  O   UNL     1      44.551   3.727  11.774  0.00  0.00    +0.000 OA
BRANCH  14  15
ATOM     15  C   UNL     1      43.859   3.662  10.525  0.00  0.00    +0.000 C 
BRANCH  15  16
ATOM     16  C   UNL     1      44.779   3.323   9.374  0.00  0.00    +0.000 A 
ATOM     17  C   UNL     1      45.334   4.372   8.621  0.00  0.00    +0.000 A 
ATOM     18  C   UNL     1      46.254   4.114   7.606  0.00  0.00    +0.000 A 
ATOM     19  C   UNL     1      46.642   2.804   7.337  0.00  0.00    +0.000 A 
ATOM     20  C   UNL     1      46.104   1.747   8.079  0.00  0.00    +0.000 A 
ATOM     21  C   UNL     1      45.174   2.007   9.095  0.00  0.00    +0.000 A 
BRANCH  20  22
ATOM     22  C   UNL     1      46.521   0.402   7.812  0.00  0.00    +0.000 C 
ATOM     23  N   UNL     1      46.850  -0.690   7.596  0.00  0.00    +0.000 NA
ENDBRANCH  20  22
ENDBRANCH  15  16
ENDBRANCH  14  15
ENDBRANCH   6  14
TORSDOF 6
ENDMDL
MODEL 4
REMARK VINA RESULT:    -6.902      2.425      6.420
REMARK INTER + INTRA:          -9.900
REMARK INTER:                  -9.111
REMARK INTRA:                  -0.789
REMARK UNBOUND:                -0.577
REMARK  Name = 
REMARK  7 active torsions:
REMARK  status: ('A' for Active; 'I' for Inactive)
REMARK    1  A    between atoms: C_1  and  O_2
REMARK    2  A    between atoms: O_2  and  C_3
REMARK    3  A    between atoms: C_5  and  C_6
REMARK    4  A    between atoms: C_11  and  O_12
REMARK    5  A    between atoms: O_12  and  C_13
REMARK    6  A    between atoms: C_13  and  C_14
REMARK    7  A    between atoms: C_18  and  C_19
REMARK                            x       y       z     vdW  Elec       q    Type
REMARK                         _______ _______ _______ _____ _____    ______ ____
ROOT
ATOM      1  C   UNL     1      45.287   4.110   8.821  0.00  0.00    +0.000 A 
ATOM      2  C   UNL     1      46.259   3.663   7.911  0.00  0.00    +0.000 A 
ATOM      3  C   UNL     1      46.443   2.295   7.684  0.00  0.00    +0.000 A 
ATOM      4  C   UNL     1      45.675   1.372   8.395  0.00  0.00    +0.000 A 
ATOM      5  C   UNL     1      44.689   1.814   9.278  0.00  0.00    +0.000 A 
ATOM      6  C   UNL     1      44.446   3.182   9.458  0.00  0.00    +0.000 A 
ENDROOT
BRANCH   3   7
ATOM      7  C   UNL     1      47.453   1.766   6.731  0.00  0.00    +0.000 C 
ATOM      8  N   UNL     1      48.536   2.551   6.456  0.00  0.00    +0.000 N 
ATOM      9  O   UNL     1      47.302   0.686   6.174  0.00  0.00    +0.000 OA
ATOM     10  H   UNL     1      48.589   3.527   6.710  0.00  0.00    +0.000 HD
ATOM     11  H   UNL     1      49.158   2.218   5.730  0.00  0.00    +0.000 HD
ENDBRANCH   3   7
BRANCH   1  13
ATOM     12  C   UNL     1      46.386   6.089   9.519  0.00  0.00    +0.000 C 
ATOM     13  O   UNL     1      45.235   5.476   8.943  0.00  0.00    +0.000 OA
ENDBRANCH   1  13
BRANCH   6  14
ATOM     14  O   UNL     1      43.401   3.655  10.218  0.00  0.00    +0.000 OA
BRANCH  14  15
ATOM     15  C   UNL     1      43.483   3.354  11.613  0.00  0.00    +0.000 C 
BRANCH  15  16
ATOM     16  C   UNL     1      44.537   4.177  12.318  0.00  0.00    +0.000 A 
ATOM     17  C   UNL     1      45.643   3.518  12.882  0.00  0.00    +0.000 A 
ATOM     18  C   UNL     1      46.683   4.240  13.468  0.00  0.00    +0.000 A 
ATOM     19  C   UNL     1      46.636   5.631  13.487  0.00  0.00    +0.000 A 
ATOM     20  C   UNL     1      45.545   6.304  12.927  0.00  0.00    +0.000 A 
ATOM     21  C   UNL     1      44.498   5.578  12.344  0.00  0.00    +0.000 A 
BRANCH  20  22
ATOM     22  C   UNL     1      45.512   7.738  12.932  0.00  0.00    +0.000 C 
ATOM     23  N   UNL     1      45.477   8.898  12.939  0.00  0.00    +0.000 NA
ENDBRANCH  20  22
ENDBRANCH  15  16
ENDBRANCH  14  15
ENDBRANCH   6  14
TORSDOF 6
ENDMDL
MODEL 5
REMARK VINA RESULT:    -6.808      2.205      6.003
REMARK INTER + INTRA:          -9.773
REMARK INTER:                  -8.925
REMARK INTRA:                  -0.848
REMARK UNBOUND:                -0.577
REMARK  Name = 
REMARK  7 active torsions:
REMARK  status: ('A' for Active; 'I' for Inactive)
REMARK    1  A    between atoms: C_1  and  O_2
REMARK    2  A    between atoms: O_2  and  C_3
REMARK    3  A    between atoms: C_5  and  C_6
REMARK    4  A    between atoms: C_11  and  O_12
REMARK    5  A    between atoms: O_12  and  C_13
REMARK    6  A    between atoms: C_13  and  C_14
REMARK    7  A    between atoms: C_18  and  C_19
REMARK                            x       y       z     vdW  Elec       q    Type
REMARK                         _______ _______ _______ _____ _____    ______ ____
ROOT
ATOM      1  C   UNL     1      45.370   4.245   8.695  0.00  0.00    +0.000 A 
ATOM      2  C   UNL     1      46.331   3.543   7.950  0.00  0.00    +0.000 A 
ATOM      3  C   UNL     1      46.289   2.147   7.873  0.00  0.00    +0.000 A 
ATOM      4  C   UNL     1      45.302   1.451   8.574  0.00  0.00    +0.000 A 
ATOM      5  C   UNL     1      44.330   2.147   9.291  0.00  0.00    +0.000 A 
ATOM      6  C   UNL     1      44.318   3.549   9.315  0.00  0.00    +0.000 A 
ENDROOT
BRANCH   3   7
ATOM      7  C   UNL     1      47.276   1.353   7.097  0.00  0.00    +0.000 C 
ATOM      8  N   UNL     1      48.381   2.004   6.626  0.00  0.00    +0.000 N 
ATOM      9  O   UNL     1      47.090   0.169   6.848  0.00  0.00    +0.000 OA
ATOM     10  H   UNL     1      48.464   3.010   6.611  0.00  0.00    +0.000 HD
ATOM     11  H   UNL     1      48.987   1.471   6.015  0.00  0.00    +0.000 HD
ENDBRANCH   3   7
BRANCH   1  13
ATOM     12  C   UNL     1      46.651   6.089   9.450  0.00  0.00    +0.000 C 
ATOM     13  O   UNL     1      45.551   5.606   8.683  0.00  0.00    +0.000 OA
ENDBRANCH   1  13
BRANCH   6  14
ATOM     14  O   UNL     1      43.306   4.272   9.901  0.00  0.00    +0.000 OA
BRANCH  14  15
ATOM     15  C   UNL     1      43.179   4.099  11.314  0.00  0.00    +0.000 C 
BRANCH  15  16
ATOM     16  C   UNL     1      44.335   4.708  12.074  0.00  0.00    +0.000 A 
ATOM     17  C   UNL     1      44.451   6.108  12.120  0.00  0.00    +0.000 A 
ATOM     18  C   UNL     1      45.450   6.719  12.877  0.00  0.00    +0.000 A 
ATOM     19  C   UNL     1      46.340   5.938  13.609  0.00  0.00    +0.000 A 
ATOM     20  C   UNL     1      46.237   4.543  13.580  0.00  0.00    +0.000 A 
ATOM     21  C   UNL     1      45.237   3.930  12.813  0.00  0.00    +0.000 A 
BRANCH  20  22
ATOM     22  C   UNL     1      47.144   3.744  14.352  0.00  0.00    +0.000 C 
ATOM     23  N   UNL     1      47.885   3.101  14.973  0.00  0.00    +0.000 NA
ENDBRANCH  20  22
ENDBRANCH  15  16
ENDBRANCH  14  15
ENDBRANCH   6  14
TORSDOF 6
ENDMDL
MODEL 6
REMARK VINA RESULT:    -6.790      2.348      6.674
REMARK INTER + INTRA:          -9.748
REMARK INTER:                  -9.860
REMARK INTRA:                   0.111
REMARK UNBOUND:                -0.577
REMARK  Name = 
REMARK  7 active torsions:
REMARK  status: ('A' for Active; 'I' for Inactive)
REMARK    1  A    between atoms: C_1  and  O_2
REMARK    2  A    between atoms: O_2  and  C_3
REMARK    3  A    between atoms: C_5  and  C_6
REMARK    4  A    between atoms: C_11  and  O_12
REMARK    5  A    between atoms: O_12  and  C_13
REMARK    6  A    between atoms: C_13  and  C_14
REMARK    7  A    between atoms: C_18  and  C_19
REMARK                            x       y       z     vdW  Elec       q    Type
REMARK                         _______ _______ _______ _____ _____    ______ ____
ROOT
ATOM      1  C   UNL     1      44.704   2.890   9.367  0.00  0.00    +0.000 A 
ATOM      2  C   UNL     1      45.499   2.061   8.558  0.00  0.00    +0.000 A 
ATOM      3  C   UNL     1      46.483   2.611   7.729  0.00  0.00    +0.000 A 
ATOM      4  C   UNL     1      46.647   3.996   7.686  0.00  0.00    +0.000 A 
ATOM      5  C   UNL     1      45.880   4.819   8.509  0.00  0.00    +0.000 A 
ATOM      6  C   UNL     1      44.942   4.274   9.398  0.00  0.00    +0.000 A 
ENDROOT
BRANCH   3   7
ATOM      7  C   UNL     1      47.354   1.782   6.856  0.00  0.00    +0.000 C 
ATOM      8  N   UNL     1      48.364   2.415   6.187  0.00  0.00    +0.000 N 
ATOM      9  O   UNL     1      47.152   0.585   6.702  0.00  0.00    +0.000 OA
ATOM     10  H   UNL     1      48.427   3.419   6.106  0.00  0.00    +0.000 HD
ATOM     11  H   UNL     1      48.880   1.853   5.522  0.00  0.00    +0.000 HD
ENDBRANCH   3   7
BRANCH   1  13
ATOM     12  C   UNL     1      43.599   2.668  11.450  0.00  0.00    +0.000 C 
ATOM     13  O   UNL     1      43.778   2.205  10.114  0.00  0.00    +0.000 OA
ENDBRANCH   1  13
BRANCH   6  14
ATOM     14  O   UNL     1      44.260   5.039  10.315  0.00  0.00    +0.000 OA
BRANCH  14  15
ATOM     15  C   UNL     1      44.924   6.240  10.715  0.00  0.00    +0.000 C 
BRANCH  15  16
ATOM     16  C   UNL     1      45.791   6.038  11.937  0.00  0.00    +0.000 A 
ATOM     17  C   UNL     1      45.412   5.067  12.881  0.00  0.00    +0.000 A 
ATOM     18  C   UNL     1      46.222   4.785  13.980  0.00  0.00    +0.000 A 
ATOM     19  C   UNL     1      47.428   5.461  14.145  0.00  0.00    +0.000 A 
ATOM     20  C   UNL     1      47.823   6.428  13.214  0.00  0.00    +0.000 A 
ATOM     21  C   UNL     1      47.005   6.716  12.113  0.00  0.00    +0.000 A 
BRANCH  20  22
ATOM     22  C   UNL     1      49.076   7.107  13.378  0.00  0.00    +0.000 C 
ATOM     23  N   UNL     1      50.086   7.664  13.505  0.00  0.00    +0.000 NA
ENDBRANCH  20  22
ENDBRANCH  15  16
ENDBRANCH  14  15
ENDBRANCH   6  14
TORSDOF 6
ENDMDL
MODEL 7
REMARK VINA RESULT:    -6.708      2.862      6.996
REMARK INTER + INTRA:          -9.638
REMARK INTER:                  -9.671
REMARK INTRA:                   0.033
REMARK UNBOUND:                -0.577
REMARK  Name = 
REMARK  7 active torsions:
REMARK  status: ('A' for Active; 'I' for Inactive)
REMARK    1  A    between atoms: C_1  and  O_2
REMARK    2  A    between atoms: O_2  and  C_3
REMARK    3  A    between atoms: C_5  and  C_6
REMARK    4  A    between atoms: C_11  and  O_12
REMARK    5  A    between atoms: O_12  and  C_13
REMARK    6  A    between atoms: C_13  and  C_14
REMARK    7  A    between atoms: C_18  and  C_19
REMARK                            x       y       z     vdW  Elec       q    Type
REMARK                         _______ _______ _______ _____ _____    ______ ____
ROOT
ATOM      1  C   UNL     1      44.524   2.881   9.562  0.00  0.00    +0.000 A 
ATOM      2  C   UNL     1      45.210   1.836   8.921  0.00  0.00    +0.000 A 
ATOM      3  C   UNL     1      46.249   2.113   8.026  0.00  0.00    +0.000 A 
ATOM      4  C   UNL     1      46.579   3.441   7.748  0.00  0.00    +0.000 A 
ATOM      5  C   UNL     1      45.919   4.479   8.406  0.00  0.00    +0.000 A 
ATOM      6  C   UNL     1      44.926   4.211   9.358  0.00  0.00    +0.000 A 
ENDROOT
BRANCH   3   7
ATOM      7  C   UNL     1      47.011   1.049   7.323  0.00  0.00    +0.000 C 
ATOM      8  N   UNL     1      46.743  -0.248   7.658  0.00  0.00    +0.000 N 
ATOM      9  O   UNL     1      47.880   1.320   6.504  0.00  0.00    +0.000 OA
ATOM     10  H   UNL     1      46.209  -0.507   8.474  0.00  0.00    +0.000 HD
ATOM     11  H   UNL     1      47.343  -0.950   7.243  0.00  0.00    +0.000 HD
ENDBRANCH   3   7
BRANCH   1  13
ATOM     12  C   UNL     1      43.848   2.435  11.787  0.00  0.00    +0.000 C 
ATOM     13  O   UNL     1      43.525   2.450  10.399  0.00  0.00    +0.000 OA
ENDBRANCH   1  13
BRANCH   6  14
ATOM     14  O   UNL     1      44.345   5.199  10.119  0.00  0.00    +0.000 OA
BRANCH  14  15
ATOM     15  C   UNL     1      44.830   5.293  11.461  0.00  0.00    +0.000 C 
BRANCH  15  16
ATOM     16  C   UNL     1      45.546   6.599  11.722  0.00  0.00    +0.000 A 
ATOM     17  C   UNL     1      46.948   6.591  11.827  0.00  0.00    +0.000 A 
ATOM     18  C   UNL     1      47.660   7.779  11.983  0.00  0.00    +0.000 A 
ATOM     19  C   UNL     1      46.981   8.994  12.024  0.00  0.00    +0.000 A 
ATOM     20  C   UNL     1      45.586   9.022  11.917  0.00  0.00    +0.000 A 
ATOM     21  C   UNL     1      44.871   7.826  11.767  0.00  0.00    +0.000 A 
BRANCH  20  22
ATOM     22  C   UNL     1      44.893  10.278  11.940  0.00  0.00    +0.000 C 
ATOM     23  N   UNL     1      44.340  11.298  11.959  0.00  0.00    +0.000 NA
ENDBRANCH  20  22
ENDBRANCH  15  16
ENDBRANCH  14  15
ENDBRANCH   6  14
TORSDOF 6
ENDMDL
MODEL 8
REMARK VINA RESULT:    -6.437      1.446      1.902
REMARK INTER + INTRA:          -9.271
REMARK INTER:                  -8.736
REMARK INTRA:                  -0.535
REMARK UNBOUND:                -0.577
REMARK  Name = 
REMARK  7 active torsions:
REMARK  status: ('A' for Active; 'I' for Inactive)
REMARK    1  A    between atoms: C_1  and  O_2
REMARK    2  A    between atoms: O_2  and  C_3
REMARK    3  A    between atoms: C_5  and  C_6
REMARK    4  A    between atoms: C_11  and  O_12
REMARK    5  A    between atoms: O_12  and  C_13
REMARK    6  A    between atoms: C_13  and  C_14
REMARK    7  A    between atoms: C_18  and  C_19
REMARK                            x       y       z     vdW  Elec       q    Type
REMARK                         _______ _______ _______ _____ _____    ______ ____
ROOT
ATOM      1  C   UNL     1      45.390   6.481  12.124  0.00  0.00    +0.000 A 
ATOM      2  C   UNL     1      46.352   6.701  13.124  0.00  0.00    +0.000 A 
ATOM      3  C   UNL     1      46.938   5.623  13.795  0.00  0.00    +0.000 A 
ATOM      4  C   UNL     1      46.535   4.323  13.487  0.00  0.00    +0.000 A 
ATOM      5  C   UNL     1      45.603   4.100  12.474  0.00  0.00    +0.000 A 
ATOM      6  C   UNL     1      45.063   5.168  11.745  0.00  0.00    +0.000 A 
ENDROOT
BRANCH   3   7
ATOM      7  C   UNL     1      47.962   5.796  14.857  0.00  0.00    +0.000 C 
ATOM      8  N   UNL     1      47.647   5.367  16.116  0.00  0.00    +0.000 N 
ATOM      9  O   UNL     1      49.032   6.345  14.630  0.00  0.00    +0.000 OA
ATOM     10  H   UNL     1      46.709   5.122  16.396  0.00  0.00    +0.000 HD
ATOM     11  H   UNL     1      48.316   5.587  16.843  0.00  0.00    +0.000 HD
ENDBRANCH   3   7
BRANCH   1  13
ATOM     12  C   UNL     1      45.439   8.849  12.089  0.00  0.00    +0.000 C 
ATOM     13  O   UNL     1      44.901   7.636  11.567  0.00  0.00    +0.000 OA
ENDBRANCH   1  13
BRANCH   6  14
ATOM     14  O   UNL     1      44.242   4.983  10.657  0.00  0.00    +0.000 OA
BRANCH  14  15
ATOM     15  C   UNL     1      44.898   5.032   9.388  0.00  0.00    +0.000 C 
BRANCH  15  16
ATOM     16  C   UNL     1      45.347   3.666   8.920  0.00  0.00    +0.000 A 
ATOM     17  C   UNL     1      44.664   2.532   9.391  0.00  0.00    +0.000 A 
ATOM     18  C   UNL     1      44.985   1.258   8.923  0.00  0.00    +0.000 A 
ATOM     19  C   UNL     1      45.986   1.102   7.968  0.00  0.00    +0.000 A 
ATOM     20  C   UNL     1      46.673   2.220   7.484  0.00  0.00    +0.000 A 
ATOM     21  C   UNL     1      46.354   3.500   7.959  0.00  0.00    +0.000 A 
BRANCH  20  22
ATOM     22  C   UNL     1      47.689   2.056   6.485  0.00  0.00    +0.000 C 
ATOM     23  N   UNL     1      48.505   1.920   5.671  0.00  0.00    +0.000 NA
ENDBRANCH  20  22
ENDBRANCH  15  16
ENDBRANCH  14  15
ENDBRANCH   6  14
TORSDOF 6
ENDMDL
MODEL 9
REMARK VINA RESULT:    -6.297      2.299      3.914
REMARK INTER + INTRA:          -9.083
REMARK INTER:                  -8.232
REMARK INTRA:                  -0.851
REMARK UNBOUND:                -0.577
REMARK  Name = 
REMARK  7 active torsions:
REMARK  status: ('A' for Active; 'I' for Inactive)
REMARK    1  A    between atoms: C_1  and  O_2
REMARK    2  A    between atoms: O_2  and  C_3
REMARK    3  A    between atoms: C_5  and  C_6
REMARK    4  A    between atoms: C_11  and  O_12
REMARK    5  A    between atoms: O_12  and  C_13
REMARK    6  A    between atoms: C_13  and  C_14
REMARK    7  A    between atoms: C_18  and  C_19
REMARK                            x       y       z     vdW  Elec       q    Type
REMARK                         _______ _______ _______ _____ _____    ______ ____
ROOT
ATOM      1  C   UNL     1      46.155   5.583  13.381  0.00  0.00    +0.000 A 
ATOM      2  C   UNL     1      47.488   6.025  13.341  0.00  0.00    +0.000 A 
ATOM      3  C   UNL     1      47.814   7.242  12.733  0.00  0.00    +0.000 A 
ATOM      4  C   UNL     1      46.807   8.001  12.134  0.00  0.00    +0.000 A 
ATOM      5  C   UNL     1      45.480   7.579  12.198  0.00  0.00    +0.000 A 
ATOM      6  C   UNL     1      45.132   6.397  12.868  0.00  0.00    +0.000 A 
ENDROOT
BRANCH   3   7
ATOM      7  C   UNL     1      49.204   7.761  12.665  0.00  0.00    +0.000 C 
ATOM      8  N   UNL     1      50.069   7.385  13.655  0.00  0.00    +0.000 N 
ATOM      9  O   UNL     1      49.557   8.532  11.783  0.00  0.00    +0.000 OA
ATOM     10  H   UNL     1      49.768   6.944  14.511  0.00  0.00    +0.000 HD
ATOM     11  H   UNL     1      50.978   7.830  13.646  0.00  0.00    +0.000 HD
ENDBRANCH   3   7
BRANCH   1  13
ATOM     12  C   UNL     1      46.515   3.243  13.293  0.00  0.00    +0.000 C 
ATOM     13  O   UNL     1      45.997   4.368  13.999  0.00  0.00    +0.000 OA
ENDBRANCH   1  13
BRANCH   6  14
ATOM     14  O   UNL     1      43.825   6.014  13.063  0.00  0.00    +0.000 OA
BRANCH  14  15
ATOM     15  C   UNL     1      43.095   5.722  11.870  0.00  0.00    +0.000 C 
BRANCH  15  16
ATOM     16  C   UNL     1      43.700   4.577  11.091  0.00  0.00    +0.000 A 
ATOM     17  C   UNL     1      43.394   3.261  11.477  0.00  0.00    +0.000 A 
ATOM     18  C   UNL     1      43.859   2.173  10.739  0.00  0.00    +0.000 A 
ATOM     19  C   UNL     1      44.627   2.386   9.597  0.00  0.00    +0.000 A 
ATOM     20  C   UNL     1      44.938   3.690   9.195  0.00  0.00    +0.000 A 
ATOM     21  C   UNL     1      44.476   4.783   9.941  0.00  0.00    +0.000 A 
BRANCH  20  22
ATOM     22  C   UNL     1      45.713   3.905   8.007  0.00  0.00    +0.000 C 
ATOM     23  N   UNL     1      46.340   4.070   7.045  0.00  0.00    +0.000 NA
ENDBRANCH  20  22
ENDBRANCH  15  16
ENDBRANCH  14  15
ENDBRANCH   6  14
TORSDOF 6
ENDMDL
