MODEL 1
REMARK VINA RESULT:    -8.433      0.000      0.000
REMARK INTER + INTRA:         -11.671
REMARK INTER:                 -10.898
REMARK INTRA:                  -0.773
REMARK UNBOUND:                -0.773
REMARK  Name = 
REMARK  5 active torsions:
REMARK  status: ('A' for Active; 'I' for Inactive)
REMARK    1  A    between atoms: C_2  and  C_3
REMARK    2  A    between atoms: C_6  and  N_7
REMARK    3  A    between atoms: N_7  and  C_8
REMARK    4  A    between atoms: C_8  and  C_9
REMARK    5  A    between atoms: C_13  and  C_14
REMARK                            x       y       z     vdW  Elec       q    Type
REMARK                         _______ _______ _______ _____ _____    ______ ____
ROOT
ATOM      1  C   UNL     1      44.094   4.698  11.605  0.00  0.00    +0.000 C 
ATOM      2  C   UNL     1      43.407   3.644  12.456  0.00  0.00    +0.000 C 
ATOM      3  C   UNL     1      42.923   5.049  12.529  0.00  0.00    +0.000 C 
ENDROOT
BRANCH   1   4
ATOM      4  C   UNL     1      45.381   5.397  12.069  0.00  0.00    +0.000 A 
ATOM      5  C   UNL     1      45.748   6.611  11.475  0.00  0.00    +0.000 A 
ATOM      6  C   UNL     1      46.706   7.414  12.079  0.00  0.00    +0.000 A 
ATOM      7  C   UNL     1      47.310   6.971  13.246  0.00  0.00    +0.000 A 
ATOM      8  C   UNL     1      46.968   5.719  13.755  0.00  0.00    +0.000 A 
ATOM      9  N   UNL     1      46.024   4.937  13.172  0.00  0.00    +0.000 NA
BRANCH   8  10
ATOM     10  C   UNL     1      47.559   5.172  14.988  0.00  0.00    +0.000 A 
ATOM     11  C   UNL     1      48.443   5.928  15.781  0.00  0.00    +0.000 A 
ATOM     12  C   UNL     1      48.989   5.405  16.965  0.00  0.00    +0.000 A 
ATOM     13  C   UNL     1      48.655   4.114  17.365  0.00  0.00    +0.000 A 
ATOM     14  C   UNL     1      47.777   3.352  16.601  0.00  0.00    +0.000 A 
ATOM     15  C   UNL     1      47.233   3.878  15.426  0.00  0.00    +0.000 A 
ENDBRANCH   8  10
ENDBRANCH   1   4
BRANCH   1  16
ATOM     16  N   UNL     1      43.903   4.639  10.141  0.00  0.00    +0.000 N 
ATOM     17  H   UNL     1      42.957   4.713   9.783  0.00  0.00    +0.000 HD
BRANCH  16  21
ATOM     18  C   UNL     1      46.638   2.665   7.566  0.00  0.00    +0.000 A 
ATOM     19  C   UNL     1      45.852   1.917   8.441  0.00  0.00    +0.000 A 
ATOM     20  C   UNL     1      44.952   2.556   9.309  0.00  0.00    +0.000 A 
ATOM     21  C   UNL     1      44.775   3.944   9.274  0.00  0.00    +0.000 A 
ATOM     22  C   UNL     1      45.589   4.686   8.406  0.00  0.00    +0.000 A 
ATOM     23  C   UNL     1      46.513   4.057   7.557  0.00  0.00    +0.000 A 
BRANCH  18  25
ATOM     24  N   UNL     1      48.334   1.490   5.993  0.00  0.00    +0.000 NA
ATOM     25  C   UNL     1      47.574   2.014   6.694  0.00  0.00    +0.000 C 
ENDBRANCH  18  25
ENDBRANCH  16  21
ENDBRANCH   1  16
TORSDOF 5
ENDMDL
MODEL 2
REMARK VINA RESULT:    -8.265      1.661      3.593
REMARK INTER + INTRA:         -11.454
REMARK INTER:                 -10.574
REMARK INTRA:                  -0.880
REMARK UNBOUND:                -0.773
REMARK  Name = 
REMARK  5 active torsions:
REMARK  status: ('A' for Active; 'I' for Inactive)
REMARK    1  A    between atoms: C_2  and  C_3
REMARK    2  A    between atoms: C_6  and  N_7
REMARK    3  A    between atoms: N_7  and  C_8
REMARK    4  A    between atoms: C_8  and  C_9
REMARK    5  A    between atoms: C_13  and  C_14
REMARK                            x       y       z     vdW  Elec       q    Type
REMARK                         _______ _______ _______ _____ _____    ______ ____
ROOT
ATOM      1  C   UNL     1      43.953   4.815  11.522  0.00  0.00    +0.000 C 
ATOM      2  C   UNL     1      43.050   3.704  12.033  0.00  0.00    +0.000 C 
ATOM      3  C   UNL     1      42.654   5.117  12.277  0.00  0.00    +0.000 C 
ENDROOT
BRANCH   1   4
ATOM      4  C   UNL     1      45.172   5.297  12.321  0.00  0.00    +0.000 A 
ATOM      5  C   UNL     1      45.859   4.384  13.130  0.00  0.00    +0.000 A 
ATOM      6  C   UNL     1      47.127   4.696  13.603  0.00  0.00    +0.000 A 
ATOM      7  C   UNL     1      47.671   5.933  13.289  0.00  0.00    +0.000 A 
ATOM      8  C   UNL     1      46.915   6.839  12.546  0.00  0.00    +0.000 A 
ATOM      9  N   UNL     1      45.679   6.531  12.075  0.00  0.00    +0.000 NA
BRANCH   8  10
ATOM     10  C   UNL     1      47.415   8.172  12.168  0.00  0.00    +0.000 A 
ATOM     11  C   UNL     1      48.750   8.373  11.770  0.00  0.00    +0.000 A 
ATOM     12  C   UNL     1      49.214   9.645  11.395  0.00  0.00    +0.000 A 
ATOM     13  C   UNL     1      48.342  10.730  11.418  0.00  0.00    +0.000 A 
ATOM     14  C   UNL     1      47.017  10.552  11.800  0.00  0.00    +0.000 A 
ATOM     15  C   UNL     1      46.558   9.285  12.169  0.00  0.00    +0.000 A 
ENDBRANCH   8  10
ENDBRANCH   1   4
BRANCH   1  16
ATOM     16  N   UNL     1      44.036   5.022  10.060  0.00  0.00    +0.000 N 
ATOM     17  H   UNL     1      43.220   5.394   9.587  0.00  0.00    +0.000 HD
BRANCH  16  21
ATOM     18  C   UNL     1      46.667   2.817   7.566  0.00  0.00    +0.000 A 
ATOM     19  C   UNL     1      45.743   2.141   8.362  0.00  0.00    +0.000 A 
ATOM     20  C   UNL     1      44.875   2.855   9.202  0.00  0.00    +0.000 A 
ATOM     21  C   UNL     1      44.870   4.255   9.217  0.00  0.00    +0.000 A 
ATOM     22  C   UNL     1      45.821   4.920   8.430  0.00  0.00    +0.000 A 
ATOM     23  C   UNL     1      46.714   4.213   7.610  0.00  0.00    +0.000 A 
BRANCH  18  25
ATOM     24  N   UNL     1      48.303   1.500   6.042  0.00  0.00    +0.000 NA
ATOM     25  C   UNL     1      47.570   2.086   6.723  0.00  0.00    +0.000 C 
ENDBRANCH  18  25
ENDBRANCH  16  21
ENDBRANCH   1  16
TORSDOF 5
ENDMDL
MODEL 3
REMARK VINA RESULT:    -7.811      2.872      5.372
REMARK INTER + INTRA:         -10.868
REMARK INTER:                 -10.156
REMARK INTRA:                  -0.711
REMARK UNBOUND:                -0.773
REMARK  Name = 
REMARK  5 active torsions:
REMARK  status: ('A' for Active; 'I' for Inactive)
REMARK    1  A    between atoms: C_2  and  C_3
REMARK    2  A    between atoms: C_6  and  N_7
REMARK    3  A    between atoms: N_7  and  C_8
REMARK    4  A    between atoms: C_8  and  C_9
REMARK    5  A    between atoms: C_13  and  C_14
REMARK                            x       y       z     vdW  Elec       q    Type
REMARK                         _______ _______ _______ _____ _____    ______ ____
ROOT
ATOM      1  C   UNL     1      44.207   4.854  11.615  0.00  0.00    +0.000 C 
ATOM      2  C   UNL     1      44.748   3.707  12.451  0.00  0.00    +0.000 C 
ATOM      3  C   UNL     1      43.384   4.224  12.743  0.00  0.00    +0.000 C 
ENDROOT
BRANCH   1   4
ATOM      4  C   UNL     1      44.543   6.318  11.938  0.00  0.00    +0.000 A 
ATOM      5  C   UNL     1      45.715   6.606  12.648  0.00  0.00    +0.000 A 
ATOM      6  C   UNL     1      46.205   7.905  12.675  0.00  0.00    +0.000 A 
ATOM      7  C   UNL     1      45.493   8.901  12.024  0.00  0.00    +0.000 A 
ATOM      8  C   UNL     1      44.289   8.578  11.398  0.00  0.00    +0.000 A 
ATOM      9  N   UNL     1      43.815   7.307  11.362  0.00  0.00    +0.000 NA
BRANCH   8  10
ATOM     10  C   UNL     1      43.471   9.573  10.684  0.00  0.00    +0.000 A 
ATOM     11  C   UNL     1      44.026  10.417   9.703  0.00  0.00    +0.000 A 
ATOM     12  C   UNL     1      43.234  11.351   9.015  0.00  0.00    +0.000 A 
ATOM     13  C   UNL     1      41.877  11.450   9.306  0.00  0.00    +0.000 A 
ATOM     14  C   UNL     1      41.306  10.620  10.264  0.00  0.00    +0.000 A 
ATOM     15  C   UNL     1      42.096   9.689  10.945  0.00  0.00    +0.000 A 
ENDBRANCH   8  10
ENDBRANCH   1   4
BRANCH   1  16
ATOM     16  N   UNL     1      43.873   4.583  10.200  0.00  0.00    +0.000 N 
ATOM     17  H   UNL     1      42.894   4.481   9.955  0.00  0.00    +0.000 HD
BRANCH  16  21
ATOM     18  C   UNL     1      46.605   2.665   7.581  0.00  0.00    +0.000 A 
ATOM     19  C   UNL     1      45.773   1.896   8.393  0.00  0.00    +0.000 A 
ATOM     20  C   UNL     1      44.874   2.515   9.274  0.00  0.00    +0.000 A 
ATOM     21  C   UNL     1      44.743   3.908   9.316  0.00  0.00    +0.000 A 
ATOM     22  C   UNL     1      45.603   4.670   8.512  0.00  0.00    +0.000 A 
ATOM     23  C   UNL     1      46.527   4.059   7.649  0.00  0.00    +0.000 A 
BRANCH  18  25
ATOM     24  N   UNL     1      48.297   1.527   5.976  0.00  0.00    +0.000 NA
ATOM     25  C   UNL     1      47.541   2.033   6.695  0.00  0.00    +0.000 C 
ENDBRANCH  18  25
ENDBRANCH  16  21
ENDBRANCH   1  16
TORSDOF 5
ENDMDL
MODEL 4
REMARK VINA RESULT:    -7.762      1.994      2.643
REMARK INTER + INTRA:         -10.804
REMARK INTER:                 -10.140
REMARK INTRA:                  -0.665
REMARK UNBOUND:                -0.773
REMARK  Name = 
REMARK  5 active torsions:
REMARK  status: ('A' for Active; 'I' for Inactive)
REMARK    1  A    between atoms: C_2  and  C_3
REMARK    2  A    between atoms: C_6  and  N_7
REMARK    3  A    between atoms: N_7  and  C_8
REMARK    4  A    between atoms: C_8  and  C_9
REMARK    5  A    between atoms: C_13  and  C_14
REMARK                            x       y       z     vdW  Elec       q    Type
REMARK                         _______ _______ _______ _____ _____    ______ ____
ROOT
ATOM      1  C   UNL     1      44.260   4.679  11.587  0.00  0.00    +0.000 C 
ATOM      2  C   UNL     1      44.627   3.710  12.699  0.00  0.00    +0.000 C 
ATOM      3  C   UNL     1      43.390   4.525  12.839  0.00  0.00    +0.000 C 
ENDROOT
BRANCH   1   4
ATOM      4  C   UNL     1      44.863   6.090  11.514  0.00  0.00    +0.000 A 
ATOM      5  C   UNL     1      44.021   7.176  11.247  0.00  0.00    +0.000 A 
ATOM      6  C   UNL     1      44.464   8.470  11.488  0.00  0.00    +0.000 A 
ATOM      7  C   UNL     1      45.756   8.657  11.956  0.00  0.00    +0.000 A 
ATOM      8  C   UNL     1      46.582   7.548  12.132  0.00  0.00    +0.000 A 
ATOM      9  N   UNL     1      46.148   6.282  11.906  0.00  0.00    +0.000 NA
BRANCH   8  10
ATOM     10  C   UNL     1      47.966   7.657  12.625  0.00  0.00    +0.000 A 
ATOM     11  C   UNL     1      49.021   8.052  11.781  0.00  0.00    +0.000 A 
ATOM     12  C   UNL     1      50.334   8.170  12.264  0.00  0.00    +0.000 A 
ATOM     13  C   UNL     1      50.604   7.889  13.600  0.00  0.00    +0.000 A 
ATOM     14  C   UNL     1      49.576   7.506  14.454  0.00  0.00    +0.000 A 
ATOM     15  C   UNL     1      48.269   7.393  13.971  0.00  0.00    +0.000 A 
ENDBRANCH   8  10
ENDBRANCH   1   4
BRANCH   1  16
ATOM     16  N   UNL     1      43.821   4.114  10.294  0.00  0.00    +0.000 N 
ATOM     17  H   UNL     1      42.882   3.736  10.236  0.00  0.00    +0.000 HD
BRANCH  16  21
ATOM     18  C   UNL     1      46.601   2.526   7.508  0.00  0.00    +0.000 A 
ATOM     19  C   UNL     1      45.919   1.667   8.369  0.00  0.00    +0.000 A 
ATOM     20  C   UNL     1      45.007   2.177   9.305  0.00  0.00    +0.000 A 
ATOM     21  C   UNL     1      44.711   3.544   9.357  0.00  0.00    +0.000 A 
ATOM     22  C   UNL     1      45.422   4.400   8.502  0.00  0.00    +0.000 A 
ATOM     23  C   UNL     1      46.359   3.901   7.583  0.00  0.00    +0.000 A 
BRANCH  18  25
ATOM     24  N   UNL     1      48.320   1.584   5.808  0.00  0.00    +0.000 NA
ATOM     25  C   UNL     1      47.551   2.007   6.566  0.00  0.00    +0.000 C 
ENDBRANCH  18  25
ENDBRANCH  16  21
ENDBRANCH   1  16
TORSDOF 5
ENDMDL
MODEL 5
REMARK VINA RESULT:    -6.808      2.963      6.941
REMARK INTER + INTRA:          -9.571
REMARK INTER:                  -8.930
REMARK INTRA:                  -0.641
REMARK UNBOUND:                -0.773
REMARK  Name = 
REMARK  5 active torsions:
REMARK  status: ('A' for Active; 'I' for Inactive)
REMARK    1  A    between atoms: C_2  and  C_3
REMARK    2  A    between atoms: C_6  and  N_7
REMARK    3  A    between atoms: N_7  and  C_8
REMARK    4  A    between atoms: C_8  and  C_9
REMARK    5  A    between atoms: C_13  and  C_14
REMARK                            x       y       z     vdW  Elec       q    Type
REMARK                         _______ _______ _______ _____ _____    ______ ____
ROOT
ATOM      1  C   UNL     1      44.051   6.213  11.849  0.00  0.00    +0.000 C 
ATOM      2  C   UNL     1      43.524   7.206  10.827  0.00  0.00    +0.000 C 
ATOM      3  C   UNL     1      42.570   6.604  11.798  0.00  0.00    +0.000 C 
ENDROOT
BRANCH   1   4
ATOM      4  C   UNL     1      44.233   4.726  11.512  0.00  0.00    +0.000 A 
ATOM      5  C   UNL     1      43.498   3.772  12.225  0.00  0.00    +0.000 A 
ATOM      6  C   UNL     1      43.395   2.474  11.741  0.00  0.00    +0.000 A 
ATOM      7  C   UNL     1      44.062   2.143  10.571  0.00  0.00    +0.000 A 
ATOM      8  C   UNL     1      44.846   3.108   9.939  0.00  0.00    +0.000 A 
ATOM      9  N   UNL     1      44.939   4.379  10.406  0.00  0.00    +0.000 NA
BRANCH   8  10
ATOM     10  C   UNL     1      45.586   2.842   8.694  0.00  0.00    +0.000 A 
ATOM     11  C   UNL     1      45.887   3.870   7.780  0.00  0.00    +0.000 A 
ATOM     12  C   UNL     1      46.608   3.610   6.604  0.00  0.00    +0.000 A 
ATOM     13  C   UNL     1      47.034   2.314   6.330  0.00  0.00    +0.000 A 
ATOM     14  C   UNL     1      46.756   1.285   7.223  0.00  0.00    +0.000 A 
ATOM     15  C   UNL     1      46.041   1.548   8.394  0.00  0.00    +0.000 A 
ENDBRANCH   8  10
ENDBRANCH   1   4
BRANCH   1  16
ATOM     16  N   UNL     1      44.926   6.726  12.925  0.00  0.00    +0.000 N 
ATOM     17  H   UNL     1      44.507   6.909  13.830  0.00  0.00    +0.000 HD
BRANCH  16  21
ATOM     18  C   UNL     1      48.420   8.965  12.041  0.00  0.00    +0.000 A 
ATOM     19  C   UNL     1      47.314   9.605  12.598  0.00  0.00    +0.000 A 
ATOM     20  C   UNL     1      46.146   8.881  12.884  0.00  0.00    +0.000 A 
ATOM     21  C   UNL     1      46.083   7.498  12.678  0.00  0.00    +0.000 A 
ATOM     22  C   UNL     1      47.194   6.872  12.095  0.00  0.00    +0.000 A 
ATOM     23  C   UNL     1      48.355   7.594  11.778  0.00  0.00    +0.000 A 
BRANCH  18  25
ATOM     24  N   UNL     1      50.565  10.311  11.471  0.00  0.00    +0.000 NA
ATOM     25  C   UNL     1      49.607   9.709  11.729  0.00  0.00    +0.000 C 
ENDBRANCH  18  25
ENDBRANCH  16  21
ENDBRANCH   1  16
TORSDOF 5
ENDMDL
MODEL 6
REMARK VINA RESULT:    -6.654      1.672      7.456
REMARK INTER + INTRA:          -9.372
REMARK INTER:                  -9.524
REMARK INTRA:                   0.152
REMARK UNBOUND:                -0.773
REMARK  Name = 
REMARK  5 active torsions:
REMARK  status: ('A' for Active; 'I' for Inactive)
REMARK    1  A    between atoms: C_2  and  C_3
REMARK    2  A    between atoms: C_6  and  N_7
REMARK    3  A    between atoms: N_7  and  C_8
REMARK    4  A    between atoms: C_8  and  C_9
REMARK    5  A    between atoms: C_13  and  C_14
REMARK                            x       y       z     vdW  Elec       q    Type
REMARK                         _______ _______ _______ _____ _____    ______ ____
ROOT
ATOM      1  C   UNL     1      45.395   6.045  11.886  0.00  0.00    +0.000 C 
ATOM      2  C   UNL     1      44.616   7.267  11.430  0.00  0.00    +0.000 C 
ATOM      3  C   UNL     1      44.233   6.610  12.709  0.00  0.00    +0.000 C 
ENDROOT
BRANCH   1   4
ATOM      4  C   UNL     1      45.063   4.636  11.371  0.00  0.00    +0.000 A 
ATOM      5  C   UNL     1      44.003   3.932  11.955  0.00  0.00    +0.000 A 
ATOM      6  C   UNL     1      43.479   2.816  11.314  0.00  0.00    +0.000 A 
ATOM      7  C   UNL     1      44.050   2.402  10.120  0.00  0.00    +0.000 A 
ATOM      8  C   UNL     1      45.154   3.091   9.620  0.00  0.00    +0.000 A 
ATOM      9  N   UNL     1      45.661   4.187  10.240  0.00  0.00    +0.000 NA
BRANCH   8  10
ATOM     10  C   UNL     1      45.821   2.719   8.360  0.00  0.00    +0.000 A 
ATOM     11  C   UNL     1      46.005   3.650   7.320  0.00  0.00    +0.000 A 
ATOM     12  C   UNL     1      46.657   3.292   6.129  0.00  0.00    +0.000 A 
ATOM     13  C   UNL     1      47.129   1.993   5.967  0.00  0.00    +0.000 A 
ATOM     14  C   UNL     1      46.966   1.059   6.985  0.00  0.00    +0.000 A 
ATOM     15  C   UNL     1      46.320   1.420   8.170  0.00  0.00    +0.000 A 
ENDBRANCH   8  10
ENDBRANCH   1   4
BRANCH   1  16
ATOM     16  N   UNL     1      46.792   6.240  12.329  0.00  0.00    +0.000 N 
ATOM     17  H   UNL     1      47.516   6.259  11.619  0.00  0.00    +0.000 HD
BRANCH  16  21
ATOM     18  C   UNL     1      48.200   5.190  16.192  0.00  0.00    +0.000 A 
ATOM     19  C   UNL     1      47.289   4.360  15.540  0.00  0.00    +0.000 A 
ATOM     20  C   UNL     1      46.803   4.700  14.268  0.00  0.00    +0.000 A 
ATOM     21  C   UNL     1      47.265   5.838  13.597  0.00  0.00    +0.000 A 
ATOM     22  C   UNL     1      48.163   6.677  14.274  0.00  0.00    +0.000 A 
ATOM     23  C   UNL     1      48.630   6.360  15.559  0.00  0.00    +0.000 A 
BRANCH  18  25
ATOM     24  N   UNL     1      49.066   4.578  18.560  0.00  0.00    +0.000 NA
ATOM     25  C   UNL     1      48.680   4.854  17.502  0.00  0.00    +0.000 C 
ENDBRANCH  18  25
ENDBRANCH  16  21
ENDBRANCH   1  16
TORSDOF 5
ENDMDL
MODEL 7
REMARK VINA RESULT:    -6.570      1.997      7.713
REMARK INTER + INTRA:          -9.264
REMARK INTER:                  -9.193
REMARK INTRA:                  -0.071
REMARK UNBOUND:                -0.773
REMARK  Name = 
REMARK  5 active torsions:
REMARK  status: ('A' for Active; 'I' for Inactive)
REMARK    1  A    between atoms: C_2  and  C_3
REMARK    2  A    between atoms: C_6  and  N_7
REMARK    3  A    between atoms: N_7  and  C_8
REMARK    4  A    between atoms: C_8  and  C_9
REMARK    5  A    between atoms: C_13  and  C_14
REMARK                            x       y       z     vdW  Elec       q    Type
REMARK                         _______ _______ _______ _____ _____    ______ ____
ROOT
ATOM      1  C   UNL     1      46.369   5.281  13.610  0.00  0.00    +0.000 C 
ATOM      2  C   UNL     1      47.689   5.847  13.114  0.00  0.00    +0.000 C 
ATOM      3  C   UNL     1      46.557   6.780  13.358  0.00  0.00    +0.000 C 
ENDROOT
BRANCH   1   4
ATOM      4  C   UNL     1      45.329   4.693  12.646  0.00  0.00    +0.000 A 
ATOM      5  C   UNL     1      43.970   4.925  12.887  0.00  0.00    +0.000 A 
ATOM      6  C   UNL     1      43.039   4.690  11.884  0.00  0.00    +0.000 A 
ATOM      7  C   UNL     1      43.480   4.189  10.668  0.00  0.00    +0.000 A 
ATOM      8  C   UNL     1      44.834   3.900  10.503  0.00  0.00    +0.000 A 
ATOM      9  N   UNL     1      45.746   4.139  11.479  0.00  0.00    +0.000 NA
BRANCH   8  10
ATOM     10  C   UNL     1      45.387   3.368   9.246  0.00  0.00    +0.000 A 
ATOM     11  C   UNL     1      45.783   4.218   8.195  0.00  0.00    +0.000 A 
ATOM     12  C   UNL     1      46.325   3.702   7.007  0.00  0.00    +0.000 A 
ATOM     13  C   UNL     1      46.473   2.326   6.858  0.00  0.00    +0.000 A 
ATOM     14  C   UNL     1      46.097   1.468   7.886  0.00  0.00    +0.000 A 
ATOM     15  C   UNL     1      45.561   1.985   9.069  0.00  0.00    +0.000 A 
ENDBRANCH   8  10
ENDBRANCH   1   4
BRANCH   1  16
ATOM     16  N   UNL     1      46.318   4.752  14.990  0.00  0.00    +0.000 N 
ATOM     17  H   UNL     1      45.494   4.954  15.544  0.00  0.00    +0.000 HD
BRANCH  16  21
ATOM     18  C   UNL     1      49.741   4.165  17.428  0.00  0.00    +0.000 A 
ATOM     19  C   UNL     1      48.998   3.064  17.006  0.00  0.00    +0.000 A 
ATOM     20  C   UNL     1      47.856   3.242  16.210  0.00  0.00    +0.000 A 
ATOM     21  C   UNL     1      47.471   4.514  15.770  0.00  0.00    +0.000 A 
ATOM     22  C   UNL     1      48.213   5.615  16.222  0.00  0.00    +0.000 A 
ATOM     23  C   UNL     1      49.340   5.448  17.043  0.00  0.00    +0.000 A 
BRANCH  18  25
ATOM     24  N   UNL     1      51.830   3.835  18.931  0.00  0.00    +0.000 NA
ATOM     25  C   UNL     1      50.897   3.985  18.260  0.00  0.00    +0.000 C 
ENDBRANCH  18  25
ENDBRANCH  16  21
ENDBRANCH   1  16
TORSDOF 5
ENDMDL
MODEL 8
REMARK VINA RESULT:    -6.349      2.364      6.781
REMARK INTER + INTRA:          -8.977
REMARK INTER:                  -8.802
REMARK INTRA:                  -0.176
REMARK UNBOUND:                -0.773
REMARK  Name = 
REMARK  5 active torsions:
REMARK  status: ('A' for Active; 'I' for Inactive)
REMARK    1  A    between atoms: C_2  and  C_3
REMARK    2  A    between atoms: C_6  and  N_7
REMARK    3  A    between atoms: N_7  and  C_8
REMARK    4  A    between atoms: C_8  and  C_9
REMARK    5  A    between atoms: C_13  and  C_14
REMARK                            x       y       z     vdW  Elec       q    Type
REMARK                         _______ _______ _______ _____ _____    ______ ____
ROOT
ATOM      1  C   UNL     1      46.094   5.181  13.617  0.00  0.00    +0.000 C 
ATOM      2  C   UNL     1      46.214   4.375  14.900  0.00  0.00    +0.000 C 
ATOM      3  C   UNL     1      47.174   4.108  13.794  0.00  0.00    +0.000 C 
ENDROOT
BRANCH   1   4
ATOM      4  C   UNL     1      45.113   4.786  12.503  0.00  0.00    +0.000 A 
ATOM      5  C   UNL     1      43.797   5.262  12.557  0.00  0.00    +0.000 A 
ATOM      6  C   UNL     1      42.991   5.195  11.428  0.00  0.00    +0.000 A 
ATOM      7  C   UNL     1      43.503   4.617  10.275  0.00  0.00    +0.000 A 
ATOM      8  C   UNL     1      44.792   4.086  10.296  0.00  0.00    +0.000 A 
ATOM      9  N   UNL     1      45.584   4.160  11.396  0.00  0.00    +0.000 NA
BRANCH   8  10
ATOM     10  C   UNL     1      45.413   3.456   9.119  0.00  0.00    +0.000 A 
ATOM     11  C   UNL     1      45.835   4.217   8.012  0.00  0.00    +0.000 A 
ATOM     12  C   UNL     1      46.442   3.609   6.900  0.00  0.00    +0.000 A 
ATOM     13  C   UNL     1      46.629   2.230   6.886  0.00  0.00    +0.000 A 
ATOM     14  C   UNL     1      46.228   1.460   7.973  0.00  0.00    +0.000 A 
ATOM     15  C   UNL     1      45.628   2.069   9.078  0.00  0.00    +0.000 A 
ENDBRANCH   8  10
ENDBRANCH   1   4
BRANCH   1  16
ATOM     16  N   UNL     1      46.447   6.616  13.665  0.00  0.00    +0.000 N 
ATOM     17  H   UNL     1      45.692   7.291  13.636  0.00  0.00    +0.000 HD
BRANCH  16  21
ATOM     18  C   UNL     1      50.208   8.051  12.323  0.00  0.00    +0.000 A 
ATOM     19  C   UNL     1      49.192   7.810  11.399  0.00  0.00    +0.000 A 
ATOM     20  C   UNL     1      47.947   7.323  11.825  0.00  0.00    +0.000 A 
ATOM     21  C   UNL     1      47.673   7.127  13.184  0.00  0.00    +0.000 A 
ATOM     22  C   UNL     1      48.711   7.351  14.100  0.00  0.00    +0.000 A 
ATOM     23  C   UNL     1      49.969   7.810  13.679  0.00  0.00    +0.000 A 
BRANCH  18  25
ATOM     24  N   UNL     1      52.522   8.920  11.531  0.00  0.00    +0.000 NA
ATOM     25  C   UNL     1      51.489   8.529  11.885  0.00  0.00    +0.000 C 
ENDBRANCH  18  25
ENDBRANCH  16  21
ENDBRANCH   1  16
TORSDOF 5
ENDMDL
MODEL 9
REMARK VINA RESULT:    -5.973      3.468      7.629
REMARK INTER + INTRA:          -8.492
REMARK INTER:                  -7.469
REMARK INTRA:                  -1.023
REMARK UNBOUND:                -0.773
REMARK  Name = 
REMARK  5 active torsions:
REMARK  status: ('A' for Active; 'I' for Inactive)
REMARK    1  A    between atoms: C_2  and  C_3
REMARK    2  A    between atoms: C_6  and  N_7
REMARK    3  A    between atoms: N_7  and  C_8
REMARK    4  A    between atoms: C_8  and  C_9
REMARK    5  A    between atoms: C_13  and  C_14
REMARK                            x       y       z     vdW  Elec       q    Type
REMARK                         _______ _______ _______ _____ _____    ______ ____
ROOT
ATOM      1  C   UNL     1      48.704   8.295  16.560  0.00  0.00    +0.000 C 
ATOM      2  C   UNL     1      49.588   9.301  17.278  0.00  0.00    +0.000 C 
ATOM      3  C   UNL     1      48.219   9.715  16.869  0.00  0.00    +0.000 C 
ENDROOT
BRANCH   1   4
ATOM      4  C   UNL     1      48.802   8.073  15.043  0.00  0.00    +0.000 A 
ATOM      5  C   UNL     1      49.971   8.454  14.374  0.00  0.00    +0.000 A 
ATOM      6  C   UNL     1      50.218   7.984  13.091  0.00  0.00    +0.000 A 
ATOM      7  C   UNL     1      49.273   7.170  12.484  0.00  0.00    +0.000 A 
ATOM      8  C   UNL     1      48.089   6.882  13.162  0.00  0.00    +0.000 A 
ATOM      9  N   UNL     1      47.851   7.334  14.420  0.00  0.00    +0.000 NA
BRANCH   8  10
ATOM     10  C   UNL     1      47.033   6.027  12.593  0.00  0.00    +0.000 A 
ATOM     11  C   UNL     1      46.466   6.296  11.333  0.00  0.00    +0.000 A 
ATOM     12  C   UNL     1      45.472   5.466  10.790  0.00  0.00    +0.000 A 
ATOM     13  C   UNL     1      45.035   4.356  11.507  0.00  0.00    +0.000 A 
ATOM     14  C   UNL     1      45.588   4.066  12.750  0.00  0.00    +0.000 A 
ATOM     15  C   UNL     1      46.579   4.893  13.285  0.00  0.00    +0.000 A 
ENDBRANCH   8  10
ENDBRANCH   1   4
BRANCH   1  16
ATOM     16  N   UNL     1      48.196   7.143  17.334  0.00  0.00    +0.000 N 
ATOM     17  H   UNL     1      47.635   7.335  18.156  0.00  0.00    +0.000 HD
BRANCH  16  21
ATOM     18  C   UNL     1      50.092   3.347  17.353  0.00  0.00    +0.000 A 
ATOM     19  C   UNL     1      50.837   4.492  17.630  0.00  0.00    +0.000 A 
ATOM     20  C   UNL     1      50.228   5.756  17.614  0.00  0.00    +0.000 A 
ATOM     21  C   UNL     1      48.855   5.895  17.385  0.00  0.00    +0.000 A 
ATOM     22  C   UNL     1      48.121   4.737  17.085  0.00  0.00    +0.000 A 
ATOM     23  C   UNL     1      48.729   3.472  17.069  0.00  0.00    +0.000 A 
BRANCH  18  25
ATOM     24  N   UNL     1      51.221   1.011  17.346  0.00  0.00    +0.000 NA
ATOM     25  C   UNL     1      50.719   2.056  17.348  0.00  0.00    +0.000 C 
ENDBRANCH  18  25
ENDBRANCH  16  21
ENDBRANCH   1  16
TORSDOF 5
ENDMDL
