MODEL 1
REMARK VINA RESULT:    -7.318      0.000      0.000
REMARK INTER + INTRA:         -10.896
REMARK INTER:                  -9.884
REMARK INTRA:                  -1.012
REMARK UNBOUND:                -1.012
REMARK  Name = 
REMARK  7 active torsions:
REMARK  status: ('A' for Active; 'I' for Inactive)
REMARK    1  A    between atoms: C_1  and  C_2
REMARK    2  A    between atoms: C_2  and  N_3
REMARK    3  A    between atoms: C_2  and  C_16
REMARK    4  A    between atoms: C_4  and  C_6
REMARK    5  A    between atoms: C_19  and  C_20
REMARK    6  A    between atoms: C_20  and  N_21
REMARK    7  A    between atoms: C_22  and  C_24
REMARK                            x       y       z     vdW  Elec       q    Type
REMARK                         _______ _______ _______ _____ _____    ______ ____
ROOT
ATOM      1  C   UNL     1      48.028   5.047  15.939  0.00  0.00    +0.000 A 
ATOM      2  C   UNL     1      48.638   6.212  15.459  0.00  0.00    +0.000 A 
ATOM      3  C   UNL     1      48.359   6.688  14.171  0.00  0.00    +0.000 A 
ATOM      4  C   UNL     1      47.465   6.007  13.334  0.00  0.00    +0.000 A 
ATOM      5  C   UNL     1      46.872   4.828  13.801  0.00  0.00    +0.000 A 
ATOM      6  C   UNL     1      47.137   4.365  15.091  0.00  0.00    +0.000 A 
ENDROOT
BRANCH   1   8
ATOM      7  C   UNL     1      47.459   3.323  17.672  0.00  0.00    +0.000 C 
ATOM      8  C   UNL     1      48.352   4.516  17.334  0.00  0.00    +0.000 C 
BRANCH   8   9
ATOM      9  N   UNL     1      49.755   4.160  17.387  0.00  0.00    +0.000 N 
ATOM     10  C   UNL     1      50.546   4.301  18.496  0.00  0.00    +0.000 C 
ATOM     11  O   UNL     1      50.136   4.703  19.580  0.00  0.00    +0.000 OA
ATOM     12  H   UNL     1      50.215   4.137  16.484  0.00  0.00    +0.000 HD
BRANCH  10  13
ATOM     13  C   UNL     1      51.934   3.863  18.323  0.00  0.00    +0.000 A 
ATOM     14  C   UNL     1      52.991   4.717  18.596  0.00  0.00    +0.000 A 
ATOM     15  S   UNL     1      54.521   3.995  18.364  0.00  0.00    +0.000 S 
ATOM     16  C   UNL     1      53.816   2.532  17.861  0.00  0.00    +0.000 A 
ATOM     17  N   UNL     1      54.582   1.472  17.492  0.00  0.00    +0.000 NA
ATOM     18  C   UNL     1      53.905   0.429  17.114  0.00  0.00    +0.000 A 
ATOM     19  N   UNL     1      52.541   0.356  17.081  0.00  0.00    +0.000 N 
ATOM     20  C   UNL     1      51.729   1.390  17.458  0.00  0.00    +0.000 A 
ATOM     21  O   UNL     1      50.506   1.265  17.453  0.00  0.00    +0.000 OA
ATOM     22  C   UNL     1      52.438   2.588  17.882  0.00  0.00    +0.000 A 
ATOM     23  H   UNL     1      52.068  -0.489  16.795  0.00  0.00    +0.000 HD
ENDBRANCH  10  13
ENDBRANCH   8   9
ENDBRANCH   1   8
BRANCH   4  24
ATOM     24  C   UNL     1      47.124   6.541  11.970  0.00  0.00    +0.000 C 
BRANCH  24  25
ATOM     25  N   UNL     1      46.002   5.864  11.366  0.00  0.00    +0.000 N 
ATOM     26  C   UNL     1      44.744   6.425  11.460  0.00  0.00    +0.000 C 
ATOM     27  O   UNL     1      44.545   7.454  12.101  0.00  0.00    +0.000 OA
ATOM     28  H   UNL     1      46.161   5.061  10.777  0.00  0.00    +0.000 HD
BRANCH  26  29
ATOM     29  C   UNL     1      43.620   5.642  10.733  0.00  0.00    +0.000 C 
ATOM     30  C   UNL     1      44.160   4.392  10.022  0.00  0.00    +0.000 C 
ATOM     31  C   UNL     1      44.615   3.321  11.014  0.00  0.00    +0.000 C 
ATOM     32  C   UNL     1      43.528   3.030  12.042  0.00  0.00    +0.000 C 
ATOM     33  C   UNL     1      42.962   4.305  12.665  0.00  0.00    +0.000 C 
ATOM     34  N   UNL     1      42.519   5.261  11.649  0.00  0.00    +0.000 NA
ATOM     35  H   UNL     1      42.117   6.080  12.094  0.00  0.00    +0.000 HD
ENDBRANCH  26  29
ENDBRANCH  24  25
ENDBRANCH   4  24
TORSDOF 6
ENDMDL
MODEL 2
REMARK VINA RESULT:    -7.315      3.259      9.196
REMARK INTER + INTRA:         -10.893
REMARK INTER:                  -9.718
REMARK INTRA:                  -1.175
REMARK UNBOUND:                -1.012
REMARK  Name = 
REMARK  7 active torsions:
REMARK  status: ('A' for Active; 'I' for Inactive)
REMARK    1  A    between atoms: C_1  and  C_2
REMARK    2  A    between atoms: C_2  and  N_3
REMARK    3  A    between atoms: C_2  and  C_16
REMARK    4  A    between atoms: C_4  and  C_6
REMARK    5  A    between atoms: C_19  and  C_20
REMARK    6  A    between atoms: C_20  and  N_21
REMARK    7  A    between atoms: C_22  and  C_24
REMARK                            x       y       z     vdW  Elec       q    Type
REMARK                         _______ _______ _______ _____ _____    ______ ____
ROOT
ATOM      1  C   UNL     1      47.928   7.802  13.633  0.00  0.00    +0.000 A 
ATOM      2  C   UNL     1      48.318   6.648  14.323  0.00  0.00    +0.000 A 
ATOM      3  C   UNL     1      48.687   6.711  15.673  0.00  0.00    +0.000 A 
ATOM      4  C   UNL     1      48.677   7.931  16.362  0.00  0.00    +0.000 A 
ATOM      5  C   UNL     1      48.312   9.091  15.670  0.00  0.00    +0.000 A 
ATOM      6  C   UNL     1      47.927   9.025  14.329  0.00  0.00    +0.000 A 
ENDROOT
BRANCH   1   8
ATOM      7  C   UNL     1      48.800   7.766  11.280  0.00  0.00    +0.000 C 
ATOM      8  C   UNL     1      47.548   7.737  12.155  0.00  0.00    +0.000 C 
BRANCH   8   9
ATOM      9  N   UNL     1      46.767   6.538  11.924  0.00  0.00    +0.000 N 
ATOM     10  C   UNL     1      45.414   6.527  11.720  0.00  0.00    +0.000 C 
ATOM     11  O   UNL     1      44.723   7.538  11.666  0.00  0.00    +0.000 OA
ATOM     12  H   UNL     1      47.196   5.687  12.269  0.00  0.00    +0.000 HD
BRANCH  10  13
ATOM     13  C   UNL     1      44.836   5.198  11.493  0.00  0.00    +0.000 A 
ATOM     14  C   UNL     1      44.096   4.565  12.478  0.00  0.00    +0.000 A 
ATOM     15  S   UNL     1      43.485   3.045  11.992  0.00  0.00    +0.000 S 
ATOM     16  C   UNL     1      44.219   3.177  10.465  0.00  0.00    +0.000 A 
ATOM     17  N   UNL     1      44.102   2.186   9.541  0.00  0.00    +0.000 NA
ATOM     18  C   UNL     1      44.733   2.418   8.428  0.00  0.00    +0.000 A 
ATOM     19  N   UNL     1      45.454   3.547   8.161  0.00  0.00    +0.000 N 
ATOM     20  C   UNL     1      45.585   4.576   9.052  0.00  0.00    +0.000 A 
ATOM     21  O   UNL     1      46.210   5.592   8.753  0.00  0.00    +0.000 OA
ATOM     22  C   UNL     1      44.907   4.364  10.322  0.00  0.00    +0.000 A 
ATOM     23  H   UNL     1      45.908   3.680   7.269  0.00  0.00    +0.000 HD
ENDBRANCH  10  13
ENDBRANCH   8   9
ENDBRANCH   1   8
BRANCH   4  24
ATOM     24  C   UNL     1      49.025   7.995  17.824  0.00  0.00    +0.000 C 
BRANCH  24  25
ATOM     25  N   UNL     1      49.035   6.697  18.457  0.00  0.00    +0.000 N 
ATOM     26  C   UNL     1      50.243   6.111  18.776  0.00  0.00    +0.000 C 
ATOM     27  O   UNL     1      51.312   6.637  18.478  0.00  0.00    +0.000 OA
ATOM     28  H   UNL     1      48.168   6.289  18.773  0.00  0.00    +0.000 HD
BRANCH  26  29
ATOM     29  C   UNL     1      50.137   4.743  19.498  0.00  0.00    +0.000 C 
ATOM     30  C   UNL     1      48.879   3.969  19.079  0.00  0.00    +0.000 C 
ATOM     31  C   UNL     1      48.960   3.487  17.630  0.00  0.00    +0.000 C 
ATOM     32  C   UNL     1      50.263   2.738  17.375  0.00  0.00    +0.000 C 
ATOM     33  C   UNL     1      51.482   3.507  17.881  0.00  0.00    +0.000 C 
ATOM     34  N   UNL     1      51.338   3.901  19.283  0.00  0.00    +0.000 NA
ATOM     35  H   UNL     1      52.177   4.377  19.599  0.00  0.00    +0.000 HD
ENDBRANCH  26  29
ENDBRANCH  24  25
ENDBRANCH   4  24
TORSDOF 6
ENDMDL
MODEL 3
REMARK VINA RESULT:    -7.113      5.396      7.075
REMARK INTER + INTRA:         -10.621
REMARK INTER:                  -9.657
REMARK INTRA:                  -0.963
REMARK UNBOUND:                -1.012
REMARK  Name = 
REMARK  7 active torsions:
REMARK  status: ('A' for Active; 'I' for Inactive)
REMARK    1  A    between atoms: C_1  and  C_2
REMARK    2  A    between atoms: C_2  and  N_3
REMARK    3  A    between atoms: C_2  and  C_16
REMARK    4  A    between atoms: C_4  and  C_6
REMARK    5  A    between atoms: C_19  and  C_20
REMARK    6  A    between atoms: C_20  and  N_21
REMARK    7  A    between atoms: C_22  and  C_24
REMARK                            x       y       z     vdW  Elec       q    Type
REMARK                         _______ _______ _______ _____ _____    ______ ____
ROOT
ATOM      1  C   UNL     1      49.332   7.696  12.102  0.00  0.00    +0.000 A 
ATOM      2  C   UNL     1      48.207   7.357  11.340  0.00  0.00    +0.000 A 
ATOM      3  C   UNL     1      47.180   6.578  11.886  0.00  0.00    +0.000 A 
ATOM      4  C   UNL     1      47.255   6.118  13.208  0.00  0.00    +0.000 A 
ATOM      5  C   UNL     1      48.389   6.433  13.966  0.00  0.00    +0.000 A 
ATOM      6  C   UNL     1      49.405   7.226  13.426  0.00  0.00    +0.000 A 
ENDROOT
BRANCH   1   8
ATOM      7  C   UNL     1      50.924   9.598  12.483  0.00  0.00    +0.000 C 
ATOM      8  C   UNL     1      50.462   8.526  11.498  0.00  0.00    +0.000 C 
BRANCH   8   9
ATOM      9  N   UNL     1      51.549   7.641  11.128  0.00  0.00    +0.000 N 
ATOM     10  C   UNL     1      52.421   7.876  10.100  0.00  0.00    +0.000 C 
ATOM     11  O   UNL     1      52.402   8.889   9.408  0.00  0.00    +0.000 OA
ATOM     12  H   UNL     1      51.424   6.680  11.425  0.00  0.00    +0.000 HD
BRANCH  10  13
ATOM     13  C   UNL     1      53.450   6.849   9.917  0.00  0.00    +0.000 A 
ATOM     14  C   UNL     1      54.392   6.599  10.902  0.00  0.00    +0.000 A 
ATOM     15  S   UNL     1      55.472   5.339  10.501  0.00  0.00    +0.000 S 
ATOM     16  C   UNL     1      54.734   5.113   8.987  0.00  0.00    +0.000 A 
ATOM     17  N   UNL     1      55.190   4.175   8.114  0.00  0.00    +0.000 NA
ATOM     18  C   UNL     1      54.539   4.131   6.990  0.00  0.00    +0.000 A 
ATOM     19  N   UNL     1      53.477   4.930   6.672  0.00  0.00    +0.000 N 
ATOM     20  C   UNL     1      52.973   5.874   7.523  0.00  0.00    +0.000 A 
ATOM     21  O   UNL     1      51.989   6.542   7.211  0.00  0.00    +0.000 OA
ATOM     22  C   UNL     1      53.673   5.974   8.795  0.00  0.00    +0.000 A 
ATOM     23  H   UNL     1      52.997   4.837   5.789  0.00  0.00    +0.000 HD
ENDBRANCH  10  13
ENDBRANCH   8   9
ENDBRANCH   1   8
BRANCH   4  24
ATOM     24  C   UNL     1      46.132   5.322  13.815  0.00  0.00    +0.000 C 
BRANCH  24  25
ATOM     25  N   UNL     1      45.069   5.047  12.878  0.00  0.00    +0.000 N 
ATOM     26  C   UNL     1      44.869   3.752  12.445  0.00  0.00    +0.000 C 
ATOM     27  O   UNL     1      45.615   2.837  12.787  0.00  0.00    +0.000 OA
ATOM     28  H   UNL     1      44.407   5.772  12.647  0.00  0.00    +0.000 HD
BRANCH  26  29
ATOM     29  C   UNL     1      43.670   3.560  11.481  0.00  0.00    +0.000 C 
ATOM     30  C   UNL     1      43.473   4.773  10.562  0.00  0.00    +0.000 C 
ATOM     31  C   UNL     1      44.603   4.906   9.539  0.00  0.00    +0.000 C 
ATOM     32  C   UNL     1      44.824   3.593   8.797  0.00  0.00    +0.000 C 
ATOM     33  C   UNL     1      44.933   2.401   9.745  0.00  0.00    +0.000 C 
ATOM     34  N   UNL     1      43.797   2.328  10.666  0.00  0.00    +0.000 NA
ATOM     35  H   UNL     1      43.880   1.508  11.257  0.00  0.00    +0.000 HD
ENDBRANCH  26  29
ENDBRANCH  24  25
ENDBRANCH   4  24
TORSDOF 6
ENDMDL
MODEL 4
REMARK VINA RESULT:    -7.108      1.453      2.339
REMARK INTER + INTRA:         -10.614
REMARK INTER:                  -9.955
REMARK INTRA:                  -0.659
REMARK UNBOUND:                -1.012
REMARK  Name = 
REMARK  7 active torsions:
REMARK  status: ('A' for Active; 'I' for Inactive)
REMARK    1  A    between atoms: C_1  and  C_2
REMARK    2  A    between atoms: C_2  and  N_3
REMARK    3  A    between atoms: C_2  and  C_16
REMARK    4  A    between atoms: C_4  and  C_6
REMARK    5  A    between atoms: C_19  and  C_20
REMARK    6  A    between atoms: C_20  and  N_21
REMARK    7  A    between atoms: C_22  and  C_24
REMARK                            x       y       z     vdW  Elec       q    Type
REMARK                         _______ _______ _______ _____ _____    ______ ____
ROOT
ATOM      1  C   UNL     1      48.008   4.533  16.535  0.00  0.00    +0.000 A 
ATOM      2  C   UNL     1      47.182   4.091  15.494  0.00  0.00    +0.000 A 
ATOM      3  C   UNL     1      47.050   4.839  14.317  0.00  0.00    +0.000 A 
ATOM      4  C   UNL     1      47.741   6.048  14.156  0.00  0.00    +0.000 A 
ATOM      5  C   UNL     1      48.549   6.506  15.203  0.00  0.00    +0.000 A 
ATOM      6  C   UNL     1      48.694   5.750  16.369  0.00  0.00    +0.000 A 
ENDROOT
BRANCH   1   8
ATOM      7  C   UNL     1      47.180   2.535  17.807  0.00  0.00    +0.000 C 
ATOM      8  C   UNL     1      48.133   3.728  17.826  0.00  0.00    +0.000 C 
BRANCH   8   9
ATOM      9  N   UNL     1      49.510   3.305  17.985  0.00  0.00    +0.000 N 
ATOM     10  C   UNL     1      50.136   2.395  17.177  0.00  0.00    +0.000 C 
ATOM     11  O   UNL     1      49.609   1.874  16.200  0.00  0.00    +0.000 OA
ATOM     12  H   UNL     1      49.882   3.435  18.919  0.00  0.00    +0.000 HD
BRANCH  10  13
ATOM     13  C   UNL     1      51.537   2.129  17.518  0.00  0.00    +0.000 A 
ATOM     14  C   UNL     1      52.000   0.832  17.671  0.00  0.00    +0.000 A 
ATOM     15  S   UNL     1      53.667   0.747  18.030  0.00  0.00    +0.000 S 
ATOM     16  C   UNL     1      53.811   2.440  18.024  0.00  0.00    +0.000 A 
ATOM     17  N   UNL     1      55.001   3.046  18.280  0.00  0.00    +0.000 NA
ATOM     18  C   UNL     1      54.954   4.345  18.260  0.00  0.00    +0.000 A 
ATOM     19  N   UNL     1      53.831   5.080  18.000  0.00  0.00    +0.000 N 
ATOM     20  C   UNL     1      52.618   4.516  17.720  0.00  0.00    +0.000 A 
ATOM     21  O   UNL     1      51.645   5.216  17.450  0.00  0.00    +0.000 OA
ATOM     22  C   UNL     1      52.612   3.061  17.740  0.00  0.00    +0.000 A 
ATOM     23  H   UNL     1      53.860   6.089  17.979  0.00  0.00    +0.000 HD
ENDBRANCH  10  13
ENDBRANCH   8   9
ENDBRANCH   1   8
BRANCH   4  24
ATOM     24  C   UNL     1      47.641   6.830  12.874  0.00  0.00    +0.000 C 
BRANCH  24  25
ATOM     25  N   UNL     1      46.753   6.221  11.913  0.00  0.00    +0.000 N 
ATOM     26  C   UNL     1      45.470   6.709  11.774  0.00  0.00    +0.000 C 
ATOM     27  O   UNL     1      45.042   7.609  12.495  0.00  0.00    +0.000 OA
ATOM     28  H   UNL     1      47.112   5.534  11.266  0.00  0.00    +0.000 HD
BRANCH  26  29
ATOM     29  C   UNL     1      44.619   6.017  10.679  0.00  0.00    +0.000 C 
ATOM     30  C   UNL     1      45.088   4.580  10.411  0.00  0.00    +0.000 C 
ATOM     31  C   UNL     1      44.790   3.651  11.589  0.00  0.00    +0.000 C 
ATOM     32  C   UNL     1      43.330   3.759  12.014  0.00  0.00    +0.000 C 
ATOM     33  C   UNL     1      42.882   5.209  12.190  0.00  0.00    +0.000 C 
ATOM     34  N   UNL     1      43.173   6.020  11.006  0.00  0.00    +0.000 NA
ATOM     35  H   UNL     1      42.832   6.966  11.140  0.00  0.00    +0.000 HD
ENDBRANCH  26  29
ENDBRANCH  24  25
ENDBRANCH   4  24
TORSDOF 6
ENDMDL
MODEL 5
REMARK VINA RESULT:    -7.031      3.518      8.659
REMARK INTER + INTRA:         -10.509
REMARK INTER:                  -9.502
REMARK INTRA:                  -1.007
REMARK UNBOUND:                -1.012
REMARK  Name = 
REMARK  7 active torsions:
REMARK  status: ('A' for Active; 'I' for Inactive)
REMARK    1  A    between atoms: C_1  and  C_2
REMARK    2  A    between atoms: C_2  and  N_3
REMARK    3  A    between atoms: C_2  and  C_16
REMARK    4  A    between atoms: C_4  and  C_6
REMARK    5  A    between atoms: C_19  and  C_20
REMARK    6  A    between atoms: C_20  and  N_21
REMARK    7  A    between atoms: C_22  and  C_24
REMARK                            x       y       z     vdW  Elec       q    Type
REMARK                         _______ _______ _______ _____ _____    ______ ____
ROOT
ATOM      1  C   UNL     1      48.488   7.893  13.566  0.00  0.00    +0.000 A 
ATOM      2  C   UNL     1      48.743   6.670  14.198  0.00  0.00    +0.000 A 
ATOM      3  C   UNL     1      48.771   6.578  15.595  0.00  0.00    +0.000 A 
ATOM      4  C   UNL     1      48.546   7.708  16.392  0.00  0.00    +0.000 A 
ATOM      5  C   UNL     1      48.315   8.938  15.765  0.00  0.00    +0.000 A 
ATOM      6  C   UNL     1      48.269   9.025  14.371  0.00  0.00    +0.000 A 
ENDROOT
BRANCH   1   8
ATOM      7  C   UNL     1      49.907   7.933  11.496  0.00  0.00    +0.000 C 
ATOM      8  C   UNL     1      48.481   7.997  12.042  0.00  0.00    +0.000 C 
BRANCH   8   9
ATOM      9  N   UNL     1      47.658   6.934  11.502  0.00  0.00    +0.000 N 
ATOM     10  C   UNL     1      46.294   6.990  11.399  0.00  0.00    +0.000 C 
ATOM     11  O   UNL     1      45.626   7.970  11.712  0.00  0.00    +0.000 OA
ATOM     12  H   UNL     1      48.088   6.016  11.533  0.00  0.00    +0.000 HD
BRANCH  10  13
ATOM     13  C   UNL     1      45.671   5.802  10.809  0.00  0.00    +0.000 A 
ATOM     14  C   UNL     1      45.794   5.529   9.457  0.00  0.00    +0.000 A 
ATOM     15  S   UNL     1      45.025   4.078   8.986  0.00  0.00    +0.000 S 
ATOM     16  C   UNL     1      44.479   3.790  10.570  0.00  0.00    +0.000 A 
ATOM     17  N   UNL     1      43.729   2.695  10.868  0.00  0.00    +0.000 NA
ATOM     18  C   UNL     1      43.368   2.618  12.114  0.00  0.00    +0.000 A 
ATOM     19  N   UNL     1      43.698   3.528  13.078  0.00  0.00    +0.000 N 
ATOM     20  C   UNL     1      44.464   4.633  12.830  0.00  0.00    +0.000 A 
ATOM     21  O   UNL     1      44.771   5.403  13.739  0.00  0.00    +0.000 OA
ATOM     22  C   UNL     1      44.887   4.775  11.445  0.00  0.00    +0.000 A 
ATOM     23  H   UNL     1      43.405   3.405  14.036  0.00  0.00    +0.000 HD
ENDBRANCH  10  13
ENDBRANCH   8   9
ENDBRANCH   1   8
BRANCH   4  24
ATOM     24  C   UNL     1      48.525   7.604  17.893  0.00  0.00    +0.000 C 
BRANCH  24  25
ATOM     25  N   UNL     1      48.967   6.317  18.372  0.00  0.00    +0.000 N 
ATOM     26  C   UNL     1      48.028   5.377  18.747  0.00  0.00    +0.000 C 
ATOM     27  O   UNL     1      46.826   5.632  18.744  0.00  0.00    +0.000 OA
ATOM     28  H   UNL     1      49.943   6.069  18.311  0.00  0.00    +0.000 HD
BRANCH  26  29
ATOM     29  C   UNL     1      48.609   4.012  19.198  0.00  0.00    +0.000 C 
ATOM     30  C   UNL     1      47.974   2.839  18.438  0.00  0.00    +0.000 C 
ATOM     31  C   UNL     1      48.389   2.819  16.966  0.00  0.00    +0.000 C 
ATOM     32  C   UNL     1      49.904   2.903  16.825  0.00  0.00    +0.000 C 
ATOM     33  C   UNL     1      50.503   4.032  17.661  0.00  0.00    +0.000 C 
ATOM     34  N   UNL     1      50.084   3.958  19.061  0.00  0.00    +0.000 NA
ATOM     35  H   UNL     1      50.526   4.698  19.597  0.00  0.00    +0.000 HD
ENDBRANCH  26  29
ENDBRANCH  24  25
ENDBRANCH   4  24
TORSDOF 6
ENDMDL
MODEL 6
REMARK VINA RESULT:    -6.861      1.602      2.374
REMARK INTER + INTRA:         -10.280
REMARK INTER:                  -9.181
REMARK INTRA:                  -1.099
REMARK UNBOUND:                -1.012
REMARK  Name = 
REMARK  7 active torsions:
REMARK  status: ('A' for Active; 'I' for Inactive)
REMARK    1  A    between atoms: C_1  and  C_2
REMARK    2  A    between atoms: C_2  and  N_3
REMARK    3  A    between atoms: C_2  and  C_16
REMARK    4  A    between atoms: C_4  and  C_6
REMARK    5  A    between atoms: C_19  and  C_20
REMARK    6  A    between atoms: C_20  and  N_21
REMARK    7  A    between atoms: C_22  and  C_24
REMARK                            x       y       z     vdW  Elec       q    Type
REMARK                         _______ _______ _______ _____ _____    ______ ____
ROOT
ATOM      1  C   UNL     1      49.094   5.259  18.186  0.00  0.00    +0.000 A 
ATOM      2  C   UNL     1      48.250   4.260  17.686  0.00  0.00    +0.000 A 
ATOM      3  C   UNL     1      47.707   4.359  16.399  0.00  0.00    +0.000 A 
ATOM      4  C   UNL     1      47.996   5.461  15.583  0.00  0.00    +0.000 A 
ATOM      5  C   UNL     1      48.819   6.474  16.087  0.00  0.00    +0.000 A 
ATOM      6  C   UNL     1      49.374   6.366  17.364  0.00  0.00    +0.000 A 
ENDROOT
BRANCH   1   8
ATOM      7  C   UNL     1      48.607   4.643  20.570  0.00  0.00    +0.000 C 
ATOM      8  C   UNL     1      49.666   5.162  19.598  0.00  0.00    +0.000 C 
BRANCH   8   9
ATOM      9  N   UNL     1      50.831   4.301  19.575  0.00  0.00    +0.000 N 
ATOM     10  C   UNL     1      52.094   4.720  19.255  0.00  0.00    +0.000 C 
ATOM     11  O   UNL     1      52.383   5.883  18.997  0.00  0.00    +0.000 OA
ATOM     12  H   UNL     1      50.621   3.316  19.458  0.00  0.00    +0.000 HD
BRANCH  10  13
ATOM     13  C   UNL     1      53.122   3.676  19.310  0.00  0.00    +0.000 A 
ATOM     14  C   UNL     1      54.248   3.824  20.104  0.00  0.00    +0.000 A 
ATOM     15  S   UNL     1      55.296   2.477  20.051  0.00  0.00    +0.000 S 
ATOM     16  C   UNL     1      54.293   1.671  18.940  0.00  0.00    +0.000 A 
ATOM     17  N   UNL     1      54.621   0.443  18.457  0.00  0.00    +0.000 NA
ATOM     18  C   UNL     1      53.769  -0.040  17.603  0.00  0.00    +0.000 A 
ATOM     19  N   UNL     1      52.625   0.591  17.201  0.00  0.00    +0.000 N 
ATOM     20  C   UNL     1      52.245   1.817  17.672  0.00  0.00    +0.000 A 
ATOM     21  O   UNL     1      51.186   2.328  17.314  0.00  0.00    +0.000 OA
ATOM     22  C   UNL     1      53.171   2.410  18.626  0.00  0.00    +0.000 A 
ATOM     23  H   UNL     1      51.990   0.158  16.547  0.00  0.00    +0.000 HD
ENDBRANCH  10  13
ENDBRANCH   8   9
ENDBRANCH   1   8
BRANCH   4  24
ATOM     24  C   UNL     1      47.455   5.547  14.181  0.00  0.00    +0.000 C 
BRANCH  24  25
ATOM     25  N   UNL     1      46.285   4.727  13.979  0.00  0.00    +0.000 N 
ATOM     26  C   UNL     1      45.207   5.245  13.291  0.00  0.00    +0.000 C 
ATOM     27  O   UNL     1      45.193   6.411  12.901  0.00  0.00    +0.000 OA
ATOM     28  H   UNL     1      46.311   3.749  14.228  0.00  0.00    +0.000 HD
BRANCH  26  29
ATOM     29  C   UNL     1      44.025   4.263  13.087  0.00  0.00    +0.000 C 
ATOM     30  C   UNL     1      42.905   4.882  12.238  0.00  0.00    +0.000 C 
ATOM     31  C   UNL     1      43.331   5.074  10.781  0.00  0.00    +0.000 C 
ATOM     32  C   UNL     1      43.907   3.785  10.206  0.00  0.00    +0.000 C 
ATOM     33  C   UNL     1      44.958   3.160  11.121  0.00  0.00    +0.000 C 
ATOM     34  N   UNL     1      44.460   2.980  12.485  0.00  0.00    +0.000 NA
ATOM     35  H   UNL     1      45.167   2.531  13.058  0.00  0.00    +0.000 HD
ENDBRANCH  26  29
ENDBRANCH  24  25
ENDBRANCH   4  24
TORSDOF 6
ENDMDL
MODEL 7
REMARK VINA RESULT:    -6.595      3.077      9.402
REMARK INTER + INTRA:          -9.921
REMARK INTER:                  -9.835
REMARK INTRA:                  -0.086
REMARK UNBOUND:                -1.012
REMARK  Name = 
REMARK  7 active torsions:
REMARK  status: ('A' for Active; 'I' for Inactive)
REMARK    1  A    between atoms: C_1  and  C_2
REMARK    2  A    between atoms: C_2  and  N_3
REMARK    3  A    between atoms: C_2  and  C_16
REMARK    4  A    between atoms: C_4  and  C_6
REMARK    5  A    between atoms: C_19  and  C_20
REMARK    6  A    between atoms: C_20  and  N_21
REMARK    7  A    between atoms: C_22  and  C_24
REMARK                            x       y       z     vdW  Elec       q    Type
REMARK                         _______ _______ _______ _____ _____    ______ ____
ROOT
ATOM      1  C   UNL     1      49.182   5.127  16.929  0.00  0.00    +0.000 A 
ATOM      2  C   UNL     1      48.435   3.948  16.818  0.00  0.00    +0.000 A 
ATOM      3  C   UNL     1      49.033   2.699  17.030  0.00  0.00    +0.000 A 
ATOM      4  C   UNL     1      50.392   2.601  17.356  0.00  0.00    +0.000 A 
ATOM      5  C   UNL     1      51.148   3.776  17.444  0.00  0.00    +0.000 A 
ATOM      6  C   UNL     1      50.548   5.022  17.250  0.00  0.00    +0.000 A 
ENDROOT
BRANCH   1   8
ATOM      7  C   UNL     1      49.605   7.547  16.416  0.00  0.00    +0.000 C 
ATOM      8  C   UNL     1      48.536   6.487  16.674  0.00  0.00    +0.000 C 
BRANCH   8   9
ATOM      9  N   UNL     1      47.624   6.370  15.554  0.00  0.00    +0.000 N 
ATOM     10  C   UNL     1      48.001   6.446  14.240  0.00  0.00    +0.000 C 
ATOM     11  O   UNL     1      49.163   6.574  13.870  0.00  0.00    +0.000 OA
ATOM     12  H   UNL     1      46.659   6.586  15.777  0.00  0.00    +0.000 HD
BRANCH  10  13
ATOM     13  C   UNL     1      46.908   6.288  13.275  0.00  0.00    +0.000 A 
ATOM     14  C   UNL     1      46.363   7.384  12.628  0.00  0.00    +0.000 A 
ATOM     15  S   UNL     1      45.130   6.973  11.520  0.00  0.00    +0.000 S 
ATOM     16  C   UNL     1      45.267   5.321  11.897  0.00  0.00    +0.000 A 
ATOM     17  N   UNL     1      44.471   4.395  11.300  0.00  0.00    +0.000 NA
ATOM     18  C   UNL     1      44.677   3.176  11.702  0.00  0.00    +0.000 A 
ATOM     19  N   UNL     1      45.606   2.809  12.633  0.00  0.00    +0.000 N 
ATOM     20  C   UNL     1      46.440   3.701  13.247  0.00  0.00    +0.000 A 
ATOM     21  O   UNL     1      47.291   3.320  14.048  0.00  0.00    +0.000 OA
ATOM     22  C   UNL     1      46.245   5.085  12.841  0.00  0.00    +0.000 A 
ATOM     23  H   UNL     1      45.734   1.841  12.892  0.00  0.00    +0.000 HD
ENDBRANCH  10  13
ENDBRANCH   8   9
ENDBRANCH   1   8
BRANCH   4  24
ATOM     24  C   UNL     1      51.026   1.266  17.634  0.00  0.00    +0.000 C 
BRANCH  24  25
ATOM     25  N   UNL     1      52.287   1.376  18.326  0.00  0.00    +0.000 N 
ATOM     26  C   UNL     1      53.426   0.858  17.743  0.00  0.00    +0.000 C 
ATOM     27  O   UNL     1      53.382   0.247  16.678  0.00  0.00    +0.000 OA
ATOM     28  H   UNL     1      52.351   1.937  19.163  0.00  0.00    +0.000 HD
BRANCH  26  29
ATOM     29  C   UNL     1      54.733   1.076  18.548  0.00  0.00    +0.000 C 
ATOM     30  C   UNL     1      55.775   1.868  17.746  0.00  0.00    +0.000 C 
ATOM     31  C   UNL     1      55.355   3.325  17.544  0.00  0.00    +0.000 C 
ATOM     32  C   UNL     1      54.968   3.971  18.869  0.00  0.00    +0.000 C 
ATOM     33  C   UNL     1      53.993   3.111  19.671  0.00  0.00    +0.000 C 
ATOM     34  N   UNL     1      54.486   1.745  19.848  0.00  0.00    +0.000 NA
ATOM     35  H   UNL     1      53.835   1.210  20.414  0.00  0.00    +0.000 HD
ENDBRANCH  26  29
ENDBRANCH  24  25
ENDBRANCH   4  24
TORSDOF 6
ENDMDL
MODEL 8
REMARK VINA RESULT:    -6.402      1.679      2.277
REMARK INTER + INTRA:          -9.659
REMARK INTER:                  -8.645
REMARK INTRA:                  -1.014
REMARK UNBOUND:                -1.012
REMARK  Name = 
REMARK  7 active torsions:
REMARK  status: ('A' for Active; 'I' for Inactive)
REMARK    1  A    between atoms: C_1  and  C_2
REMARK    2  A    between atoms: C_2  and  N_3
REMARK    3  A    between atoms: C_2  and  C_16
REMARK    4  A    between atoms: C_4  and  C_6
REMARK    5  A    between atoms: C_19  and  C_20
REMARK    6  A    between atoms: C_20  and  N_21
REMARK    7  A    between atoms: C_22  and  C_24
REMARK                            x       y       z     vdW  Elec       q    Type
REMARK                         _______ _______ _______ _____ _____    ______ ____
ROOT
ATOM      1  C   UNL     1      48.070   5.221  15.872  0.00  0.00    +0.000 A 
ATOM      2  C   UNL     1      48.611   6.394  15.331  0.00  0.00    +0.000 A 
ATOM      3  C   UNL     1      48.284   6.800  14.030  0.00  0.00    +0.000 A 
ATOM      4  C   UNL     1      47.410   6.041  13.241  0.00  0.00    +0.000 A 
ATOM      5  C   UNL     1      46.886   4.855  13.769  0.00  0.00    +0.000 A 
ATOM      6  C   UNL     1      47.199   4.460  15.072  0.00  0.00    +0.000 A 
ENDROOT
BRANCH   1   8
ATOM      7  C   UNL     1      47.661   3.514  17.665  0.00  0.00    +0.000 C 
ATOM      8  C   UNL     1      48.445   4.767  17.280  0.00  0.00    +0.000 C 
BRANCH   8   9
ATOM      9  N   UNL     1      49.875   4.535  17.334  0.00  0.00    +0.000 N 
ATOM     10  C   UNL     1      50.658   4.789  18.428  0.00  0.00    +0.000 C 
ATOM     11  O   UNL     1      50.222   5.197  19.498  0.00  0.00    +0.000 OA
ATOM     12  H   UNL     1      50.329   4.516  16.427  0.00  0.00    +0.000 HD
BRANCH  10  13
ATOM     13  C   UNL     1      52.077   4.465  18.258  0.00  0.00    +0.000 A 
ATOM     14  C   UNL     1      52.671   3.451  18.992  0.00  0.00    +0.000 A 
ATOM     15  S   UNL     1      54.319   3.215  18.611  0.00  0.00    +0.000 S 
ATOM     16  C   UNL     1      54.295   4.483  17.479  0.00  0.00    +0.000 A 
ATOM     17  N   UNL     1      55.413   4.828  16.786  0.00  0.00    +0.000 NA
ATOM     18  C   UNL     1      55.248   5.827  15.971  0.00  0.00    +0.000 A 
ATOM     19  N   UNL     1      54.071   6.496  15.786  0.00  0.00    +0.000 N 
ATOM     20  C   UNL     1      52.918   6.174  16.447  0.00  0.00    +0.000 A 
ATOM     21  O   UNL     1      51.871   6.776  16.217  0.00  0.00    +0.000 OA
ATOM     22  C   UNL     1      53.049   5.067  17.382  0.00  0.00    +0.000 A 
ATOM     23  H   UNL     1      53.998   7.254  15.123  0.00  0.00    +0.000 HD
ENDBRANCH  10  13
ENDBRANCH   8   9
ENDBRANCH   1   8
BRANCH   4  24
ATOM     24  C   UNL     1      47.017   6.498  11.863  0.00  0.00    +0.000 C 
BRANCH  24  25
ATOM     25  N   UNL     1      45.882   5.780  11.335  0.00  0.00    +0.000 N 
ATOM     26  C   UNL     1      44.621   6.328  11.455  0.00  0.00    +0.000 C 
ATOM     27  O   UNL     1      44.432   7.382  12.058  0.00  0.00    +0.000 OA
ATOM     28  H   UNL     1      46.030   4.954  10.776  0.00  0.00    +0.000 HD
BRANCH  26  29
ATOM     29  C   UNL     1      43.481   5.499  10.809  0.00  0.00    +0.000 C 
ATOM     30  C   UNL     1      44.018   4.266  10.068  0.00  0.00    +0.000 C 
ATOM     31  C   UNL     1      44.580   3.219  11.031  0.00  0.00    +0.000 C 
ATOM     32  C   UNL     1      43.576   2.894  12.132  0.00  0.00    +0.000 C 
ATOM     33  C   UNL     1      43.006   4.151  12.786  0.00  0.00    +0.000 C 
ATOM     34  N   UNL     1      42.460   5.083  11.800  0.00  0.00    +0.000 NA
ATOM     35  H   UNL     1      42.058   5.889  12.267  0.00  0.00    +0.000 HD
ENDBRANCH  26  29
ENDBRANCH  24  25
ENDBRANCH   4  24
TORSDOF 6
ENDMDL
MODEL 9
REMARK VINA RESULT:    -6.281      3.731      8.941
REMARK INTER + INTRA:          -9.496
REMARK INTER:                  -8.541
REMARK INTRA:                  -0.955
REMARK UNBOUND:                -1.012
REMARK  Name = 
REMARK  7 active torsions:
REMARK  status: ('A' for Active; 'I' for Inactive)
REMARK    1  A    between atoms: C_1  and  C_2
REMARK    2  A    between atoms: C_2  and  N_3
REMARK    3  A    between atoms: C_2  and  C_16
REMARK    4  A    between atoms: C_4  and  C_6
REMARK    5  A    between atoms: C_19  and  C_20
REMARK    6  A    between atoms: C_20  and  N_21
REMARK    7  A    between atoms: C_22  and  C_24
REMARK                            x       y       z     vdW  Elec       q    Type
REMARK                         _______ _______ _______ _____ _____    ______ ____
ROOT
ATOM      1  C   UNL     1      49.027   3.883  16.864  0.00  0.00    +0.000 A 
ATOM      2  C   UNL     1      49.278   5.261  16.867  0.00  0.00    +0.000 A 
ATOM      3  C   UNL     1      50.525   5.761  17.262  0.00  0.00    +0.000 A 
ATOM      4  C   UNL     1      51.550   4.894  17.666  0.00  0.00    +0.000 A 
ATOM      5  C   UNL     1      51.295   3.518  17.688  0.00  0.00    +0.000 A 
ATOM      6  C   UNL     1      50.057   3.019  17.277  0.00  0.00    +0.000 A 
ENDROOT
BRANCH   1   8
ATOM      7  C   UNL     1      46.791   3.096  17.689  0.00  0.00    +0.000 C 
ATOM      8  C   UNL     1      47.660   3.340  16.456  0.00  0.00    +0.000 C 
BRANCH   8   9
ATOM      9  N   UNL     1      47.035   4.278  15.545  0.00  0.00    +0.000 N 
ATOM     10  C   UNL     1      46.807   4.029  14.218  0.00  0.00    +0.000 C 
ATOM     11  O   UNL     1      47.066   2.964  13.669  0.00  0.00    +0.000 OA
ATOM     12  H   UNL     1      47.097   5.247  15.835  0.00  0.00    +0.000 HD
BRANCH  10  13
ATOM     13  C   UNL     1      46.149   5.120  13.491  0.00  0.00    +0.000 A 
ATOM     14  C   UNL     1      46.740   6.369  13.391  0.00  0.00    +0.000 A 
ATOM     15  S   UNL     1      45.825   7.479  12.471  0.00  0.00    +0.000 S 
ATOM     16  C   UNL     1      44.598   6.332  12.207  0.00  0.00    +0.000 A 
ATOM     17  N   UNL     1      43.487   6.643  11.488  0.00  0.00    +0.000 NA
ATOM     18  C   UNL     1      42.628   5.673  11.386  0.00  0.00    +0.000 A 
ATOM     19  N   UNL     1      42.789   4.430  11.929  0.00  0.00    +0.000 N 
ATOM     20  C   UNL     1      43.896   4.065  12.644  0.00  0.00    +0.000 A 
ATOM     21  O   UNL     1      44.017   2.922  13.078  0.00  0.00    +0.000 OA
ATOM     22  C   UNL     1      44.887   5.120  12.798  0.00  0.00    +0.000 A 
ATOM     23  H   UNL     1      42.095   3.708  11.800  0.00  0.00    +0.000 HD
ENDBRANCH  10  13
ENDBRANCH   8   9
ENDBRANCH   1   8
BRANCH   4  24
ATOM     24  C   UNL     1      52.906   5.423  18.043  0.00  0.00    +0.000 C 
BRANCH  24  25
ATOM     25  N   UNL     1      53.131   6.772  17.583  0.00  0.00    +0.000 N 
ATOM     26  C   UNL     1      53.865   6.981  16.433  0.00  0.00    +0.000 C 
ATOM     27  O   UNL     1      54.387   6.049  15.826  0.00  0.00    +0.000 OA
ATOM     28  H   UNL     1      52.648   7.539  18.028  0.00  0.00    +0.000 HD
BRANCH  26  29
ATOM     29  C   UNL     1      54.001   8.464  16.001  0.00  0.00    +0.000 C 
ATOM     30  C   UNL     1      54.601   8.598  14.594  0.00  0.00    +0.000 C 
ATOM     31  C   UNL     1      53.639   8.106  13.512  0.00  0.00    +0.000 C 
ATOM     32  C   UNL     1      52.266   8.751  13.667  0.00  0.00    +0.000 C 
ATOM     33  C   UNL     1      51.743   8.666  15.100  0.00  0.00    +0.000 C 
ATOM     34  N   UNL     1      52.710   9.188  16.067  0.00  0.00    +0.000 NA
ATOM     35  H   UNL     1      52.320   9.151  17.003  0.00  0.00    +0.000 HD
ENDBRANCH  26  29
ENDBRANCH  24  25
ENDBRANCH   4  24
TORSDOF 6
ENDMDL
