MODEL 1
REMARK VINA RESULT:    -8.230      0.000      0.000
REMARK INTER + INTRA:         -11.756
REMARK INTER:                 -11.116
REMARK INTRA:                  -0.640
REMARK UNBOUND:                -0.640
REMARK  Name = 
REMARK  6 active torsions:
REMARK  status: ('A' for Active; 'I' for Inactive)
REMARK    1  A    between atoms: C_2  and  C_18
REMARK    2  A    between atoms: N_3  and  C_4
REMARK    3  A    between atoms: C_4  and  C_5
REMARK    4  A    between atoms: C_8  and  C_9
REMARK    5  A    between atoms: C_9  and  N_10
REMARK    6  A    between atoms: N_10  and  C_11
REMARK                            x       y       z     vdW  Elec       q    Type
REMARK                         _______ _______ _______ _____ _____    ______ ____
ROOT
ATOM      1  C   UNL     1      46.642   7.274  12.989  0.00  0.00    +0.000 C 
ENDROOT
BRANCH   1   2
ATOM      2  C   UNL     1      46.042   6.108  12.246  0.00  0.00    +0.000 A 
ATOM      3  C   UNL     1      45.761   4.906  12.908  0.00  0.00    +0.000 A 
ATOM      4  C   UNL     1      45.147   3.845  12.233  0.00  0.00    +0.000 A 
ATOM      5  C   UNL     1      44.812   3.959  10.877  0.00  0.00    +0.000 A 
ATOM      6  C   UNL     1      45.131   5.150  10.209  0.00  0.00    +0.000 A 
ATOM      7  C   UNL     1      45.747   6.209  10.881  0.00  0.00    +0.000 A 
BRANCH   5   8
ATOM      8  C   UNL     1      44.175   2.815  10.118  0.00  0.00    +0.000 C 
BRANCH   8   9
ATOM      9  N   UNL     1      44.433   2.870   8.683  0.00  0.00    +0.000 NA
ATOM     10  H   UNL     1      44.216   3.798   8.330  0.00  0.00    +0.000 HD
BRANCH   9  11
ATOM     11  C   UNL     1      45.808   2.585   8.360  0.00  0.00    +0.000 C 
ATOM     12  C   UNL     1      46.296   2.988   6.974  0.00  0.00    +0.000 C 
ATOM     13  C   UNL     1      47.479   2.060   6.766  0.00  0.00    +0.000 C 
ATOM     14  C   UNL     1      47.100   0.802   7.537  0.00  0.00    +0.000 C 
ATOM     15  N   UNL     1      45.902   1.141   8.306  0.00  0.00    +0.000 NA
ATOM     16  H   UNL     1      45.947   0.771   9.252  0.00  0.00    +0.000 HD
ENDBRANCH   9  11
ENDBRANCH   8   9
ENDBRANCH   5   8
ENDBRANCH   1   2
BRANCH   1  19
ATOM     17  O   UNL     1      49.317   6.635  13.588  0.00  0.00    +0.000 OA
ATOM     18  C   UNL     1      48.486   6.635  14.492  0.00  0.00    +0.000 C 
ATOM     19  N   UNL     1      47.157   6.889  14.276  0.00  0.00    +0.000 N 
ATOM     20  H   UNL     1      46.539   7.031  15.066  0.00  0.00    +0.000 HD
BRANCH  18  21
ATOM     21  C   UNL     1      48.862   6.311  15.872  0.00  0.00    +0.000 A 
ATOM     22  C   UNL     1      49.597   7.218  16.623  0.00  0.00    +0.000 A 
ATOM     23  S   UNL     1      49.894   6.697  18.219  0.00  0.00    +0.000 S 
ATOM     24  C   UNL     1      49.030   5.253  17.968  0.00  0.00    +0.000 A 
ATOM     25  N   UNL     1      48.852   4.354  18.974  0.00  0.00    +0.000 NA
ATOM     26  C   UNL     1      48.146   3.325  18.652  0.00  0.00    +0.000 A 
ATOM     27  N   UNL     1      47.614   3.102  17.407  0.00  0.00    +0.000 N 
ATOM     28  C   UNL     1      47.847   3.931  16.341  0.00  0.00    +0.000 A 
ATOM     29  O   UNL     1      47.511   3.608  15.204  0.00  0.00    +0.000 OA
ATOM     30  C   UNL     1      48.567   5.147  16.669  0.00  0.00    +0.000 A 
ATOM     31  H   UNL     1      47.116   2.249  17.204  0.00  0.00    +0.000 HD
ENDBRANCH  18  21
ENDBRANCH   1  19
TORSDOF 6
ENDMDL
MODEL 2
REMARK VINA RESULT:    -8.044      1.536      2.028
REMARK INTER + INTRA:         -11.505
REMARK INTER:                 -10.670
REMARK INTRA:                  -0.835
REMARK UNBOUND:                -0.640
REMARK  Name = 
REMARK  6 active torsions:
REMARK  status: ('A' for Active; 'I' for Inactive)
REMARK    1  A    between atoms: C_2  and  C_18
REMARK    2  A    between atoms: N_3  and  C_4
REMARK    3  A    between atoms: C_4  and  C_5
REMARK    4  A    between atoms: C_8  and  C_9
REMARK    5  A    between atoms: C_9  and  N_10
REMARK    6  A    between atoms: N_10  and  C_11
REMARK                            x       y       z     vdW  Elec       q    Type
REMARK                         _______ _______ _______ _____ _____    ______ ____
ROOT
ATOM      1  C   UNL     1      48.249   6.935  13.364  0.00  0.00    +0.000 C 
ENDROOT
BRANCH   1   2
ATOM      2  C   UNL     1      47.147   6.212  12.634  0.00  0.00    +0.000 A 
ATOM      3  C   UNL     1      46.710   6.654  11.379  0.00  0.00    +0.000 A 
ATOM      4  C   UNL     1      45.730   5.947  10.673  0.00  0.00    +0.000 A 
ATOM      5  C   UNL     1      45.156   4.788  11.214  0.00  0.00    +0.000 A 
ATOM      6  C   UNL     1      45.569   4.371  12.488  0.00  0.00    +0.000 A 
ATOM      7  C   UNL     1      46.545   5.079  13.194  0.00  0.00    +0.000 A 
BRANCH   5   8
ATOM      8  C   UNL     1      44.074   4.023  10.483  0.00  0.00    +0.000 C 
BRANCH   8   9
ATOM      9  N   UNL     1      44.008   4.348   9.062  0.00  0.00    +0.000 NA
ATOM     10  H   UNL     1      44.461   5.242   8.892  0.00  0.00    +0.000 HD
BRANCH   9  11
ATOM     11  C   UNL     1      44.661   3.360   8.240  0.00  0.00    +0.000 C 
ATOM     12  C   UNL     1      45.316   2.184   8.954  0.00  0.00    +0.000 C 
ATOM     13  C   UNL     1      46.349   1.727   7.941  0.00  0.00    +0.000 C 
ATOM     14  C   UNL     1      46.749   3.007   7.219  0.00  0.00    +0.000 C 
ATOM     15  N   UNL     1      45.803   4.034   7.658  0.00  0.00    +0.000 NA
ATOM     16  H   UNL     1      45.492   4.614   6.883  0.00  0.00    +0.000 HD
ENDBRANCH   9  11
ENDBRANCH   8   9
ENDBRANCH   5   8
ENDBRANCH   1   2
BRANCH   1  19
ATOM     17  O   UNL     1      50.301   6.751  15.282  0.00  0.00    +0.000 OA
ATOM     18  C   UNL     1      49.136   6.837  15.660  0.00  0.00    +0.000 C 
ATOM     19  N   UNL     1      48.077   6.885  14.791  0.00  0.00    +0.000 N 
ATOM     20  H   UNL     1      47.153   7.112  15.140  0.00  0.00    +0.000 HD
BRANCH  18  21
ATOM     21  C   UNL     1      48.798   6.849  17.086  0.00  0.00    +0.000 A 
ATOM     22  C   UNL     1      48.283   8.000  17.669  0.00  0.00    +0.000 A 
ATOM     23  S   UNL     1      47.898   7.812  19.320  0.00  0.00    +0.000 S 
ATOM     24  C   UNL     1      48.382   6.181  19.304  0.00  0.00    +0.000 A 
ATOM     25  N   UNL     1      48.262   5.400  20.413  0.00  0.00    +0.000 NA
ATOM     26  C   UNL     1      48.631   4.177  20.247  0.00  0.00    +0.000 A 
ATOM     27  N   UNL     1      49.128   3.664  19.075  0.00  0.00    +0.000 N 
ATOM     28  C   UNL     1      49.355   4.434  17.965  0.00  0.00    +0.000 A 
ATOM     29  O   UNL     1      49.968   3.986  16.999  0.00  0.00    +0.000 OA
ATOM     30  C   UNL     1      48.880   5.800  18.072  0.00  0.00    +0.000 A 
ATOM     31  H   UNL     1      49.451   2.710  19.026  0.00  0.00    +0.000 HD
ENDBRANCH  18  21
ENDBRANCH   1  19
TORSDOF 6
ENDMDL
MODEL 3
REMARK VINA RESULT:    -7.844      2.079      3.669
REMARK INTER + INTRA:         -11.235
REMARK INTER:                 -10.192
REMARK INTRA:                  -1.043
REMARK UNBOUND:                -0.640
REMARK  Name = 
REMARK  6 active torsions:
REMARK  status: ('A' for Active; 'I' for Inactive)
REMARK    1  A    between atoms: C_2  and  C_18
REMARK    2  A    between atoms: N_3  and  C_4
REMARK    3  A    between atoms: C_4  and  C_5
REMARK    4  A    between atoms: C_8  and  C_9
REMARK    5  A    between atoms: C_9  and  N_10
REMARK    6  A    between atoms: N_10  and  C_11
REMARK                            x       y       z     vdW  Elec       q    Type
REMARK                         _______ _______ _______ _____ _____    ______ ____
ROOT
ATOM      1  C   UNL     1      46.379   4.690  14.456  0.00  0.00    +0.000 C 
ENDROOT
BRANCH   1   2
ATOM      2  C   UNL     1      45.882   4.578  13.038  0.00  0.00    +0.000 A 
ATOM      3  C   UNL     1      45.939   5.677  12.171  0.00  0.00    +0.000 A 
ATOM      4  C   UNL     1      45.535   5.557  10.837  0.00  0.00    +0.000 A 
ATOM      5  C   UNL     1      45.053   4.336  10.343  0.00  0.00    +0.000 A 
ATOM      6  C   UNL     1      44.961   3.250  11.225  0.00  0.00    +0.000 A 
ATOM      7  C   UNL     1      45.361   3.370  12.559  0.00  0.00    +0.000 A 
BRANCH   5   8
ATOM      8  C   UNL     1      44.582   4.190   8.912  0.00  0.00    +0.000 C 
BRANCH   8   9
ATOM      9  N   UNL     1      45.631   4.472   7.937  0.00  0.00    +0.000 NA
ATOM     10  H   UNL     1      46.441   4.866   8.408  0.00  0.00    +0.000 HD
BRANCH   9  11
ATOM     11  C   UNL     1      46.060   3.291   7.233  0.00  0.00    +0.000 C 
ATOM     12  C   UNL     1      46.161   2.000   8.036  0.00  0.00    +0.000 C 
ATOM     13  C   UNL     1      47.151   1.189   7.220  0.00  0.00    +0.000 C 
ATOM     14  C   UNL     1      48.065   2.238   6.601  0.00  0.00    +0.000 C 
ATOM     15  N   UNL     1      47.443   3.534   6.877  0.00  0.00    +0.000 NA
ATOM     16  H   UNL     1      47.479   4.147   6.066  0.00  0.00    +0.000 HD
ENDBRANCH   9  11
ENDBRANCH   8   9
ENDBRANCH   5   8
ENDBRANCH   1   2
BRANCH   1  19
ATOM     17  O   UNL     1      48.521   4.888  16.271  0.00  0.00    +0.000 OA
ATOM     18  C   UNL     1      48.283   5.831  15.522  0.00  0.00    +0.000 C 
ATOM     19  N   UNL     1      47.232   5.832  14.643  0.00  0.00    +0.000 N 
ATOM     20  H   UNL     1      47.167   6.560  13.941  0.00  0.00    +0.000 HD
BRANCH  18  21
ATOM     21  C   UNL     1      49.094   7.052  15.556  0.00  0.00    +0.000 A 
ATOM     22  C   UNL     1      49.268   7.739  16.749  0.00  0.00    +0.000 A 
ATOM     23  S   UNL     1      50.284   9.101  16.609  0.00  0.00    +0.000 S 
ATOM     24  C   UNL     1      50.547   8.804  14.954  0.00  0.00    +0.000 A 
ATOM     25  N   UNL     1      51.382   9.590  14.222  0.00  0.00    +0.000 NA
ATOM     26  C   UNL     1      51.516   9.226  12.993  0.00  0.00    +0.000 A 
ATOM     27  N   UNL     1      50.874   8.156  12.421  0.00  0.00    +0.000 N 
ATOM     28  C   UNL     1      49.953   7.397  13.094  0.00  0.00    +0.000 A 
ATOM     29  O   UNL     1      49.265   6.568  12.504  0.00  0.00    +0.000 OA
ATOM     30  C   UNL     1      49.827   7.713  14.504  0.00  0.00    +0.000 A 
ATOM     31  H   UNL     1      50.979   7.957  11.438  0.00  0.00    +0.000 HD
ENDBRANCH  18  21
ENDBRANCH   1  19
TORSDOF 6
ENDMDL
MODEL 4
REMARK VINA RESULT:    -7.723      2.455      3.345
REMARK INTER + INTRA:         -11.072
REMARK INTER:                 -10.013
REMARK INTRA:                  -1.059
REMARK UNBOUND:                -0.640
REMARK  Name = 
REMARK  6 active torsions:
REMARK  status: ('A' for Active; 'I' for Inactive)
REMARK    1  A    between atoms: C_2  and  C_18
REMARK    2  A    between atoms: N_3  and  C_4
REMARK    3  A    between atoms: C_4  and  C_5
REMARK    4  A    between atoms: C_8  and  C_9
REMARK    5  A    between atoms: C_9  and  N_10
REMARK    6  A    between atoms: N_10  and  C_11
REMARK                            x       y       z     vdW  Elec       q    Type
REMARK                         _______ _______ _______ _____ _____    ______ ____
ROOT
ATOM      1  C   UNL     1      48.405   6.753  14.083  0.00  0.00    +0.000 C 
ENDROOT
BRANCH   1   2
ATOM      2  C   UNL     1      47.329   6.085  13.267  0.00  0.00    +0.000 A 
ATOM      3  C   UNL     1      46.893   6.648  12.060  0.00  0.00    +0.000 A 
ATOM      4  C   UNL     1      45.938   5.997  11.271  0.00  0.00    +0.000 A 
ATOM      5  C   UNL     1      45.387   4.774  11.679  0.00  0.00    +0.000 A 
ATOM      6  C   UNL     1      45.798   4.234  12.907  0.00  0.00    +0.000 A 
ATOM      7  C   UNL     1      46.749   4.886  13.697  0.00  0.00    +0.000 A 
BRANCH   5   8
ATOM      8  C   UNL     1      44.331   4.066  10.858  0.00  0.00    +0.000 C 
BRANCH   8   9
ATOM      9  N   UNL     1      44.141   4.662   9.540  0.00  0.00    +0.000 NA
ATOM     10  H   UNL     1      44.592   5.573   9.506  0.00  0.00    +0.000 HD
BRANCH   9  11
ATOM     11  C   UNL     1      44.697   3.854   8.485  0.00  0.00    +0.000 C 
ATOM     12  C   UNL     1      45.299   2.512   8.880  0.00  0.00    +0.000 C 
ATOM     13  C   UNL     1      46.263   2.242   7.739  0.00  0.00    +0.000 C 
ATOM     14  C   UNL     1      46.719   3.629   7.306  0.00  0.00    +0.000 C 
ATOM     15  N   UNL     1      45.860   4.579   8.013  0.00  0.00    +0.000 NA
ATOM     16  H   UNL     1      45.559   5.337   7.406  0.00  0.00    +0.000 HD
ENDBRANCH   9  11
ENDBRANCH   8   9
ENDBRANCH   5   8
ENDBRANCH   1   2
BRANCH   1  19
ATOM     17  O   UNL     1      50.154   5.943  16.134  0.00  0.00    +0.000 OA
ATOM     18  C   UNL     1      49.037   6.358  16.431  0.00  0.00    +0.000 C 
ATOM     19  N   UNL     1      48.111   6.728  15.490  0.00  0.00    +0.000 N 
ATOM     20  H   UNL     1      47.267   7.208  15.781  0.00  0.00    +0.000 HD
BRANCH  18  21
ATOM     21  C   UNL     1      48.603   6.442  17.828  0.00  0.00    +0.000 A 
ATOM     22  C   UNL     1      48.668   5.321  18.645  0.00  0.00    +0.000 A 
ATOM     23  S   UNL     1      48.174   5.618  20.250  0.00  0.00    +0.000 S 
ATOM     24  C   UNL     1      47.881   7.260  19.914  0.00  0.00    +0.000 A 
ATOM     25  N   UNL     1      47.475   8.117  20.890  0.00  0.00    +0.000 NA
ATOM     26  C   UNL     1      47.328   9.337  20.502  0.00  0.00    +0.000 A 
ATOM     27  N   UNL     1      47.531   9.778  19.219  0.00  0.00    +0.000 N 
ATOM     28  C   UNL     1      47.847   8.935  18.185  0.00  0.00    +0.000 A 
ATOM     29  O   UNL     1      47.841   9.331  17.022  0.00  0.00    +0.000 OA
ATOM     30  C   UNL     1      48.105   7.564  18.584  0.00  0.00    +0.000 A 
ATOM     31  H   UNL     1      47.346  10.737  18.967  0.00  0.00    +0.000 HD
ENDBRANCH  18  21
ENDBRANCH   1  19
TORSDOF 6
ENDMDL
MODEL 5
REMARK VINA RESULT:    -7.718      4.060      8.702
REMARK INTER + INTRA:         -11.065
REMARK INTER:                 -10.125
REMARK INTRA:                  -0.940
REMARK UNBOUND:                -0.640
REMARK  Name = 
REMARK  6 active torsions:
REMARK  status: ('A' for Active; 'I' for Inactive)
REMARK    1  A    between atoms: C_2  and  C_18
REMARK    2  A    between atoms: N_3  and  C_4
REMARK    3  A    between atoms: C_4  and  C_5
REMARK    4  A    between atoms: C_8  and  C_9
REMARK    5  A    between atoms: C_9  and  N_10
REMARK    6  A    between atoms: N_10  and  C_11
REMARK                            x       y       z     vdW  Elec       q    Type
REMARK                         _______ _______ _______ _____ _____    ______ ____
ROOT
ATOM      1  C   UNL     1      47.204   3.326  16.802  0.00  0.00    +0.000 C 
ENDROOT
BRANCH   1   2
ATOM      2  C   UNL     1      48.682   3.344  17.091  0.00  0.00    +0.000 A 
ATOM      3  C   UNL     1      49.314   4.518  17.522  0.00  0.00    +0.000 A 
ATOM      4  C   UNL     1      50.674   4.520  17.850  0.00  0.00    +0.000 A 
ATOM      5  C   UNL     1      51.437   3.348  17.742  0.00  0.00    +0.000 A 
ATOM      6  C   UNL     1      50.809   2.185  17.273  0.00  0.00    +0.000 A 
ATOM      7  C   UNL     1      49.452   2.184  16.941  0.00  0.00    +0.000 A 
BRANCH   5   8
ATOM      8  C   UNL     1      52.916   3.332  18.062  0.00  0.00    +0.000 C 
BRANCH   8   9
ATOM      9  N   UNL     1      53.273   2.317  19.048  0.00  0.00    +0.000 NA
ATOM     10  H   UNL     1      52.448   1.779  19.302  0.00  0.00    +0.000 HD
BRANCH   9  11
ATOM     11  C   UNL     1      54.267   1.397  18.556  0.00  0.00    +0.000 C 
ATOM     12  C   UNL     1      54.582   1.445  17.067  0.00  0.00    +0.000 C 
ATOM     13  C   UNL     1      55.141   0.057  16.810  0.00  0.00    +0.000 C 
ATOM     14  C   UNL     1      54.403  -0.827  17.807  0.00  0.00    +0.000 C 
ATOM     15  N   UNL     1      53.680   0.080  18.699  0.00  0.00    +0.000 NA
ATOM     16  H   UNL     1      53.747  -0.215  19.669  0.00  0.00    +0.000 HD
ENDBRANCH   9  11
ENDBRANCH   8   9
ENDBRANCH   5   8
ENDBRANCH   1   2
BRANCH   1  19
ATOM     17  O   UNL     1      47.241   3.072  13.999  0.00  0.00    +0.000 OA
ATOM     18  C   UNL     1      46.833   4.117  14.498  0.00  0.00    +0.000 C 
ATOM     19  N   UNL     1      46.826   4.337  15.851  0.00  0.00    +0.000 N 
ATOM     20  H   UNL     1      46.341   5.145  16.224  0.00  0.00    +0.000 HD
BRANCH  18  21
ATOM     21  C   UNL     1      46.365   5.228  13.664  0.00  0.00    +0.000 A 
ATOM     22  C   UNL     1      47.187   6.324  13.441  0.00  0.00    +0.000 A 
ATOM     23  S   UNL     1      46.499   7.491  12.404  0.00  0.00    +0.000 S 
ATOM     24  C   UNL     1      45.091   6.558  12.198  0.00  0.00    +0.000 A 
ATOM     25  N   UNL     1      44.091   6.966  11.371  0.00  0.00    +0.000 NA
ATOM     26  C   UNL     1      43.103   6.144  11.281  0.00  0.00    +0.000 A 
ATOM     27  N   UNL     1      43.013   4.955  11.960  0.00  0.00    +0.000 N 
ATOM     28  C   UNL     1      43.950   4.550  12.875  0.00  0.00    +0.000 A 
ATOM     29  O   UNL     1      43.750   3.575  13.596  0.00  0.00    +0.000 OA
ATOM     30  C   UNL     1      45.123   5.399  12.952  0.00  0.00    +0.000 A 
ATOM     31  H   UNL     1      42.187   4.381  11.889  0.00  0.00    +0.000 HD
ENDBRANCH  18  21
ENDBRANCH   1  19
TORSDOF 6
ENDMDL
MODEL 6
REMARK VINA RESULT:    -7.354      2.340      3.405
REMARK INTER + INTRA:         -10.573
REMARK INTER:                  -9.885
REMARK INTRA:                  -0.687
REMARK UNBOUND:                -0.640
REMARK  Name = 
REMARK  6 active torsions:
REMARK  status: ('A' for Active; 'I' for Inactive)
REMARK    1  A    between atoms: C_2  and  C_18
REMARK    2  A    between atoms: N_3  and  C_4
REMARK    3  A    between atoms: C_4  and  C_5
REMARK    4  A    between atoms: C_8  and  C_9
REMARK    5  A    between atoms: C_9  and  N_10
REMARK    6  A    between atoms: N_10  and  C_11
REMARK                            x       y       z     vdW  Elec       q    Type
REMARK                         _______ _______ _______ _____ _____    ______ ____
ROOT
ATOM      1  C   UNL     1      46.183   4.895  14.228  0.00  0.00    +0.000 C 
ENDROOT
BRANCH   1   2
ATOM      2  C   UNL     1      45.733   4.715  12.801  0.00  0.00    +0.000 A 
ATOM      3  C   UNL     1      45.833   5.767  11.882  0.00  0.00    +0.000 A 
ATOM      4  C   UNL     1      45.472   5.583  10.542  0.00  0.00    +0.000 A 
ATOM      5  C   UNL     1      44.992   4.343  10.095  0.00  0.00    +0.000 A 
ATOM      6  C   UNL     1      44.857   3.305  11.028  0.00  0.00    +0.000 A 
ATOM      7  C   UNL     1      45.213   3.490  12.367  0.00  0.00    +0.000 A 
BRANCH   5   8
ATOM      8  C   UNL     1      44.568   4.127   8.658  0.00  0.00    +0.000 C 
BRANCH   8   9
ATOM      9  N   UNL     1      45.651   4.353   7.706  0.00  0.00    +0.000 NA
ATOM     10  H   UNL     1      46.441   4.784   8.180  0.00  0.00    +0.000 HD
BRANCH   9  11
ATOM     11  C   UNL     1      46.113   3.131   7.099  0.00  0.00    +0.000 C 
ATOM     12  C   UNL     1      46.220   1.905   7.996  0.00  0.00    +0.000 C 
ATOM     13  C   UNL     1      47.238   1.053   7.260  0.00  0.00    +0.000 C 
ATOM     14  C   UNL     1      48.147   2.070   6.582  0.00  0.00    +0.000 C 
ATOM     15  N   UNL     1      47.499   3.371   6.750  0.00  0.00    +0.000 NA
ATOM     16  H   UNL     1      47.540   3.925   5.898  0.00  0.00    +0.000 HD
ENDBRANCH   9  11
ENDBRANCH   8   9
ENDBRANCH   5   8
ENDBRANCH   1   2
BRANCH   1  19
ATOM     17  O   UNL     1      48.428   4.970  15.923  0.00  0.00    +0.000 OA
ATOM     18  C   UNL     1      48.199   5.930  15.192  0.00  0.00    +0.000 C 
ATOM     19  N   UNL     1      47.103   5.990  14.372  0.00  0.00    +0.000 N 
ATOM     20  H   UNL     1      47.038   6.726  13.677  0.00  0.00    +0.000 HD
BRANCH  18  21
ATOM     21  C   UNL     1      49.073   7.107  15.185  0.00  0.00    +0.000 A 
ATOM     22  C   UNL     1      49.814   7.416  14.053  0.00  0.00    +0.000 A 
ATOM     23  S   UNL     1      50.728   8.847  14.208  0.00  0.00    +0.000 S 
ATOM     24  C   UNL     1      50.146   9.114  15.784  0.00  0.00    +0.000 A 
ATOM     25  N   UNL     1      50.504  10.222  16.489  0.00  0.00    +0.000 NA
ATOM     26  C   UNL     1      49.959  10.314  17.653  0.00  0.00    +0.000 A 
ATOM     27  N   UNL     1      49.099   9.388  18.187  0.00  0.00    +0.000 N 
ATOM     28  C   UNL     1      48.785   8.214  17.553  0.00  0.00    +0.000 A 
ATOM     29  O   UNL     1      48.162   7.328  18.135  0.00  0.00    +0.000 OA
ATOM     30  C   UNL     1      49.308   8.099  16.205  0.00  0.00    +0.000 A 
ATOM     31  H   UNL     1      48.748   9.491  19.127  0.00  0.00    +0.000 HD
ENDBRANCH  18  21
ENDBRANCH   1  19
TORSDOF 6
ENDMDL
MODEL 7
REMARK VINA RESULT:    -7.196      1.895      2.402
REMARK INTER + INTRA:         -10.359
REMARK INTER:                  -9.278
REMARK INTRA:                  -1.081
REMARK UNBOUND:                -0.640
REMARK  Name = 
REMARK  6 active torsions:
REMARK  status: ('A' for Active; 'I' for Inactive)
REMARK    1  A    between atoms: C_2  and  C_18
REMARK    2  A    between atoms: N_3  and  C_4
REMARK    3  A    between atoms: C_4  and  C_5
REMARK    4  A    between atoms: C_8  and  C_9
REMARK    5  A    between atoms: C_9  and  N_10
REMARK    6  A    between atoms: N_10  and  C_11
REMARK                            x       y       z     vdW  Elec       q    Type
REMARK                         _______ _______ _______ _____ _____    ______ ____
ROOT
ATOM      1  C   UNL     1      45.465   8.687  12.833  0.00  0.00    +0.000 C 
ENDROOT
BRANCH   1   2
ATOM      2  C   UNL     1      45.269   7.340  12.190  0.00  0.00    +0.000 A 
ATOM      3  C   UNL     1      44.260   6.475  12.633  0.00  0.00    +0.000 A 
ATOM      4  C   UNL     1      44.037   5.249  11.995  0.00  0.00    +0.000 A 
ATOM      5  C   UNL     1      44.829   4.855  10.907  0.00  0.00    +0.000 A 
ATOM      6  C   UNL     1      45.862   5.707  10.491  0.00  0.00    +0.000 A 
ATOM      7  C   UNL     1      46.087   6.929  11.130  0.00  0.00    +0.000 A 
BRANCH   5   8
ATOM      8  C   UNL     1      44.627   3.522  10.220  0.00  0.00    +0.000 C 
BRANCH   8   9
ATOM      9  N   UNL     1      44.178   3.657   8.838  0.00  0.00    +0.000 NA
ATOM     10  H   UNL     1      44.157   4.639   8.577  0.00  0.00    +0.000 HD
BRANCH   9  11
ATOM     11  C   UNL     1      45.041   2.971   7.910  0.00  0.00    +0.000 C 
ATOM     12  C   UNL     1      45.901   1.842   8.463  0.00  0.00    +0.000 C 
ATOM     13  C   UNL     1      47.035   1.776   7.456  0.00  0.00    +0.000 C 
ATOM     14  C   UNL     1      47.186   3.214   6.978  0.00  0.00    +0.000 C 
ATOM     15  N   UNL     1      46.039   3.946   7.518  0.00  0.00    +0.000 NA
ATOM     16  H   UNL     1      45.639   4.578   6.829  0.00  0.00    +0.000 HD
ENDBRANCH   9  11
ENDBRANCH   8   9
ENDBRANCH   5   8
ENDBRANCH   1   2
BRANCH   1  19
ATOM     17  O   UNL     1      48.188   9.370  12.639  0.00  0.00    +0.000 OA
ATOM     18  C   UNL     1      47.733   9.034  13.729  0.00  0.00    +0.000 C 
ATOM     19  N   UNL     1      46.430   8.644  13.898  0.00  0.00    +0.000 N 
ATOM     20  H   UNL     1      46.061   8.527  14.834  0.00  0.00    +0.000 HD
BRANCH  18  21
ATOM     21  C   UNL     1      48.579   8.987  14.925  0.00  0.00    +0.000 A 
ATOM     22  C   UNL     1      49.089  10.160  15.463  0.00  0.00    +0.000 A 
ATOM     23  S   UNL     1      50.004   9.917  16.882  0.00  0.00    +0.000 S 
ATOM     24  C   UNL     1      49.728   8.239  16.839  0.00  0.00    +0.000 A 
ATOM     25  N   UNL     1      50.203   7.421  17.817  0.00  0.00    +0.000 NA
ATOM     26  C   UNL     1      49.886   6.180  17.677  0.00  0.00    +0.000 A 
ATOM     27  N   UNL     1      49.151   5.675  16.634  0.00  0.00    +0.000 N 
ATOM     28  C   UNL     1      48.734   6.444  15.579  0.00  0.00    +0.000 A 
ATOM     29  O   UNL     1      48.241   5.930  14.578  0.00  0.00    +0.000 OA
ATOM     30  C   UNL     1      48.993   7.863  15.729  0.00  0.00    +0.000 A 
ATOM     31  H   UNL     1      48.984   4.684  16.553  0.00  0.00    +0.000 HD
ENDBRANCH  18  21
ENDBRANCH   1  19
TORSDOF 6
ENDMDL
MODEL 8
REMARK VINA RESULT:    -7.179      2.383      3.272
REMARK INTER + INTRA:         -10.336
REMARK INTER:                  -9.291
REMARK INTRA:                  -1.045
REMARK UNBOUND:                -0.640
REMARK  Name = 
REMARK  6 active torsions:
REMARK  status: ('A' for Active; 'I' for Inactive)
REMARK    1  A    between atoms: C_2  and  C_18
REMARK    2  A    between atoms: N_3  and  C_4
REMARK    3  A    between atoms: C_4  and  C_5
REMARK    4  A    between atoms: C_8  and  C_9
REMARK    5  A    between atoms: C_9  and  N_10
REMARK    6  A    between atoms: N_10  and  C_11
REMARK                            x       y       z     vdW  Elec       q    Type
REMARK                         _______ _______ _______ _____ _____    ______ ____
ROOT
ATOM      1  C   UNL     1      47.147   4.331  15.460  0.00  0.00    +0.000 C 
ENDROOT
BRANCH   1   2
ATOM      2  C   UNL     1      46.700   4.647  14.057  0.00  0.00    +0.000 A 
ATOM      3  C   UNL     1      45.819   3.795  13.377  0.00  0.00    +0.000 A 
ATOM      4  C   UNL     1      45.356   4.119  12.097  0.00  0.00    +0.000 A 
ATOM      5  C   UNL     1      45.774   5.298  11.463  0.00  0.00    +0.000 A 
ATOM      6  C   UNL     1      46.686   6.128  12.131  0.00  0.00    +0.000 A 
ATOM      7  C   UNL     1      47.152   5.802  13.408  0.00  0.00    +0.000 A 
BRANCH   5   8
ATOM      8  C   UNL     1      45.310   5.656  10.067  0.00  0.00    +0.000 C 
BRANCH   8   9
ATOM      9  N   UNL     1      44.310   4.730   9.546  0.00  0.00    +0.000 NA
ATOM     10  H   UNL     1      43.503   5.249   9.209  0.00  0.00    +0.000 HD
BRANCH   9  11
ATOM     11  C   UNL     1      44.812   3.936   8.453  0.00  0.00    +0.000 C 
ATOM     12  C   UNL     1      45.364   2.557   8.791  0.00  0.00    +0.000 C 
ATOM     13  C   UNL     1      46.294   2.286   7.623  0.00  0.00    +0.000 C 
ATOM     14  C   UNL     1      46.800   3.667   7.227  0.00  0.00    +0.000 C 
ATOM     15  N   UNL     1      45.995   4.628   7.983  0.00  0.00    +0.000 NA
ATOM     16  H   UNL     1      45.715   5.418   7.407  0.00  0.00    +0.000 HD
ENDBRANCH   9  11
ENDBRANCH   8   9
ENDBRANCH   5   8
ENDBRANCH   1   2
BRANCH   1  19
ATOM     17  O   UNL     1      49.622   4.391  16.799  0.00  0.00    +0.000 OA
ATOM     18  C   UNL     1      48.967   5.426  16.707  0.00  0.00    +0.000 C 
ATOM     19  N   UNL     1      47.734   5.471  16.111  0.00  0.00    +0.000 N 
ATOM     20  H   UNL     1      47.303   6.368  15.921  0.00  0.00    +0.000 HD
BRANCH  18  21
ATOM     21  C   UNL     1      49.452   6.686  17.277  0.00  0.00    +0.000 A 
ATOM     22  C   UNL     1      50.608   7.274  16.781  0.00  0.00    +0.000 A 
ATOM     23  S   UNL     1      50.989   8.760  17.526  0.00  0.00    +0.000 S 
ATOM     24  C   UNL     1      49.609   8.679  18.519  0.00  0.00    +0.000 A 
ATOM     25  N   UNL     1      49.303   9.686  19.382  0.00  0.00    +0.000 NA
ATOM     26  C   UNL     1      48.211   9.509  20.042  0.00  0.00    +0.000 A 
ATOM     27  N   UNL     1      47.403   8.405  19.934  0.00  0.00    +0.000 N 
ATOM     28  C   UNL     1      47.721   7.327  19.150  0.00  0.00    +0.000 A 
ATOM     29  O   UNL     1      47.074   6.284  19.215  0.00  0.00    +0.000 OA
ATOM     30  C   UNL     1      48.898   7.510  18.322  0.00  0.00    +0.000 A 
ATOM     31  H   UNL     1      46.588   8.301  20.520  0.00  0.00    +0.000 HD
ENDBRANCH  18  21
ENDBRANCH   1  19
TORSDOF 6
ENDMDL
MODEL 9
REMARK VINA RESULT:    -7.090      2.137      3.428
REMARK INTER + INTRA:         -10.217
REMARK INTER:                  -9.212
REMARK INTRA:                  -1.004
REMARK UNBOUND:                -0.640
REMARK  Name = 
REMARK  6 active torsions:
REMARK  status: ('A' for Active; 'I' for Inactive)
REMARK    1  A    between atoms: C_2  and  C_18
REMARK    2  A    between atoms: N_3  and  C_4
REMARK    3  A    between atoms: C_4  and  C_5
REMARK    4  A    between atoms: C_8  and  C_9
REMARK    5  A    between atoms: C_9  and  N_10
REMARK    6  A    between atoms: N_10  and  C_11
REMARK                            x       y       z     vdW  Elec       q    Type
REMARK                         _______ _______ _______ _____ _____    ______ ____
ROOT
ATOM      1  C   UNL     1      47.144   4.033  15.359  0.00  0.00    +0.000 C 
ENDROOT
BRANCH   1   2
ATOM      2  C   UNL     1      46.655   4.395  13.981  0.00  0.00    +0.000 A 
ATOM      3  C   UNL     1      45.881   3.494  13.238  0.00  0.00    +0.000 A 
ATOM      4  C   UNL     1      45.374   3.853  11.983  0.00  0.00    +0.000 A 
ATOM      5  C   UNL     1      45.641   5.117  11.440  0.00  0.00    +0.000 A 
ATOM      6  C   UNL     1      46.449   6.001  12.171  0.00  0.00    +0.000 A 
ATOM      7  C   UNL     1      46.958   5.642  13.421  0.00  0.00    +0.000 A 
BRANCH   5   8
ATOM      8  C   UNL     1      45.129   5.517  10.073  0.00  0.00    +0.000 C 
BRANCH   8   9
ATOM      9  N   UNL     1      44.194   4.548   9.510  0.00  0.00    +0.000 NA
ATOM     10  H   UNL     1      43.371   5.030   9.157  0.00  0.00    +0.000 HD
BRANCH   9  11
ATOM     11  C   UNL     1      44.768   3.799   8.421  0.00  0.00    +0.000 C 
ATOM     12  C   UNL     1      45.381   2.445   8.755  0.00  0.00    +0.000 C 
ATOM     13  C   UNL     1      46.357   2.241   7.611  0.00  0.00    +0.000 C 
ATOM     14  C   UNL     1      46.801   3.652   7.250  0.00  0.00    +0.000 C 
ATOM     15  N   UNL     1      45.926   4.558   7.996  0.00  0.00    +0.000 NA
ATOM     16  H   UNL     1      45.623   5.342   7.424  0.00  0.00    +0.000 HD
ENDBRANCH   9  11
ENDBRANCH   8   9
ENDBRANCH   5   8
ENDBRANCH   1   2
BRANCH   1  19
ATOM     17  O   UNL     1      47.954   4.061  18.055  0.00  0.00    +0.000 OA
ATOM     18  C   UNL     1      47.944   5.114  17.423  0.00  0.00    +0.000 C 
ATOM     19  N   UNL     1      47.520   5.193  16.122  0.00  0.00    +0.000 N 
ATOM     20  H   UNL     1      47.674   6.046  15.597  0.00  0.00    +0.000 HD
BRANCH  18  21
ATOM     21  C   UNL     1      48.346   6.379  18.046  0.00  0.00    +0.000 A 
ATOM     22  C   UNL     1      47.755   6.789  19.233  0.00  0.00    +0.000 A 
ATOM     23  S   UNL     1      48.386   8.254  19.837  0.00  0.00    +0.000 S 
ATOM     24  C   UNL     1      49.488   8.376  18.546  0.00  0.00    +0.000 A 
ATOM     25  N   UNL     1      50.384   9.398  18.480  0.00  0.00    +0.000 NA
ATOM     26  C   UNL     1      51.182   9.343  17.469  0.00  0.00    +0.000 A 
ATOM     27  N   UNL     1      51.155   8.367  16.505  0.00  0.00    +0.000 N 
ATOM     28  C   UNL     1      50.211   7.374  16.481  0.00  0.00    +0.000 A 
ATOM     29  O   UNL     1      50.102   6.629  15.509  0.00  0.00    +0.000 OA
ATOM     30  C   UNL     1      49.340   7.342  17.640  0.00  0.00    +0.000 A 
ATOM     31  H   UNL     1      51.772   8.411  15.709  0.00  0.00    +0.000 HD
ENDBRANCH  18  21
ENDBRANCH   1  19
TORSDOF 6
ENDMDL
