MODEL 1
REMARK VINA RESULT:    -8.653      0.000      0.000
REMARK INTER + INTRA:         -13.181
REMARK INTER:                 -12.194
REMARK INTRA:                  -0.987
REMARK UNBOUND:                -0.987
REMARK  Name = 
REMARK  8 active torsions:
REMARK  status: ('A' for Active; 'I' for Inactive)
REMARK    1  A    between atoms: C_1  and  C_2
REMARK    2  A    between atoms: C_5  and  C_6
REMARK    3  A    between atoms: C_6  and  N_7
REMARK    4  A    between atoms: N_7  and  C_8
REMARK    5  A    between atoms: C_8  and  C_9
REMARK    6  A    between atoms: C_12  and  C_13
REMARK    7  A    between atoms: C_13  and  N_14
REMARK    8  A    between atoms: C_15  and  C_17
REMARK                            x       y       z     vdW  Elec       q    Type
REMARK                         _______ _______ _______ _____ _____    ______ ____
ROOT
ATOM      1  C   UNL     1      44.637   5.289  11.799  0.00  0.00    +0.000 A 
ATOM      2  C   UNL     1      45.547   6.121  11.142  0.00  0.00    +0.000 A 
ATOM      3  C   UNL     1      46.731   6.484  11.776  0.00  0.00    +0.000 A 
ATOM      4  C   UNL     1      46.976   6.017  13.063  0.00  0.00    +0.000 A 
ATOM      5  N   UNL     1      46.125   5.181  13.710  0.00  0.00    +0.000 NA
ATOM      6  C   UNL     1      44.986   4.835  13.066  0.00  0.00    +0.000 A 
ENDROOT
BRANCH   1   7
ATOM      7  C   UNL     1      43.311   4.932  11.186  0.00  0.00    +0.000 C 
BRANCH   7   8
ATOM      8  N   UNL     1      43.441   4.239   9.902  0.00  0.00    +0.000 NA
ATOM      9  H   UNL     1      42.508   4.015   9.550  0.00  0.00    +0.000 HD
BRANCH   8  10
ATOM     10  C   UNL     1      44.164   2.964  10.028  0.00  0.00    +0.000 C 
BRANCH  10  15
ATOM     11  C   UNL     1      47.983   2.165   5.782  0.00  0.00    +0.000 C 
ATOM     12  C   UNL     1      46.991   2.425   6.872  0.00  0.00    +0.000 A 
ATOM     13  C   UNL     1      46.428   3.685   7.069  0.00  0.00    +0.000 A 
ATOM     14  C   UNL     1      45.509   3.873   8.098  0.00  0.00    +0.000 A 
ATOM     15  C   UNL     1      45.180   2.794   8.916  0.00  0.00    +0.000 A 
ATOM     16  N   UNL     1      45.707   1.556   8.739  0.00  0.00    +0.000 NA
ATOM     17  C   UNL     1      46.598   1.406   7.731  0.00  0.00    +0.000 A 
ENDBRANCH  10  15
ENDBRANCH   8  10
ENDBRANCH   7   8
ENDBRANCH   1   7
BRANCH   4  18
ATOM     18  C   UNL     1      48.232   6.422  13.794  0.00  0.00    +0.000 C 
BRANCH  18  19
ATOM     19  N   UNL     1      48.006   6.599  15.209  0.00  0.00    +0.000 N 
ATOM     20  C   UNL     1      49.011   6.511  16.132  0.00  0.00    +0.000 C 
ATOM     21  O   UNL     1      50.175   6.282  15.814  0.00  0.00    +0.000 OA
ATOM     22  H   UNL     1      47.039   6.531  15.505  0.00  0.00    +0.000 HD
BRANCH  20  23
ATOM     23  C   UNL     1      48.636   6.782  17.525  0.00  0.00    +0.000 A 
ATOM     24  C   UNL     1      48.285   8.072  17.904  0.00  0.00    +0.000 A 
ATOM     25  S   UNL     1      47.836   8.204  19.544  0.00  0.00    +0.000 S 
ATOM     26  C   UNL     1      48.140   6.552  19.818  0.00  0.00    +0.000 A 
ATOM     27  N   UNL     1      47.979   6.008  21.053  0.00  0.00    +0.000 NA
ATOM     28  C   UNL     1      48.275   4.752  21.125  0.00  0.00    +0.000 A 
ATOM     29  N   UNL     1      48.708   3.991  20.070  0.00  0.00    +0.000 N 
ATOM     30  C   UNL     1      48.828   4.483  18.795  0.00  0.00    +0.000 A 
ATOM     31  O   UNL     1      49.119   3.752  17.857  0.00  0.00    +0.000 OA
ATOM     32  C   UNL     1      48.549   5.901  18.667  0.00  0.00    +0.000 A 
ATOM     33  H   UNL     1      48.899   3.005  20.185  0.00  0.00    +0.000 HD
ENDBRANCH  20  23
ENDBRANCH  18  19
ENDBRANCH   4  18
TORSDOF 7
ENDMDL
MODEL 2
REMARK VINA RESULT:    -8.301      1.352      2.071
REMARK INTER + INTRA:         -12.685
REMARK INTER:                 -11.483
REMARK INTRA:                  -1.202
REMARK UNBOUND:                -0.987
REMARK  Name = 
REMARK  8 active torsions:
REMARK  status: ('A' for Active; 'I' for Inactive)
REMARK    1  A    between atoms: C_1  and  C_2
REMARK    2  A    between atoms: C_5  and  C_6
REMARK    3  A    between atoms: C_6  and  N_7
REMARK    4  A    between atoms: N_7  and  C_8
REMARK    5  A    between atoms: C_8  and  C_9
REMARK    6  A    between atoms: C_12  and  C_13
REMARK    7  A    between atoms: C_13  and  N_14
REMARK    8  A    between atoms: C_15  and  C_17
REMARK                            x       y       z     vdW  Elec       q    Type
REMARK                         _______ _______ _______ _____ _____    ______ ____
ROOT
ATOM      1  C   UNL     1      44.530   5.291  11.824  0.00  0.00    +0.000 A 
ATOM      2  C   UNL     1      45.325   6.178  11.094  0.00  0.00    +0.000 A 
ATOM      3  C   UNL     1      46.470   6.715  11.674  0.00  0.00    +0.000 A 
ATOM      4  C   UNL     1      46.791   6.363  12.982  0.00  0.00    +0.000 A 
ATOM      5  N   UNL     1      46.055   5.478  13.700  0.00  0.00    +0.000 NA
ATOM      6  C   UNL     1      44.953   4.963  13.108  0.00  0.00    +0.000 A 
ENDROOT
BRANCH   1   7
ATOM      7  C   UNL     1      43.244   4.745  11.268  0.00  0.00    +0.000 C 
BRANCH   7   8
ATOM      8  N   UNL     1      43.411   4.105   9.962  0.00  0.00    +0.000 NA
ATOM      9  H   UNL     1      42.489   3.879   9.583  0.00  0.00    +0.000 HD
BRANCH   8  10
ATOM     10  C   UNL     1      44.152   2.837  10.054  0.00  0.00    +0.000 C 
BRANCH  10  15
ATOM     11  C   UNL     1      48.001   2.217   5.805  0.00  0.00    +0.000 C 
ATOM     12  C   UNL     1      47.000   2.431   6.896  0.00  0.00    +0.000 A 
ATOM     13  C   UNL     1      46.396   3.669   7.108  0.00  0.00    +0.000 A 
ATOM     14  C   UNL     1      45.469   3.814   8.138  0.00  0.00    +0.000 A 
ATOM     15  C   UNL     1      45.174   2.715   8.941  0.00  0.00    +0.000 A 
ATOM     16  N   UNL     1      45.742   1.497   8.750  0.00  0.00    +0.000 NA
ATOM     17  C   UNL     1      46.639   1.389   7.742  0.00  0.00    +0.000 A 
ENDBRANCH  10  15
ENDBRANCH   8  10
ENDBRANCH   7   8
ENDBRANCH   1   7
BRANCH   4  18
ATOM     18  C   UNL     1      48.004   6.956  13.654  0.00  0.00    +0.000 C 
BRANCH  18  19
ATOM     19  N   UNL     1      47.973   6.782  15.087  0.00  0.00    +0.000 N 
ATOM     20  C   UNL     1      49.104   6.594  15.831  0.00  0.00    +0.000 C 
ATOM     21  O   UNL     1      50.225   6.569  15.327  0.00  0.00    +0.000 OA
ATOM     22  H   UNL     1      47.066   6.545  15.475  0.00  0.00    +0.000 HD
BRANCH  20  23
ATOM     23  C   UNL     1      48.916   6.501  17.284  0.00  0.00    +0.000 A 
ATOM     24  C   UNL     1      49.284   5.340  17.952  0.00  0.00    +0.000 A 
ATOM     25  S   UNL     1      49.040   5.415  19.638  0.00  0.00    +0.000 S 
ATOM     26  C   UNL     1      48.390   6.985  19.530  0.00  0.00    +0.000 A 
ATOM     27  N   UNL     1      47.944   7.634  20.638  0.00  0.00    +0.000 NA
ATOM     28  C   UNL     1      47.447   8.804  20.407  0.00  0.00    +0.000 A 
ATOM     29  N   UNL     1      47.367   9.386  19.168  0.00  0.00    +0.000 N 
ATOM     30  C   UNL     1      47.858   8.793  18.032  0.00  0.00    +0.000 A 
ATOM     31  O   UNL     1      47.862   9.384  16.959  0.00  0.00    +0.000 OA
ATOM     32  C   UNL     1      48.388   7.457  18.229  0.00  0.00    +0.000 A 
ATOM     33  H   UNL     1      46.990  10.317  19.056  0.00  0.00    +0.000 HD
ENDBRANCH  20  23
ENDBRANCH  18  19
ENDBRANCH   4  18
TORSDOF 7
ENDMDL
MODEL 3
REMARK VINA RESULT:    -7.912      2.315      2.702
REMARK INTER + INTRA:         -12.136
REMARK INTER:                 -11.097
REMARK INTRA:                  -1.039
REMARK UNBOUND:                -0.987
REMARK  Name = 
REMARK  8 active torsions:
REMARK  status: ('A' for Active; 'I' for Inactive)
REMARK    1  A    between atoms: C_1  and  C_2
REMARK    2  A    between atoms: C_5  and  C_6
REMARK    3  A    between atoms: C_6  and  N_7
REMARK    4  A    between atoms: N_7  and  C_8
REMARK    5  A    between atoms: C_8  and  C_9
REMARK    6  A    between atoms: C_12  and  C_13
REMARK    7  A    between atoms: C_13  and  N_14
REMARK    8  A    between atoms: C_15  and  C_17
REMARK                            x       y       z     vdW  Elec       q    Type
REMARK                         _______ _______ _______ _____ _____    ______ ____
ROOT
ATOM      1  C   UNL     1      45.625   4.771  12.545  0.00  0.00    +0.000 A 
ATOM      2  C   UNL     1      45.722   5.811  11.617  0.00  0.00    +0.000 A 
ATOM      3  C   UNL     1      46.757   6.734  11.722  0.00  0.00    +0.000 A 
ATOM      4  C   UNL     1      47.671   6.605  12.764  0.00  0.00    +0.000 A 
ATOM      5  N   UNL     1      47.620   5.585  13.657  0.00  0.00    +0.000 NA
ATOM      6  C   UNL     1      46.608   4.696  13.525  0.00  0.00    +0.000 A 
ENDROOT
BRANCH   1   7
ATOM      7  C   UNL     1      44.481   3.795  12.518  0.00  0.00    +0.000 C 
BRANCH   7   8
ATOM      8  N   UNL     1      44.660   2.730  11.530  0.00  0.00    +0.000 NA
ATOM      9  H   UNL     1      45.660   2.581  11.379  0.00  0.00    +0.000 HD
BRANCH   8  10
ATOM     10  C   UNL     1      44.083   3.080  10.223  0.00  0.00    +0.000 C 
BRANCH  10  15
ATOM     11  C   UNL     1      47.852   2.165   5.956  0.00  0.00    +0.000 C 
ATOM     12  C   UNL     1      46.875   2.455   7.051  0.00  0.00    +0.000 A 
ATOM     13  C   UNL     1      46.354   3.732   7.253  0.00  0.00    +0.000 A 
ATOM     14  C   UNL     1      45.446   3.948   8.287  0.00  0.00    +0.000 A 
ATOM     15  C   UNL     1      45.087   2.879   9.105  0.00  0.00    +0.000 A 
ATOM     16  N   UNL     1      45.574   1.625   8.924  0.00  0.00    +0.000 NA
ATOM     17  C   UNL     1      46.454   1.448   7.911  0.00  0.00    +0.000 A 
ENDBRANCH  10  15
ENDBRANCH   8  10
ENDBRANCH   7   8
ENDBRANCH   1   7
BRANCH   4  18
ATOM     18  C   UNL     1      48.784   7.610  12.929  0.00  0.00    +0.000 C 
BRANCH  18  19
ATOM     19  N   UNL     1      49.816   7.138  13.821  0.00  0.00    +0.000 N 
ATOM     20  C   UNL     1      50.269   7.876  14.880  0.00  0.00    +0.000 C 
ATOM     21  O   UNL     1      49.818   8.988  15.145  0.00  0.00    +0.000 OA
ATOM     22  H   UNL     1      50.366   6.359  13.475  0.00  0.00    +0.000 HD
BRANCH  20  23
ATOM     23  C   UNL     1      51.273   7.233  15.736  0.00  0.00    +0.000 A 
ATOM     24  C   UNL     1      52.577   7.711  15.745  0.00  0.00    +0.000 A 
ATOM     25  S   UNL     1      53.603   6.880  16.824  0.00  0.00    +0.000 S 
ATOM     26  C   UNL     1      52.352   5.821  17.284  0.00  0.00    +0.000 A 
ATOM     27  N   UNL     1      52.576   4.823  18.180  0.00  0.00    +0.000 NA
ATOM     28  C   UNL     1      51.548   4.076  18.414  0.00  0.00    +0.000 A 
ATOM     29  N   UNL     1      50.315   4.244  17.839  0.00  0.00    +0.000 N 
ATOM     30  C   UNL     1      50.028   5.272  16.976  0.00  0.00    +0.000 A 
ATOM     31  O   UNL     1      48.890   5.453  16.561  0.00  0.00    +0.000 OA
ATOM     32  C   UNL     1      51.160   6.117  16.646  0.00  0.00    +0.000 A 
ATOM     33  H   UNL     1      49.542   3.640  18.083  0.00  0.00    +0.000 HD
ENDBRANCH  20  23
ENDBRANCH  18  19
ENDBRANCH   4  18
TORSDOF 7
ENDMDL
MODEL 4
REMARK VINA RESULT:    -7.796      2.606      3.263
REMARK INTER + INTRA:         -11.972
REMARK INTER:                 -11.201
REMARK INTRA:                  -0.772
REMARK UNBOUND:                -0.987
REMARK  Name = 
REMARK  8 active torsions:
REMARK  status: ('A' for Active; 'I' for Inactive)
REMARK    1  A    between atoms: C_1  and  C_2
REMARK    2  A    between atoms: C_5  and  C_6
REMARK    3  A    between atoms: C_6  and  N_7
REMARK    4  A    between atoms: N_7  and  C_8
REMARK    5  A    between atoms: C_8  and  C_9
REMARK    6  A    between atoms: C_12  and  C_13
REMARK    7  A    between atoms: C_13  and  N_14
REMARK    8  A    between atoms: C_15  and  C_17
REMARK                            x       y       z     vdW  Elec       q    Type
REMARK                         _______ _______ _______ _____ _____    ______ ____
ROOT
ATOM      1  C   UNL     1      45.983   5.183  12.933  0.00  0.00    +0.000 A 
ATOM      2  C   UNL     1      46.683   4.529  13.949  0.00  0.00    +0.000 A 
ATOM      3  C   UNL     1      47.601   5.236  14.719  0.00  0.00    +0.000 A 
ATOM      4  C   UNL     1      47.810   6.585  14.449  0.00  0.00    +0.000 A 
ATOM      5  N   UNL     1      47.118   7.252  13.491  0.00  0.00    +0.000 NA
ATOM      6  C   UNL     1      46.225   6.543  12.764  0.00  0.00    +0.000 A 
ENDROOT
BRANCH   1   7
ATOM      7  C   UNL     1      45.039   4.446  12.025  0.00  0.00    +0.000 C 
BRANCH   7   8
ATOM      8  N   UNL     1      44.713   5.194  10.808  0.00  0.00    +0.000 NA
ATOM      9  H   UNL     1      44.071   5.952  11.047  0.00  0.00    +0.000 HD
BRANCH   8  10
ATOM     10  C   UNL     1      44.030   4.360   9.808  0.00  0.00    +0.000 C 
BRANCH  10  15
ATOM     11  C   UNL     1      47.899   1.828   6.362  0.00  0.00    +0.000 C 
ATOM     12  C   UNL     1      46.879   2.436   7.274  0.00  0.00    +0.000 A 
ATOM     13  C   UNL     1      46.132   1.663   8.161  0.00  0.00    +0.000 A 
ATOM     14  C   UNL     1      45.196   2.279   8.988  0.00  0.00    +0.000 A 
ATOM     15  C   UNL     1      45.023   3.659   8.902  0.00  0.00    +0.000 A 
ATOM     16  N   UNL     1      45.745   4.434   8.054  0.00  0.00    +0.000 NA
ATOM     17  C   UNL     1      46.645   3.806   7.262  0.00  0.00    +0.000 A 
ENDBRANCH  10  15
ENDBRANCH   8  10
ENDBRANCH   7   8
ENDBRANCH   1   7
BRANCH   4  18
ATOM     18  C   UNL     1      48.825   7.371  15.241  0.00  0.00    +0.000 C 
BRANCH  18  19
ATOM     19  N   UNL     1      49.874   6.532  15.768  0.00  0.00    +0.000 N 
ATOM     20  C   UNL     1      49.870   6.066  17.054  0.00  0.00    +0.000 C 
ATOM     21  O   UNL     1      48.965   6.328  17.843  0.00  0.00    +0.000 OA
ATOM     22  H   UNL     1      50.733   6.520  15.229  0.00  0.00    +0.000 HD
BRANCH  20  23
ATOM     23  C   UNL     1      50.970   5.168  17.422  0.00  0.00    +0.000 A 
ATOM     24  C   UNL     1      52.182   5.701  17.844  0.00  0.00    +0.000 A 
ATOM     25  S   UNL     1      53.336   4.522  18.274  0.00  0.00    +0.000 S 
ATOM     26  C   UNL     1      52.274   3.255  17.867  0.00  0.00    +0.000 A 
ATOM     27  N   UNL     1      52.661   1.957  17.976  0.00  0.00    +0.000 NA
ATOM     28  C   UNL     1      51.767   1.100  17.604  0.00  0.00    +0.000 A 
ATOM     29  N   UNL     1      50.518   1.428  17.144  0.00  0.00    +0.000 N 
ATOM     30  C   UNL     1      50.064   2.721  17.073  0.00  0.00    +0.000 A 
ATOM     31  O   UNL     1      48.908   2.971  16.753  0.00  0.00    +0.000 OA
ATOM     32  C   UNL     1      51.044   3.725  17.439  0.00  0.00    +0.000 A 
ATOM     33  H   UNL     1      49.853   0.709  16.891  0.00  0.00    +0.000 HD
ENDBRANCH  20  23
ENDBRANCH  18  19
ENDBRANCH   4  18
TORSDOF 7
ENDMDL
MODEL 5
REMARK VINA RESULT:    -7.290      5.006      9.780
REMARK INTER + INTRA:         -11.260
REMARK INTER:                 -10.402
REMARK INTRA:                  -0.858
REMARK UNBOUND:                -0.987
REMARK  Name = 
REMARK  8 active torsions:
REMARK  status: ('A' for Active; 'I' for Inactive)
REMARK    1  A    between atoms: C_1  and  C_2
REMARK    2  A    between atoms: C_5  and  C_6
REMARK    3  A    between atoms: C_6  and  N_7
REMARK    4  A    between atoms: N_7  and  C_8
REMARK    5  A    between atoms: C_8  and  C_9
REMARK    6  A    between atoms: C_12  and  C_13
REMARK    7  A    between atoms: C_13  and  N_14
REMARK    8  A    between atoms: C_15  and  C_17
REMARK                            x       y       z     vdW  Elec       q    Type
REMARK                         _______ _______ _______ _____ _____    ______ ____
ROOT
ATOM      1  C   UNL     1      51.357   3.506  17.752  0.00  0.00    +0.000 A 
ATOM      2  C   UNL     1      50.780   2.307  17.328  0.00  0.00    +0.000 A 
ATOM      3  C   UNL     1      49.424   2.265  17.018  0.00  0.00    +0.000 A 
ATOM      4  C   UNL     1      48.668   3.426  17.150  0.00  0.00    +0.000 A 
ATOM      5  N   UNL     1      49.210   4.611  17.528  0.00  0.00    +0.000 NA
ATOM      6  C   UNL     1      50.532   4.625  17.814  0.00  0.00    +0.000 A 
ENDROOT
BRANCH   1   7
ATOM      7  C   UNL     1      52.798   3.582  18.172  0.00  0.00    +0.000 C 
BRANCH   7   8
ATOM      8  N   UNL     1      53.154   2.583  19.182  0.00  0.00    +0.000 NA
ATOM      9  H   UNL     1      53.028   2.990  20.111  0.00  0.00    +0.000 HD
BRANCH   8  10
ATOM     10  C   UNL     1      54.564   2.173  19.087  0.00  0.00    +0.000 C 
BRANCH  10  15
ATOM     11  C   UNL     1      54.985  -3.118  16.833  0.00  0.00    +0.000 C 
ATOM     12  C   UNL     1      54.884  -1.724  17.368  0.00  0.00    +0.000 A 
ATOM     13  C   UNL     1      54.913  -0.610  16.531  0.00  0.00    +0.000 A 
ATOM     14  C   UNL     1      54.815   0.666  17.081  0.00  0.00    +0.000 A 
ATOM     15  C   UNL     1      54.698   0.798  18.463  0.00  0.00    +0.000 A 
ATOM     16  N   UNL     1      54.658  -0.271  19.299  0.00  0.00    +0.000 NA
ATOM     17  C   UNL     1      54.756  -1.497  18.734  0.00  0.00    +0.000 A 
ENDBRANCH  10  15
ENDBRANCH   8  10
ENDBRANCH   7   8
ENDBRANCH   1   7
BRANCH   4  18
ATOM     18  C   UNL     1      47.188   3.407  16.858  0.00  0.00    +0.000 C 
BRANCH  18  19
ATOM     19  N   UNL     1      46.815   4.391  15.870  0.00  0.00    +0.000 N 
ATOM     20  C   UNL     1      46.883   4.149  14.526  0.00  0.00    +0.000 C 
ATOM     21  O   UNL     1      47.261   3.071  14.072  0.00  0.00    +0.000 OA
ATOM     22  H   UNL     1      46.752   5.345  16.210  0.00  0.00    +0.000 HD
BRANCH  20  23
ATOM     23  C   UNL     1      46.405   5.224  13.648  0.00  0.00    +0.000 A 
ATOM     24  C   UNL     1      47.205   6.338  13.427  0.00  0.00    +0.000 A 
ATOM     25  S   UNL     1      46.520   7.469  12.350  0.00  0.00    +0.000 S 
ATOM     26  C   UNL     1      45.108   6.533  12.178  0.00  0.00    +0.000 A 
ATOM     27  N   UNL     1      44.080   6.956  11.397  0.00  0.00    +0.000 NA
ATOM     28  C   UNL     1      43.060   6.163  11.382  0.00  0.00    +0.000 A 
ATOM     29  N   UNL     1      42.982   4.980  12.070  0.00  0.00    +0.000 N 
ATOM     30  C   UNL     1      44.017   4.485  12.822  0.00  0.00    +0.000 A 
ATOM     31  O   UNL     1      43.951   3.377  13.340  0.00  0.00    +0.000 OA
ATOM     32  C   UNL     1      45.173   5.358  12.907  0.00  0.00    +0.000 A 
ATOM     33  H   UNL     1      42.164   4.391  11.997  0.00  0.00    +0.000 HD
ENDBRANCH  20  23
ENDBRANCH  18  19
ENDBRANCH   4  18
TORSDOF 7
ENDMDL
MODEL 6
REMARK VINA RESULT:    -7.176      3.211      9.022
REMARK INTER + INTRA:         -11.099
REMARK INTER:                  -9.531
REMARK INTRA:                  -1.568
REMARK UNBOUND:                -0.987
REMARK  Name = 
REMARK  8 active torsions:
REMARK  status: ('A' for Active; 'I' for Inactive)
REMARK    1  A    between atoms: C_1  and  C_2
REMARK    2  A    between atoms: C_5  and  C_6
REMARK    3  A    between atoms: C_6  and  N_7
REMARK    4  A    between atoms: N_7  and  C_8
REMARK    5  A    between atoms: C_8  and  C_9
REMARK    6  A    between atoms: C_12  and  C_13
REMARK    7  A    between atoms: C_13  and  N_14
REMARK    8  A    between atoms: C_15  and  C_17
REMARK                            x       y       z     vdW  Elec       q    Type
REMARK                         _______ _______ _______ _____ _____    ______ ____
ROOT
ATOM      1  C   UNL     1      48.690   8.295  16.046  0.00  0.00    +0.000 A 
ATOM      2  C   UNL     1      49.191   7.157  15.411  0.00  0.00    +0.000 A 
ATOM      3  C   UNL     1      48.905   6.934  14.068  0.00  0.00    +0.000 A 
ATOM      4  C   UNL     1      48.111   7.852  13.388  0.00  0.00    +0.000 A 
ATOM      5  N   UNL     1      47.640   8.983  13.971  0.00  0.00    +0.000 NA
ATOM      6  C   UNL     1      47.942   9.179  15.276  0.00  0.00    +0.000 A 
ENDROOT
BRANCH   1   7
ATOM      7  C   UNL     1      48.907   8.540  17.514  0.00  0.00    +0.000 C 
BRANCH   7   8
ATOM      8  N   UNL     1      47.801   8.059  18.344  0.00  0.00    +0.000 NA
ATOM      9  H   UNL     1      47.460   8.830  18.922  0.00  0.00    +0.000 HD
BRANCH   8  10
ATOM     10  C   UNL     1      48.219   6.993  19.267  0.00  0.00    +0.000 C 
BRANCH  10  15
ATOM     11  C   UNL     1      49.093   1.958  16.595  0.00  0.00    +0.000 C 
ATOM     12  C   UNL     1      48.815   3.264  17.270  0.00  0.00    +0.000 A 
ATOM     13  C   UNL     1      47.538   3.824  17.293  0.00  0.00    +0.000 A 
ATOM     14  C   UNL     1      47.333   5.041  17.937  0.00  0.00    +0.000 A 
ATOM     15  C   UNL     1      48.417   5.679  18.538  0.00  0.00    +0.000 A 
ATOM     16  N   UNL     1      49.667   5.150  18.537  0.00  0.00    +0.000 NA
ATOM     17  C   UNL     1      49.834   3.966  17.903  0.00  0.00    +0.000 A 
ENDBRANCH  10  15
ENDBRANCH   8  10
ENDBRANCH   7   8
ENDBRANCH   1   7
BRANCH   4  18
ATOM     18  C   UNL     1      47.751   7.622  11.941  0.00  0.00    +0.000 C 
BRANCH  18  19
ATOM     19  N   UNL     1      46.988   6.410  11.755  0.00  0.00    +0.000 N 
ATOM     20  C   UNL     1      45.622   6.384  11.802  0.00  0.00    +0.000 C 
ATOM     21  O   UNL     1      44.953   7.396  11.999  0.00  0.00    +0.000 OA
ATOM     22  H   UNL     1      47.514   5.548  11.850  0.00  0.00    +0.000 HD
BRANCH  20  23
ATOM     23  C   UNL     1      44.988   5.089  11.527  0.00  0.00    +0.000 A 
ATOM     24  C   UNL     1      44.254   4.457  12.522  0.00  0.00    +0.000 A 
ATOM     25  S   UNL     1      43.550   2.986  12.023  0.00  0.00    +0.000 S 
ATOM     26  C   UNL     1      44.241   3.117  10.473  0.00  0.00    +0.000 A 
ATOM     27  N   UNL     1      44.051   2.148   9.539  0.00  0.00    +0.000 NA
ATOM     28  C   UNL     1      44.657   2.362   8.418  0.00  0.00    +0.000 A 
ATOM     29  N   UNL     1      45.428   3.462   8.146  0.00  0.00    +0.000 N 
ATOM     30  C   UNL     1      45.598   4.493   9.036  0.00  0.00    +0.000 A 
ATOM     31  O   UNL     1      46.209   5.507   8.723  0.00  0.00    +0.000 OA
ATOM     32  C   UNL     1      44.972   4.283  10.328  0.00  0.00    +0.000 A 
ATOM     33  H   UNL     1      45.857   3.583   7.238  0.00  0.00    +0.000 HD
ENDBRANCH  20  23
ENDBRANCH  18  19
ENDBRANCH   4  18
TORSDOF 7
ENDMDL
MODEL 7
REMARK VINA RESULT:    -6.776      4.499      6.335
REMARK INTER + INTRA:         -10.535
REMARK INTER:                  -9.401
REMARK INTRA:                  -1.135
REMARK UNBOUND:                -0.987
REMARK  Name = 
REMARK  8 active torsions:
REMARK  status: ('A' for Active; 'I' for Inactive)
REMARK    1  A    between atoms: C_1  and  C_2
REMARK    2  A    between atoms: C_5  and  C_6
REMARK    3  A    between atoms: C_6  and  N_7
REMARK    4  A    between atoms: N_7  and  C_8
REMARK    5  A    between atoms: C_8  and  C_9
REMARK    6  A    between atoms: C_12  and  C_13
REMARK    7  A    between atoms: C_13  and  N_14
REMARK    8  A    between atoms: C_15  and  C_17
REMARK                            x       y       z     vdW  Elec       q    Type
REMARK                         _______ _______ _______ _____ _____    ______ ____
ROOT
ATOM      1  C   UNL     1      45.896   5.614  12.357  0.00  0.00    +0.000 A 
ATOM      2  C   UNL     1      46.960   5.548  13.259  0.00  0.00    +0.000 A 
ATOM      3  C   UNL     1      47.598   6.718  13.661  0.00  0.00    +0.000 A 
ATOM      4  C   UNL     1      47.164   7.934  13.141  0.00  0.00    +0.000 A 
ATOM      5  N   UNL     1      46.111   8.029  12.289  0.00  0.00    +0.000 NA
ATOM      6  C   UNL     1      45.504   6.876  11.924  0.00  0.00    +0.000 A 
ENDROOT
BRANCH   1   7
ATOM      7  C   UNL     1      45.227   4.373  11.835  0.00  0.00    +0.000 C 
BRANCH   7   8
ATOM      8  N   UNL     1      44.457   4.610  10.612  0.00  0.00    +0.000 NA
ATOM      9  H   UNL     1      43.576   5.066  10.858  0.00  0.00    +0.000 HD
BRANCH   8  10
ATOM     10  C   UNL     1      44.106   3.358   9.924  0.00  0.00    +0.000 C 
BRANCH  10  15
ATOM     11  C   UNL     1      47.962   2.263   5.778  0.00  0.00    +0.000 C 
ATOM     12  C   UNL     1      46.961   2.494   6.867  0.00  0.00    +0.000 A 
ATOM     13  C   UNL     1      46.561   1.473   7.727  0.00  0.00    +0.000 A 
ATOM     14  C   UNL     1      45.627   1.742   8.724  0.00  0.00    +0.000 A 
ATOM     15  C   UNL     1      45.105   3.030   8.832  0.00  0.00    +0.000 A 
ATOM     16  N   UNL     1      45.486   4.043   8.013  0.00  0.00    +0.000 NA
ATOM     17  C   UNL     1      46.394   3.749   7.054  0.00  0.00    +0.000 A 
ENDBRANCH  10  15
ENDBRANCH   8  10
ENDBRANCH   7   8
ENDBRANCH   1   7
BRANCH   4  18
ATOM     18  C   UNL     1      47.857   9.217  13.526  0.00  0.00    +0.000 C 
BRANCH  18  19
ATOM     19  N   UNL     1      49.112   9.387  12.834  0.00  0.00    +0.000 N 
ATOM     20  C   UNL     1      49.225  10.110  11.679  0.00  0.00    +0.000 C 
ATOM     21  O   UNL     1      48.263  10.670  11.159  0.00  0.00    +0.000 OA
ATOM     22  H   UNL     1      49.845   8.737  13.098  0.00  0.00    +0.000 HD
BRANCH  20  23
ATOM     23  C   UNL     1      50.580  10.249  11.131  0.00  0.00    +0.000 A 
ATOM     24  C   UNL     1      51.092  11.515  10.875  0.00  0.00    +0.000 A 
ATOM     25  S   UNL     1      52.691  11.499  10.284  0.00  0.00    +0.000 S 
ATOM     26  C   UNL     1      52.741   9.798  10.305  0.00  0.00    +0.000 A 
ATOM     27  N   UNL     1      53.844   9.126   9.882  0.00  0.00    +0.000 NA
ATOM     28  C   UNL     1      53.733   7.839   9.922  0.00  0.00    +0.000 A 
ATOM     29  N   UNL     1      52.621   7.166  10.358  0.00  0.00    +0.000 N 
ATOM     30  C   UNL     1      51.509   7.802  10.849  0.00  0.00    +0.000 A 
ATOM     31  O   UNL     1      50.574   7.169  11.325  0.00  0.00    +0.000 OA
ATOM     32  C   UNL     1      51.564   9.250  10.786  0.00  0.00    +0.000 A 
ATOM     33  H   UNL     1      52.606   6.156  10.389  0.00  0.00    +0.000 HD
ENDBRANCH  20  23
ENDBRANCH  18  19
ENDBRANCH   4  18
TORSDOF 7
ENDMDL
MODEL 8
REMARK VINA RESULT:    -6.728      3.809      9.221
REMARK INTER + INTRA:         -10.468
REMARK INTER:                  -9.095
REMARK INTRA:                  -1.373
REMARK UNBOUND:                -0.987
REMARK  Name = 
REMARK  8 active torsions:
REMARK  status: ('A' for Active; 'I' for Inactive)
REMARK    1  A    between atoms: C_1  and  C_2
REMARK    2  A    between atoms: C_5  and  C_6
REMARK    3  A    between atoms: C_6  and  N_7
REMARK    4  A    between atoms: N_7  and  C_8
REMARK    5  A    between atoms: C_8  and  C_9
REMARK    6  A    between atoms: C_12  and  C_13
REMARK    7  A    between atoms: C_13  and  N_14
REMARK    8  A    between atoms: C_15  and  C_17
REMARK                            x       y       z     vdW  Elec       q    Type
REMARK                         _______ _______ _______ _____ _____    ______ ____
ROOT
ATOM      1  C   UNL     1      49.084   5.606  19.915  0.00  0.00    +0.000 A 
ATOM      2  C   UNL     1      47.736   5.806  19.610  0.00  0.00    +0.000 A 
ATOM      3  C   UNL     1      47.170   5.149  18.522  0.00  0.00    +0.000 A 
ATOM      4  C   UNL     1      47.970   4.310  17.752  0.00  0.00    +0.000 A 
ATOM      5  N   UNL     1      49.273   4.072  18.047  0.00  0.00    +0.000 NA
ATOM      6  C   UNL     1      49.795   4.717  19.116  0.00  0.00    +0.000 A 
ENDROOT
BRANCH   1   7
ATOM      7  C   UNL     1      49.759   6.353  21.032  0.00  0.00    +0.000 C 
BRANCH   7   8
ATOM      8  N   UNL     1      49.595   7.804  20.932  0.00  0.00    +0.000 NA
ATOM      9  H   UNL     1      48.668   8.008  20.552  0.00  0.00    +0.000 HD
BRANCH   8  10
ATOM     10  C   UNL     1      50.571   8.413  20.015  0.00  0.00    +0.000 C 
BRANCH  10  15
ATOM     11  C   UNL     1      48.317   9.321  14.785  0.00  0.00    +0.000 C 
ATOM     12  C   UNL     1      48.858   9.108  16.164  0.00  0.00    +0.000 A 
ATOM     13  C   UNL     1      48.110   9.408  17.302  0.00  0.00    +0.000 A 
ATOM     14  C   UNL     1      48.661   9.190  18.562  0.00  0.00    +0.000 A 
ATOM     15  C   UNL     1      49.956   8.684  18.656  0.00  0.00    +0.000 A 
ATOM     16  N   UNL     1      50.700   8.376  17.564  0.00  0.00    +0.000 NA
ATOM     17  C   UNL     1      50.137   8.599  16.353  0.00  0.00    +0.000 A 
ENDBRANCH  10  15
ENDBRANCH   8  10
ENDBRANCH   7   8
ENDBRANCH   1   7
BRANCH   4  18
ATOM     18  C   UNL     1      47.398   3.611  16.544  0.00  0.00    +0.000 C 
BRANCH  18  19
ATOM     19  N   UNL     1      46.850   4.541  15.585  0.00  0.00    +0.000 N 
ATOM     20  C   UNL     1      46.776   4.263  14.248  0.00  0.00    +0.000 C 
ATOM     21  O   UNL     1      47.166   3.197  13.777  0.00  0.00    +0.000 OA
ATOM     22  H   UNL     1      46.767   5.499  15.908  0.00  0.00    +0.000 HD
BRANCH  20  23
ATOM     23  C   UNL     1      46.131   5.281  13.409  0.00  0.00    +0.000 A 
ATOM     24  C   UNL     1      46.806   6.460  13.117  0.00  0.00    +0.000 A 
ATOM     25  S   UNL     1      45.934   7.512  12.097  0.00  0.00    +0.000 S 
ATOM     26  C   UNL     1      44.603   6.450  12.048  0.00  0.00    +0.000 A 
ATOM     27  N   UNL     1      43.479   6.771  11.355  0.00  0.00    +0.000 NA
ATOM     28  C   UNL     1      42.537   5.889  11.428  0.00  0.00    +0.000 A 
ATOM     29  N   UNL     1      42.624   4.712  12.125  0.00  0.00    +0.000 N 
ATOM     30  C   UNL     1      43.759   4.320  12.790  0.00  0.00    +0.000 A 
ATOM     31  O   UNL     1      43.838   3.217  13.316  0.00  0.00    +0.000 OA
ATOM     32  C   UNL     1      44.834   5.295  12.774  0.00  0.00    +0.000 A 
ATOM     33  H   UNL     1      41.860   4.051  12.124  0.00  0.00    +0.000 HD
ENDBRANCH  20  23
ENDBRANCH  18  19
ENDBRANCH   4  18
TORSDOF 7
ENDMDL
MODEL 9
REMARK VINA RESULT:    -6.694      5.263      9.734
REMARK INTER + INTRA:         -10.421
REMARK INTER:                  -9.395
REMARK INTRA:                  -1.026
REMARK UNBOUND:                -0.987
REMARK  Name = 
REMARK  8 active torsions:
REMARK  status: ('A' for Active; 'I' for Inactive)
REMARK    1  A    between atoms: C_1  and  C_2
REMARK    2  A    between atoms: C_5  and  C_6
REMARK    3  A    between atoms: C_6  and  N_7
REMARK    4  A    between atoms: N_7  and  C_8
REMARK    5  A    between atoms: C_8  and  C_9
REMARK    6  A    between atoms: C_12  and  C_13
REMARK    7  A    between atoms: C_13  and  N_14
REMARK    8  A    between atoms: C_15  and  C_17
REMARK                            x       y       z     vdW  Elec       q    Type
REMARK                         _______ _______ _______ _____ _____    ______ ____
ROOT
ATOM      1  C   UNL     1      51.446   3.014  17.755  0.00  0.00    +0.000 A 
ATOM      2  C   UNL     1      50.700   1.950  17.244  0.00  0.00    +0.000 A 
ATOM      3  C   UNL     1      49.354   2.132  16.944  0.00  0.00    +0.000 A 
ATOM      4  C   UNL     1      48.776   3.377  17.173  0.00  0.00    +0.000 A 
ATOM      5  N   UNL     1      49.486   4.437  17.637  0.00  0.00    +0.000 NA
ATOM      6  C   UNL     1      50.795   4.233  17.911  0.00  0.00    +0.000 A 
ENDROOT
BRANCH   1   7
ATOM      7  C   UNL     1      52.882   2.845  18.167  0.00  0.00    +0.000 C 
BRANCH   7   8
ATOM      8  N   UNL     1      53.169   1.517  18.713  0.00  0.00    +0.000 NA
ATOM      9  H   UNL     1      53.294   1.593  19.724  0.00  0.00    +0.000 HD
BRANCH   8  10
ATOM     10  C   UNL     1      54.414   0.950  18.174  0.00  0.00    +0.000 C 
BRANCH  10  15
ATOM     11  C   UNL     1      54.211  -4.807  18.442  0.00  0.00    +0.000 C 
ATOM     12  C   UNL     1      54.296  -3.317  18.329  0.00  0.00    +0.000 A 
ATOM     13  C   UNL     1      54.954  -2.696  17.268  0.00  0.00    +0.000 A 
ATOM     14  C   UNL     1      55.003  -1.305  17.210  0.00  0.00    +0.000 A 
ATOM     15  C   UNL     1      54.398  -0.565  18.224  0.00  0.00    +0.000 A 
ATOM     16  N   UNL     1      53.744  -1.146  19.261  0.00  0.00    +0.000 NA
ATOM     17  C   UNL     1      53.714  -2.499  19.290  0.00  0.00    +0.000 A 
ENDBRANCH  10  15
ENDBRANCH   8  10
ENDBRANCH   7   8
ENDBRANCH   1   7
BRANCH   4  18
ATOM     18  C   UNL     1      47.310   3.599  16.894  0.00  0.00    +0.000 C 
BRANCH  18  19
ATOM     19  N   UNL     1      47.094   4.608  15.885  0.00  0.00    +0.000 N 
ATOM     20  C   UNL     1      47.073   4.322  14.548  0.00  0.00    +0.000 C 
ATOM     21  O   UNL     1      47.231   3.181  14.120  0.00  0.00    +0.000 OA
ATOM     22  H   UNL     1      47.219   5.566  16.195  0.00  0.00    +0.000 HD
BRANCH  20  23
ATOM     23  C   UNL     1      46.774   5.443  13.649  0.00  0.00    +0.000 A 
ATOM     24  C   UNL     1      45.614   5.421  12.885  0.00  0.00    +0.000 A 
ATOM     25  S   UNL     1      45.398   6.818  11.931  0.00  0.00    +0.000 S 
ATOM     26  C   UNL     1      46.871   7.481  12.469  0.00  0.00    +0.000 A 
ATOM     27  N   UNL     1      47.308   8.680  12.003  0.00  0.00    +0.000 NA
ATOM     28  C   UNL     1      48.455   9.048  12.472  0.00  0.00    +0.000 A 
ATOM     29  N   UNL     1      49.197   8.328  13.371  0.00  0.00    +0.000 N 
ATOM     30  C   UNL     1      48.768   7.142  13.913  0.00  0.00    +0.000 A 
ATOM     31  O   UNL     1      49.409   6.576  14.790  0.00  0.00    +0.000 OA
ATOM     32  C   UNL     1      47.504   6.662  13.388  0.00  0.00    +0.000 A 
ATOM     33  H   UNL     1      50.077   8.682  13.719  0.00  0.00    +0.000 HD
ENDBRANCH  20  23
ENDBRANCH  18  19
ENDBRANCH   4  18
TORSDOF 7
ENDMDL
