MODEL 1
REMARK VINA RESULT:    -7.873      0.000      0.000
REMARK INTER + INTRA:         -11.868
REMARK INTER:                 -10.635
REMARK INTRA:                  -1.233
REMARK UNBOUND:                -1.233
REMARK  Name = 
REMARK  6 active torsions:
REMARK  status: ('A' for Active; 'I' for Inactive)
REMARK    1  A    between atoms: C_2  and  C_26
REMARK    2  A    between atoms: N_3  and  C_4
REMARK    3  A    between atoms: C_4  and  C_5
REMARK    4  A    between atoms: C_8  and  C_9
REMARK    5  A    between atoms: C_9  and  N_10
REMARK    6  A    between atoms: C_11  and  C_13
REMARK                            x       y       z     vdW  Elec       q    Type
REMARK                         _______ _______ _______ _____ _____    ______ ____
ROOT
ATOM      1  C   UNL     1      44.861   5.822  10.869  0.00  0.00    +0.000 A 
ATOM      2  C   UNL     1      44.272   6.367  12.018  0.00  0.00    +0.000 A 
ATOM      3  C   UNL     1      45.018   7.165  12.896  0.00  0.00    +0.000 A 
ATOM      4  C   UNL     1      46.372   7.429  12.649  0.00  0.00    +0.000 A 
ATOM      5  C   UNL     1      46.944   6.899  11.489  0.00  0.00    +0.000 A 
ATOM      6  F   UNL     1      48.230   7.142  11.211  0.00  0.00    +0.000 F 
ATOM      7  C   UNL     1      46.207   6.111  10.605  0.00  0.00    +0.000 A 
ENDROOT
BRANCH   1   8
ATOM      8  C   UNL     1      44.057   4.955   9.934  0.00  0.00    +0.000 C 
BRANCH   8  11
ATOM      9  O   UNL     1      44.457   2.177  10.004  0.00  0.00    +0.000 OA
ATOM     10  C   UNL     1      45.023   2.843   9.144  0.00  0.00    +0.000 C 
ATOM     11  N   UNL     1      44.890   4.208   9.029  0.00  0.00    +0.000 N 
ATOM     12  H   UNL     1      45.370   4.660   8.258  0.00  0.00    +0.000 HD
BRANCH  10  13
ATOM     13  C   UNL     1      45.910   2.254   8.134  0.00  0.00    +0.000 A 
ATOM     14  C   UNL     1      46.430   2.958   7.061  0.00  0.00    +0.000 A 
ATOM     15  S   UNL     1      47.406   1.936   6.092  0.00  0.00    +0.000 S 
ATOM     16  C   UNL     1      47.074   0.637   7.159  0.00  0.00    +0.000 A 
ATOM     17  N   UNL     1      46.298   0.909   8.188  0.00  0.00    +0.000 NA
ENDBRANCH  10  13
ENDBRANCH   8  11
ENDBRANCH   1   8
BRANCH   4  18
ATOM     18  C   UNL     1      47.170   8.292  13.587  0.00  0.00    +0.000 C 
BRANCH  18  19
ATOM     19  N   UNL     1      47.597   7.554  14.751  0.00  0.00    +0.000 N 
ATOM     20  C   UNL     1      48.813   6.921  14.800  0.00  0.00    +0.000 C 
ATOM     21  O   UNL     1      49.612   6.962  13.869  0.00  0.00    +0.000 OA
ATOM     22  H   UNL     1      46.890   7.322  15.439  0.00  0.00    +0.000 HD
BRANCH  20  23
ATOM     23  C   UNL     1      49.136   6.242  16.061  0.00  0.00    +0.000 A 
ATOM     24  C   UNL     1      50.181   6.704  16.851  0.00  0.00    +0.000 A 
ATOM     25  S   UNL     1      50.373   5.834  18.306  0.00  0.00    +0.000 S 
ATOM     26  C   UNL     1      49.103   4.775  17.907  0.00  0.00    +0.000 A 
ATOM     27  N   UNL     1      48.752   3.757  18.737  0.00  0.00    +0.000 NA
ATOM     28  C   UNL     1      47.790   3.017  18.295  0.00  0.00    +0.000 A 
ATOM     29  N   UNL     1      47.145   3.205  17.100  0.00  0.00    +0.000 N 
ATOM     30  C   UNL     1      47.447   4.236  16.243  0.00  0.00    +0.000 A 
ATOM     31  O   UNL     1      46.820   4.402  15.202  0.00  0.00    +0.000 OA
ATOM     32  C   UNL     1      48.529   5.092  16.688  0.00  0.00    +0.000 A 
ATOM     33  H   UNL     1      46.394   2.595  16.816  0.00  0.00    +0.000 HD
ENDBRANCH  20  23
ENDBRANCH  18  19
ENDBRANCH   4  18
TORSDOF 6
ENDMDL
MODEL 2
REMARK VINA RESULT:    -7.477      2.027      2.389
REMARK INTER + INTRA:         -11.332
REMARK INTER:                 -10.287
REMARK INTRA:                  -1.045
REMARK UNBOUND:                -1.233
REMARK  Name = 
REMARK  6 active torsions:
REMARK  status: ('A' for Active; 'I' for Inactive)
REMARK    1  A    between atoms: C_2  and  C_26
REMARK    2  A    between atoms: N_3  and  C_4
REMARK    3  A    between atoms: C_4  and  C_5
REMARK    4  A    between atoms: C_8  and  C_9
REMARK    5  A    between atoms: C_9  and  N_10
REMARK    6  A    between atoms: C_11  and  C_13
REMARK                            x       y       z     vdW  Elec       q    Type
REMARK                         _______ _______ _______ _____ _____    ______ ____
ROOT
ATOM      1  C   UNL     1      44.705   4.967  11.789  0.00  0.00    +0.000 A 
ATOM      2  C   UNL     1      45.757   4.944  12.715  0.00  0.00    +0.000 A 
ATOM      3  C   UNL     1      46.346   6.135  13.162  0.00  0.00    +0.000 A 
ATOM      4  C   UNL     1      45.903   7.375  12.685  0.00  0.00    +0.000 A 
ATOM      5  C   UNL     1      44.839   7.389  11.779  0.00  0.00    +0.000 A 
ATOM      6  F   UNL     1      44.378   8.556  11.314  0.00  0.00    +0.000 F 
ATOM      7  C   UNL     1      44.241   6.210  11.336  0.00  0.00    +0.000 A 
ENDROOT
BRANCH   1   8
ATOM      8  C   UNL     1      44.083   3.684  11.305  0.00  0.00    +0.000 C 
BRANCH   8  11
ATOM      9  O   UNL     1      44.217   4.144   8.538  0.00  0.00    +0.000 OA
ATOM     10  C   UNL     1      44.927   3.278   9.037  0.00  0.00    +0.000 C 
ATOM     11  N   UNL     1      44.932   2.980  10.380  0.00  0.00    +0.000 N 
ATOM     12  H   UNL     1      45.586   2.272  10.698  0.00  0.00    +0.000 HD
BRANCH  10  13
ATOM     13  C   UNL     1      45.857   2.459   8.251  0.00  0.00    +0.000 A 
ATOM     14  C   UNL     1      46.717   2.974   7.295  0.00  0.00    +0.000 A 
ATOM     15  S   UNL     1      47.635   1.717   6.578  0.00  0.00    +0.000 S 
ATOM     16  C   UNL     1      46.834   0.584   7.582  0.00  0.00    +0.000 A 
ATOM     17  N   UNL     1      45.940   1.071   8.418  0.00  0.00    +0.000 NA
ENDBRANCH  10  13
ENDBRANCH   8  11
ENDBRANCH   1   8
BRANCH   4  18
ATOM     18  C   UNL     1      46.530   8.654  13.170  0.00  0.00    +0.000 C 
BRANCH  18  19
ATOM     19  N   UNL     1      47.045   8.514  14.511  0.00  0.00    +0.000 N 
ATOM     20  C   UNL     1      48.193   9.146  14.914  0.00  0.00    +0.000 C 
ATOM     21  O   UNL     1      48.836   9.879  14.167  0.00  0.00    +0.000 OA
ATOM     22  H   UNL     1      46.668   7.763  15.077  0.00  0.00    +0.000 HD
BRANCH  20  23
ATOM     23  C   UNL     1      48.579   8.950  16.317  0.00  0.00    +0.000 A 
ATOM     24  C   UNL     1      48.614  10.033  17.186  0.00  0.00    +0.000 A 
ATOM     25  S   UNL     1      49.023   9.611  18.788  0.00  0.00    +0.000 S 
ATOM     26  C   UNL     1      49.221   7.974  18.365  0.00  0.00    +0.000 A 
ATOM     27  N   UNL     1      49.595   7.052  19.291  0.00  0.00    +0.000 NA
ATOM     28  C   UNL     1      49.733   5.855  18.825  0.00  0.00    +0.000 A 
ATOM     29  N   UNL     1      49.527   5.496  17.519  0.00  0.00    +0.000 N 
ATOM     30  C   UNL     1      49.122   6.389  16.555  0.00  0.00    +0.000 A 
ATOM     31  O   UNL     1      48.903   6.027  15.404  0.00  0.00    +0.000 OA
ATOM     32  C   UNL     1      48.962   7.752  17.024  0.00  0.00    +0.000 A 
ATOM     33  H   UNL     1      49.644   4.541  17.219  0.00  0.00    +0.000 HD
ENDBRANCH  20  23
ENDBRANCH  18  19
ENDBRANCH   4  18
TORSDOF 6
ENDMDL
MODEL 3
REMARK VINA RESULT:    -6.778      2.008      2.224
REMARK INTER + INTRA:         -10.388
REMARK INTER:                  -9.731
REMARK INTRA:                  -0.657
REMARK UNBOUND:                -1.233
REMARK  Name = 
REMARK  6 active torsions:
REMARK  status: ('A' for Active; 'I' for Inactive)
REMARK    1  A    between atoms: C_2  and  C_26
REMARK    2  A    between atoms: N_3  and  C_4
REMARK    3  A    between atoms: C_4  and  C_5
REMARK    4  A    between atoms: C_8  and  C_9
REMARK    5  A    between atoms: C_9  and  N_10
REMARK    6  A    between atoms: C_11  and  C_13
REMARK                            x       y       z     vdW  Elec       q    Type
REMARK                         _______ _______ _______ _____ _____    ______ ____
ROOT
ATOM      1  C   UNL     1      45.262   5.322  11.606  0.00  0.00    +0.000 A 
ATOM      2  C   UNL     1      45.474   6.666  11.270  0.00  0.00    +0.000 A 
ATOM      3  C   UNL     1      46.378   7.453  11.996  0.00  0.00    +0.000 A 
ATOM      4  C   UNL     1      47.085   6.916  13.080  0.00  0.00    +0.000 A 
ATOM      5  C   UNL     1      46.883   5.569  13.394  0.00  0.00    +0.000 A 
ATOM      6  F   UNL     1      47.552   5.017  14.412  0.00  0.00    +0.000 F 
ATOM      7  C   UNL     1      45.991   4.777  12.672  0.00  0.00    +0.000 A 
ENDROOT
BRANCH   1   8
ATOM      8  C   UNL     1      44.280   4.485  10.830  0.00  0.00    +0.000 C 
BRANCH   8  11
ATOM      9  O   UNL     1      45.459   4.932   8.321  0.00  0.00    +0.000 OA
ATOM     10  C   UNL     1      45.481   3.804   8.802  0.00  0.00    +0.000 C 
ATOM     11  N   UNL     1      44.931   3.487  10.022  0.00  0.00    +0.000 N 
ATOM     12  H   UNL     1      45.037   2.531  10.348  0.00  0.00    +0.000 HD
BRANCH  10  13
ATOM     13  C   UNL     1      46.102   2.660   8.124  0.00  0.00    +0.000 A 
ATOM     14  C   UNL     1      45.841   1.339   8.447  0.00  0.00    +0.000 A 
ATOM     15  S   UNL     1      46.760   0.287   7.455  0.00  0.00    +0.000 S 
ATOM     16  C   UNL     1      47.436   1.651   6.668  0.00  0.00    +0.000 A 
ATOM     17  N   UNL     1      47.023   2.831   7.083  0.00  0.00    +0.000 NA
ENDBRANCH  10  13
ENDBRANCH   8  11
ENDBRANCH   1   8
BRANCH   4  18
ATOM     18  C   UNL     1      48.062   7.759  13.853  0.00  0.00    +0.000 C 
BRANCH  18  19
ATOM     19  N   UNL     1      47.920   7.561  15.275  0.00  0.00    +0.000 N 
ATOM     20  C   UNL     1      49.009   7.417  16.098  0.00  0.00    +0.000 C 
ATOM     21  O   UNL     1      50.161   7.467  15.676  0.00  0.00    +0.000 OA
ATOM     22  H   UNL     1      47.002   7.304  15.619  0.00  0.00    +0.000 HD
BRANCH  20  23
ATOM     23  C   UNL     1      48.720   7.264  17.529  0.00  0.00    +0.000 A 
ATOM     24  C   UNL     1      48.299   8.358  18.273  0.00  0.00    +0.000 A 
ATOM     25  S   UNL     1      47.950   7.983  19.901  0.00  0.00    +0.000 S 
ATOM     26  C   UNL     1      48.403   6.358  19.682  0.00  0.00    +0.000 A 
ATOM     27  N   UNL     1      48.359   5.473  20.714  0.00  0.00    +0.000 NA
ATOM     28  C   UNL     1      48.756   4.282  20.411  0.00  0.00    +0.000 A 
ATOM     29  N   UNL     1      49.189   3.894  19.170  0.00  0.00    +0.000 N 
ATOM     30  C   UNL     1      49.224   4.746  18.092  0.00  0.00    +0.000 A 
ATOM     31  O   UNL     1      49.575   4.356  16.984  0.00  0.00    +0.000 OA
ATOM     32  C   UNL     1      48.797   6.102  18.381  0.00  0.00    +0.000 A 
ATOM     33  H   UNL     1      49.478   2.944  18.996  0.00  0.00    +0.000 HD
ENDBRANCH  20  23
ENDBRANCH  18  19
ENDBRANCH   4  18
TORSDOF 6
ENDMDL
MODEL 4
REMARK VINA RESULT:    -6.534      1.816      2.084
REMARK INTER + INTRA:         -10.058
REMARK INTER:                  -9.097
REMARK INTRA:                  -0.962
REMARK UNBOUND:                -1.233
REMARK  Name = 
REMARK  6 active torsions:
REMARK  status: ('A' for Active; 'I' for Inactive)
REMARK    1  A    between atoms: C_2  and  C_26
REMARK    2  A    between atoms: N_3  and  C_4
REMARK    3  A    between atoms: C_4  and  C_5
REMARK    4  A    between atoms: C_8  and  C_9
REMARK    5  A    between atoms: C_9  and  N_10
REMARK    6  A    between atoms: C_11  and  C_13
REMARK                            x       y       z     vdW  Elec       q    Type
REMARK                         _______ _______ _______ _____ _____    ______ ____
ROOT
ATOM      1  C   UNL     1      45.648   5.935  11.872  0.00  0.00    +0.000 A 
ATOM      2  C   UNL     1      46.041   5.335  13.076  0.00  0.00    +0.000 A 
ATOM      3  C   UNL     1      46.946   5.975  13.934  0.00  0.00    +0.000 A 
ATOM      4  C   UNL     1      47.486   7.225  13.602  0.00  0.00    +0.000 A 
ATOM      5  C   UNL     1      47.071   7.824  12.409  0.00  0.00    +0.000 A 
ATOM      6  F   UNL     1      47.552   9.025  12.066  0.00  0.00    +0.000 F 
ATOM      7  C   UNL     1      46.164   7.199  11.554  0.00  0.00    +0.000 A 
ENDROOT
BRANCH   1   8
ATOM      8  C   UNL     1      44.684   5.237  10.949  0.00  0.00    +0.000 C 
BRANCH   8  11
ATOM      9  O   UNL     1      43.971   2.770   9.814  0.00  0.00    +0.000 OA
ATOM     10  C   UNL     1      44.923   3.390   9.353  0.00  0.00    +0.000 C 
ATOM     11  N   UNL     1      45.348   4.604   9.840  0.00  0.00    +0.000 N 
ATOM     12  H   UNL     1      46.122   5.054   9.363  0.00  0.00    +0.000 HD
BRANCH  10  13
ATOM     13  C   UNL     1      45.720   2.901   8.221  0.00  0.00    +0.000 A 
ATOM     14  C   UNL     1      46.262   1.629   8.153  0.00  0.00    +0.000 A 
ATOM     15  S   UNL     1      47.137   1.429   6.693  0.00  0.00    +0.000 S 
ATOM     16  C   UNL     1      46.735   3.036   6.254  0.00  0.00    +0.000 A 
ATOM     17  N   UNL     1      45.991   3.708   7.108  0.00  0.00    +0.000 NA
ENDBRANCH  10  13
ENDBRANCH   8  11
ENDBRANCH   1   8
BRANCH   4  18
ATOM     18  C   UNL     1      48.451   7.915  14.526  0.00  0.00    +0.000 C 
BRANCH  18  19
ATOM     19  N   UNL     1      49.393   6.984  15.098  0.00  0.00    +0.000 N 
ATOM     20  C   UNL     1      49.748   7.035  16.421  0.00  0.00    +0.000 C 
ATOM     21  O   UNL     1      49.274   7.861  17.197  0.00  0.00    +0.000 OA
ATOM     22  H   UNL     1      49.956   6.439  14.454  0.00  0.00    +0.000 HD
BRANCH  20  23
ATOM     23  C   UNL     1      50.685   6.001  16.878  0.00  0.00    +0.000 A 
ATOM     24  C   UNL     1      51.990   6.344  17.209  0.00  0.00    +0.000 A 
ATOM     25  S   UNL     1      52.918   5.031  17.779  0.00  0.00    +0.000 S 
ATOM     26  C   UNL     1      51.627   3.947  17.551  0.00  0.00    +0.000 A 
ATOM     27  N   UNL     1      51.764   2.624  17.833  0.00  0.00    +0.000 NA
ATOM     28  C   UNL     1      50.713   1.915  17.587  0.00  0.00    +0.000 A 
ATOM     29  N   UNL     1      49.536   2.409  17.088  0.00  0.00    +0.000 N 
ATOM     30  C   UNL     1      49.343   3.742  16.814  0.00  0.00    +0.000 A 
ATOM     31  O   UNL     1      48.263   4.159  16.410  0.00  0.00    +0.000 OA
ATOM     32  C   UNL     1      50.498   4.582  17.064  0.00  0.00    +0.000 A 
ATOM     33  H   UNL     1      48.747   1.803  16.925  0.00  0.00    +0.000 HD
ENDBRANCH  20  23
ENDBRANCH  18  19
ENDBRANCH   4  18
TORSDOF 6
ENDMDL
MODEL 5
REMARK VINA RESULT:    -6.533      3.640      4.990
REMARK INTER + INTRA:         -10.058
REMARK INTER:                  -8.818
REMARK INTRA:                  -1.240
REMARK UNBOUND:                -1.233
REMARK  Name = 
REMARK  6 active torsions:
REMARK  status: ('A' for Active; 'I' for Inactive)
REMARK    1  A    between atoms: C_2  and  C_26
REMARK    2  A    between atoms: N_3  and  C_4
REMARK    3  A    between atoms: C_4  and  C_5
REMARK    4  A    between atoms: C_8  and  C_9
REMARK    5  A    between atoms: C_9  and  N_10
REMARK    6  A    between atoms: C_11  and  C_13
REMARK                            x       y       z     vdW  Elec       q    Type
REMARK                         _______ _______ _______ _____ _____    ______ ____
ROOT
ATOM      1  C   UNL     1      45.039   6.450  11.593  0.00  0.00    +0.000 A 
ATOM      2  C   UNL     1      44.840   7.833  11.696  0.00  0.00    +0.000 A 
ATOM      3  C   UNL     1      45.646   8.614  12.535  0.00  0.00    +0.000 A 
ATOM      4  C   UNL     1      46.664   8.027  13.298  0.00  0.00    +0.000 A 
ATOM      5  C   UNL     1      46.869   6.650  13.173  0.00  0.00    +0.000 A 
ATOM      6  F   UNL     1      47.842   6.057  13.874  0.00  0.00    +0.000 F 
ATOM      7  C   UNL     1      46.078   5.867  12.334  0.00  0.00    +0.000 A 
ENDROOT
BRANCH   1   8
ATOM      8  C   UNL     1      44.162   5.614  10.698  0.00  0.00    +0.000 C 
BRANCH   8  11
ATOM      9  O   UNL     1      43.897   2.894  10.050  0.00  0.00    +0.000 OA
ATOM     10  C   UNL     1      44.714   3.579   9.444  0.00  0.00    +0.000 C 
ATOM     11  N   UNL     1      44.917   4.917   9.690  0.00  0.00    +0.000 N 
ATOM     12  H   UNL     1      45.590   5.402   9.105  0.00  0.00    +0.000 HD
BRANCH  10  13
ATOM     13  C   UNL     1      45.571   3.041   8.381  0.00  0.00    +0.000 A 
ATOM     14  C   UNL     1      46.023   1.732   8.343  0.00  0.00    +0.000 A 
ATOM     15  S   UNL     1      47.009   1.479   6.965  0.00  0.00    +0.000 S 
ATOM     16  C   UNL     1      46.768   3.115   6.515  0.00  0.00    +0.000 A 
ATOM     17  N   UNL     1      46.002   3.834   7.309  0.00  0.00    +0.000 NA
ENDBRANCH  10  13
ENDBRANCH   8  11
ENDBRANCH   1   8
BRANCH   4  18
ATOM     18  C   UNL     1      47.534   8.867  14.193  0.00  0.00    +0.000 C 
BRANCH  18  19
ATOM     19  N   UNL     1      48.864   9.011  13.652  0.00  0.00    +0.000 N 
ATOM     20  C   UNL     1      49.226  10.101  12.903  0.00  0.00    +0.000 C 
ATOM     21  O   UNL     1      48.449  11.022  12.666  0.00  0.00    +0.000 OA
ATOM     22  H   UNL     1      49.454   8.187  13.645  0.00  0.00    +0.000 HD
BRANCH  20  23
ATOM     23  C   UNL     1      50.622  10.139  12.451  0.00  0.00    +0.000 A 
ATOM     24  C   UNL     1      51.404  11.259  12.704  0.00  0.00    +0.000 A 
ATOM     25  S   UNL     1      53.015  11.103  12.164  0.00  0.00    +0.000 S 
ATOM     26  C   UNL     1      52.710   9.556  11.524  0.00  0.00    +0.000 A 
ATOM     27  N   UNL     1      53.687   8.855  10.889  0.00  0.00    +0.000 NA
ATOM     28  C   UNL     1      53.308   7.708  10.431  0.00  0.00    +0.000 A 
ATOM     29  N   UNL     1      52.042   7.198  10.553  0.00  0.00    +0.000 N 
ATOM     30  C   UNL     1      51.032   7.858  11.210  0.00  0.00    +0.000 A 
ATOM     31  O   UNL     1      49.921   7.353  11.340  0.00  0.00    +0.000 OA
ATOM     32  C   UNL     1      51.402   9.157  11.736  0.00  0.00    +0.000 A 
ATOM     33  H   UNL     1      51.812   6.290  10.180  0.00  0.00    +0.000 HD
ENDBRANCH  20  23
ENDBRANCH  18  19
ENDBRANCH   4  18
TORSDOF 6
ENDMDL
MODEL 6
REMARK VINA RESULT:    -6.281      4.611      7.436
REMARK INTER + INTRA:          -9.718
REMARK INTER:                  -9.067
REMARK INTRA:                  -0.651
REMARK UNBOUND:                -1.233
REMARK  Name = 
REMARK  6 active torsions:
REMARK  status: ('A' for Active; 'I' for Inactive)
REMARK    1  A    between atoms: C_2  and  C_26
REMARK    2  A    between atoms: N_3  and  C_4
REMARK    3  A    between atoms: C_4  and  C_5
REMARK    4  A    between atoms: C_8  and  C_9
REMARK    5  A    between atoms: C_9  and  N_10
REMARK    6  A    between atoms: C_11  and  C_13
REMARK                            x       y       z     vdW  Elec       q    Type
REMARK                         _______ _______ _______ _____ _____    ______ ____
ROOT
ATOM      1  C   UNL     1      50.371   8.858  11.413  0.00  0.00    +0.000 A 
ATOM      2  C   UNL     1      49.373   9.837  11.313  0.00  0.00    +0.000 A 
ATOM      3  C   UNL     1      48.072   9.584  11.770  0.00  0.00    +0.000 A 
ATOM      4  C   UNL     1      47.738   8.344  12.329  0.00  0.00    +0.000 A 
ATOM      5  C   UNL     1      48.745   7.382  12.445  0.00  0.00    +0.000 A 
ATOM      6  F   UNL     1      48.467   6.191  12.988  0.00  0.00    +0.000 F 
ATOM      7  C   UNL     1      50.044   7.627  12.001  0.00  0.00    +0.000 A 
ENDROOT
BRANCH   1   8
ATOM      8  C   UNL     1      51.764   9.130  10.910  0.00  0.00    +0.000 C 
BRANCH   8  11
ATOM      9  O   UNL     1      52.743   9.247   8.281  0.00  0.00    +0.000 OA
ATOM     10  C   UNL     1      52.762   8.178   8.881  0.00  0.00    +0.000 C 
ATOM     11  N   UNL     1      52.305   8.021  10.169  0.00  0.00    +0.000 N 
ATOM     12  H   UNL     1      52.402   7.103  10.590  0.00  0.00    +0.000 HD
BRANCH  10  13
ATOM     13  C   UNL     1      53.279   6.940   8.287  0.00  0.00    +0.000 A 
ATOM     14  C   UNL     1      54.322   6.205   8.825  0.00  0.00    +0.000 A 
ATOM     15  S   UNL     1      54.654   4.835   7.850  0.00  0.00    +0.000 S 
ATOM     16  C   UNL     1      53.396   5.310   6.788  0.00  0.00    +0.000 A 
ATOM     17  N   UNL     1      52.740   6.406   7.109  0.00  0.00    +0.000 NA
ENDBRANCH  10  13
ENDBRANCH   8  11
ENDBRANCH   1   8
BRANCH   4  18
ATOM     18  C   UNL     1      46.344   8.077  12.827  0.00  0.00    +0.000 C 
BRANCH  18  19
ATOM     19  N   UNL     1      45.898   6.754  12.464  0.00  0.00    +0.000 N 
ATOM     20  C   UNL     1      44.796   6.553  11.673  0.00  0.00    +0.000 C 
ATOM     21  O   UNL     1      44.138   7.484  11.216  0.00  0.00    +0.000 OA
ATOM     22  H   UNL     1      46.280   5.975  12.988  0.00  0.00    +0.000 HD
BRANCH  20  23
ATOM     23  C   UNL     1      44.480   5.157  11.349  0.00  0.00    +0.000 A 
ATOM     24  C   UNL     1      43.700   4.402  12.216  0.00  0.00    +0.000 A 
ATOM     25  S   UNL     1      43.382   2.824  11.650  0.00  0.00    +0.000 S 
ATOM     26  C   UNL     1      44.320   3.075  10.253  0.00  0.00    +0.000 A 
ATOM     27  N   UNL     1      44.484   2.088   9.332  0.00  0.00    +0.000 NA
ATOM     28  C   UNL     1      45.242   2.409   8.337  0.00  0.00    +0.000 A 
ATOM     29  N   UNL     1      45.849   3.628   8.177  0.00  0.00    +0.000 N 
ATOM     30  C   UNL     1      45.689   4.663   9.068  0.00  0.00    +0.000 A 
ATOM     31  O   UNL     1      46.210   5.756   8.873  0.00  0.00    +0.000 OA
ATOM     32  C   UNL     1      44.854   4.351  10.211  0.00  0.00    +0.000 A 
ATOM     33  H   UNL     1      46.423   3.819   7.371  0.00  0.00    +0.000 HD
ENDBRANCH  20  23
ENDBRANCH  18  19
ENDBRANCH   4  18
TORSDOF 6
ENDMDL
MODEL 7
REMARK VINA RESULT:    -6.216      1.887      2.626
REMARK INTER + INTRA:          -9.630
REMARK INTER:                  -8.469
REMARK INTRA:                  -1.161
REMARK UNBOUND:                -1.233
REMARK  Name = 
REMARK  6 active torsions:
REMARK  status: ('A' for Active; 'I' for Inactive)
REMARK    1  A    between atoms: C_2  and  C_26
REMARK    2  A    between atoms: N_3  and  C_4
REMARK    3  A    between atoms: C_4  and  C_5
REMARK    4  A    between atoms: C_8  and  C_9
REMARK    5  A    between atoms: C_9  and  N_10
REMARK    6  A    between atoms: C_11  and  C_13
REMARK                            x       y       z     vdW  Elec       q    Type
REMARK                         _______ _______ _______ _____ _____    ______ ____
ROOT
ATOM      1  C   UNL     1      46.289   7.805  12.108  0.00  0.00    +0.000 A 
ATOM      2  C   UNL     1      46.236   8.633  13.237  0.00  0.00    +0.000 A 
ATOM      3  C   UNL     1      47.389   8.894  13.990  0.00  0.00    +0.000 A 
ATOM      4  C   UNL     1      48.619   8.324  13.636  0.00  0.00    +0.000 A 
ATOM      5  C   UNL     1      48.666   7.518  12.495  0.00  0.00    +0.000 A 
ATOM      6  F   UNL     1      49.826   6.969  12.116  0.00  0.00    +0.000 F 
ATOM      7  C   UNL     1      47.526   7.261  11.735  0.00  0.00    +0.000 A 
ENDROOT
BRANCH   1   8
ATOM      8  C   UNL     1      45.044   7.520  11.308  0.00  0.00    +0.000 C 
BRANCH   8  11
ATOM      9  O   UNL     1      43.590   5.136  11.595  0.00  0.00    +0.000 OA
ATOM     10  C   UNL     1      44.422   5.227  10.699  0.00  0.00    +0.000 C 
ATOM     11  N   UNL     1      45.182   6.352  10.479  0.00  0.00    +0.000 N 
ATOM     12  H   UNL     1      45.815   6.340   9.686  0.00  0.00    +0.000 HD
BRANCH  10  13
ATOM     13  C   UNL     1      44.698   4.139   9.754  0.00  0.00    +0.000 A 
ATOM     14  C   UNL     1      44.617   2.795  10.081  0.00  0.00    +0.000 A 
ATOM     15  S   UNL     1      45.024   1.825   8.729  0.00  0.00    +0.000 S 
ATOM     16  C   UNL     1      45.277   3.247   7.808  0.00  0.00    +0.000 A 
ATOM     17  N   UNL     1      45.073   4.391   8.428  0.00  0.00    +0.000 NA
ENDBRANCH  10  13
ENDBRANCH   8  11
ENDBRANCH   1   8
BRANCH   4  18
ATOM     18  C   UNL     1      49.858   8.610  14.440  0.00  0.00    +0.000 C 
BRANCH  18  19
ATOM     19  N   UNL     1      49.932   7.773  15.612  0.00  0.00    +0.000 N 
ATOM     20  C   UNL     1      49.519   8.215  16.843  0.00  0.00    +0.000 C 
ATOM     21  O   UNL     1      49.049   9.337  17.014  0.00  0.00    +0.000 OA
ATOM     22  H   UNL     1      50.502   6.938  15.552  0.00  0.00    +0.000 HD
BRANCH  20  23
ATOM     23  C   UNL     1      49.612   7.245  17.942  0.00  0.00    +0.000 A 
ATOM     24  C   UNL     1      50.189   7.617  19.149  0.00  0.00    +0.000 A 
ATOM     25  S   UNL     1      50.156   6.386  20.330  0.00  0.00    +0.000 S 
ATOM     26  C   UNL     1      49.418   5.295  19.252  0.00  0.00    +0.000 A 
ATOM     27  N   UNL     1      49.125   4.023  19.633  0.00  0.00    +0.000 NA
ATOM     28  C   UNL     1      48.593   3.298  18.706  0.00  0.00    +0.000 A 
ATOM     29  N   UNL     1      48.323   3.731  17.434  0.00  0.00    +0.000 N 
ATOM     30  C   UNL     1      48.577   5.015  17.013  0.00  0.00    +0.000 A 
ATOM     31  O   UNL     1      48.282   5.383  15.881  0.00  0.00    +0.000 OA
ATOM     32  C   UNL     1      49.185   5.869  18.015  0.00  0.00    +0.000 A 
ATOM     33  H   UNL     1      47.898   3.117  16.757  0.00  0.00    +0.000 HD
ENDBRANCH  20  23
ENDBRANCH  18  19
ENDBRANCH   4  18
TORSDOF 6
ENDMDL
MODEL 8
REMARK VINA RESULT:    -6.206      5.511      7.956
REMARK INTER + INTRA:          -9.616
REMARK INTER:                  -8.642
REMARK INTRA:                  -0.974
REMARK UNBOUND:                -1.233
REMARK  Name = 
REMARK  6 active torsions:
REMARK  status: ('A' for Active; 'I' for Inactive)
REMARK    1  A    between atoms: C_2  and  C_26
REMARK    2  A    between atoms: N_3  and  C_4
REMARK    3  A    between atoms: C_4  and  C_5
REMARK    4  A    between atoms: C_8  and  C_9
REMARK    5  A    between atoms: C_9  and  N_10
REMARK    6  A    between atoms: C_11  and  C_13
REMARK                            x       y       z     vdW  Elec       q    Type
REMARK                         _______ _______ _______ _____ _____    ______ ____
ROOT
ATOM      1  C   UNL     1      48.931   6.927  13.862  0.00  0.00    +0.000 A 
ATOM      2  C   UNL     1      48.921   6.938  12.461  0.00  0.00    +0.000 A 
ATOM      3  C   UNL     1      49.854   7.698  11.743  0.00  0.00    +0.000 A 
ATOM      4  C   UNL     1      50.812   8.472  12.410  0.00  0.00    +0.000 A 
ATOM      5  C   UNL     1      50.828   8.437  13.807  0.00  0.00    +0.000 A 
ATOM      6  F   UNL     1      51.739   9.151  14.480  0.00  0.00    +0.000 F 
ATOM      7  C   UNL     1      49.909   7.677  14.530  0.00  0.00    +0.000 A 
ENDROOT
BRANCH   1   8
ATOM      8  C   UNL     1      47.918   6.117  14.629  0.00  0.00    +0.000 C 
BRANCH   8  11
ATOM      9  O   UNL     1      47.400   3.472  13.842  0.00  0.00    +0.000 OA
ATOM     10  C   UNL     1      46.649   4.366  13.470  0.00  0.00    +0.000 C 
ATOM     11  N   UNL     1      46.820   5.690  13.802  0.00  0.00    +0.000 N 
ATOM     12  H   UNL     1      46.119   6.348  13.476  0.00  0.00    +0.000 HD
BRANCH  10  13
ATOM     13  C   UNL     1      45.475   4.122  12.623  0.00  0.00    +0.000 A 
ATOM     14  C   UNL     1      45.191   4.841  11.474  0.00  0.00    +0.000 A 
ATOM     15  S   UNL     1      43.735   4.281  10.764  0.00  0.00    +0.000 S 
ATOM     16  C   UNL     1      43.585   3.129  12.023  0.00  0.00    +0.000 A 
ATOM     17  N   UNL     1      44.542   3.123  12.928  0.00  0.00    +0.000 NA
ENDBRANCH  10  13
ENDBRANCH   8  11
ENDBRANCH   1   8
BRANCH   4  18
ATOM     18  C   UNL     1      51.819   9.281  11.639  0.00  0.00    +0.000 C 
BRANCH  18  19
ATOM     19  N   UNL     1      52.029   8.743  10.317  0.00  0.00    +0.000 N 
ATOM     20  C   UNL     1      53.138   9.060   9.575  0.00  0.00    +0.000 C 
ATOM     21  O   UNL     1      54.020   9.802   9.998  0.00  0.00    +0.000 OA
ATOM     22  H   UNL     1      51.235   8.309   9.861  0.00  0.00    +0.000 HD
BRANCH  20  23
ATOM     23  C   UNL     1      53.244   8.409   8.264  0.00  0.00    +0.000 A 
ATOM     24  C   UNL     1      53.156   9.167   7.103  0.00  0.00    +0.000 A 
ATOM     25  S   UNL     1      53.363   8.256   5.675  0.00  0.00    +0.000 S 
ATOM     26  C   UNL     1      53.522   6.808   6.555  0.00  0.00    +0.000 A 
ATOM     27  N   UNL     1      53.707   5.620   5.921  0.00  0.00    +0.000 NA
ATOM     28  C   UNL     1      53.784   4.601   6.711  0.00  0.00    +0.000 A 
ATOM     29  N   UNL     1      53.697   4.663   8.077  0.00  0.00    +0.000 N 
ATOM     30  C   UNL     1      53.539   5.845   8.761  0.00  0.00    +0.000 A 
ATOM     31  O   UNL     1      53.509   5.871   9.987  0.00  0.00    +0.000 OA
ATOM     32  C   UNL     1      53.436   7.021   7.919  0.00  0.00    +0.000 A 
ATOM     33  H   UNL     1      53.773   3.830   8.640  0.00  0.00    +0.000 HD
ENDBRANCH  20  23
ENDBRANCH  18  19
ENDBRANCH   4  18
TORSDOF 6
ENDMDL
MODEL 9
REMARK VINA RESULT:    -5.825      3.744      5.226
REMARK INTER + INTRA:          -9.102
REMARK INTER:                  -8.140
REMARK INTRA:                  -0.961
REMARK UNBOUND:                -1.233
REMARK  Name = 
REMARK  6 active torsions:
REMARK  status: ('A' for Active; 'I' for Inactive)
REMARK    1  A    between atoms: C_2  and  C_26
REMARK    2  A    between atoms: N_3  and  C_4
REMARK    3  A    between atoms: C_4  and  C_5
REMARK    4  A    between atoms: C_8  and  C_9
REMARK    5  A    between atoms: C_9  and  N_10
REMARK    6  A    between atoms: C_11  and  C_13
REMARK                            x       y       z     vdW  Elec       q    Type
REMARK                         _______ _______ _______ _____ _____    ______ ____
ROOT
ATOM      1  C   UNL     1      48.840   7.578  13.252  0.00  0.00    +0.000 A 
ATOM      2  C   UNL     1      49.917   8.453  13.449  0.00  0.00    +0.000 A 
ATOM      3  C   UNL     1      50.523   8.573  14.707  0.00  0.00    +0.000 A 
ATOM      4  C   UNL     1      50.059   7.828  15.799  0.00  0.00    +0.000 A 
ATOM      5  C   UNL     1      48.999   6.942  15.588  0.00  0.00    +0.000 A 
ATOM      6  F   UNL     1      48.538   6.202  16.603  0.00  0.00    +0.000 F 
ATOM      7  C   UNL     1      48.396   6.809  14.338  0.00  0.00    +0.000 A 
ENDROOT
BRANCH   1   8
ATOM      8  C   UNL     1      48.186   7.460  11.901  0.00  0.00    +0.000 C 
BRANCH   8  11
ATOM      9  O   UNL     1      45.515   8.112  12.473  0.00  0.00    +0.000 OA
ATOM     10  C   UNL     1      45.805   6.952  12.199  0.00  0.00    +0.000 C 
ATOM     11  N   UNL     1      47.083   6.536  11.905  0.00  0.00    +0.000 N 
ATOM     12  H   UNL     1      47.210   5.561  11.653  0.00  0.00    +0.000 HD
BRANCH  10  13
ATOM     13  C   UNL     1      44.812   5.872  12.153  0.00  0.00    +0.000 A 
ATOM     14  C   UNL     1      44.655   5.016  11.075  0.00  0.00    +0.000 A 
ATOM     15  S   UNL     1      43.392   3.898  11.378  0.00  0.00    +0.000 S 
ATOM     16  C   UNL     1      43.143   4.624  12.911  0.00  0.00    +0.000 A 
ATOM     17  N   UNL     1      43.935   5.630  13.219  0.00  0.00    +0.000 NA
ENDBRANCH  10  13
ENDBRANCH   8  11
ENDBRANCH   1   8
BRANCH   4  18
ATOM     18  C   UNL     1      50.714   7.952  17.148  0.00  0.00    +0.000 C 
BRANCH  18  19
ATOM     19  N   UNL     1      51.525   6.797  17.449  0.00  0.00    +0.000 N 
ATOM     20  C   UNL     1      51.219   5.948  18.482  0.00  0.00    +0.000 C 
ATOM     21  O   UNL     1      50.232   6.111  19.195  0.00  0.00    +0.000 OA
ATOM     22  H   UNL     1      52.445   6.753  17.028  0.00  0.00    +0.000 HD
BRANCH  20  23
ATOM     23  C   UNL     1      52.105   4.790  18.650  0.00  0.00    +0.000 A 
ATOM     24  C   UNL     1      53.308   4.930  19.331  0.00  0.00    +0.000 A 
ATOM     25  S   UNL     1      54.179   3.470  19.485  0.00  0.00    +0.000 S 
ATOM     26  C   UNL     1      53.007   2.612  18.598  0.00  0.00    +0.000 A 
ATOM     27  N   UNL     1      53.155   1.285  18.342  0.00  0.00    +0.000 NA
ATOM     28  C   UNL     1      52.204   0.769  17.637  0.00  0.00    +0.000 A 
ATOM     29  N   UNL     1      51.116   1.459  17.168  0.00  0.00    +0.000 N 
ATOM     30  C   UNL     1      50.912   2.794  17.426  0.00  0.00    +0.000 A 
ATOM     31  O   UNL     1      49.905   3.371  17.028  0.00  0.00    +0.000 OA
ATOM     32  C   UNL     1      51.958   3.425  18.207  0.00  0.00    +0.000 A 
ATOM     33  H   UNL     1      50.402   0.996  16.628  0.00  0.00    +0.000 HD
ENDBRANCH  20  23
ENDBRANCH  18  19
ENDBRANCH   4  18
TORSDOF 6
ENDMDL
