MODEL 1
REMARK VINA RESULT:    -8.184      0.000      0.000
REMARK INTER + INTRA:         -12.845
REMARK INTER:                 -11.534
REMARK INTRA:                  -1.312
REMARK UNBOUND:                -1.312
REMARK  Name = 
REMARK  8 active torsions:
REMARK  status: ('A' for Active; 'I' for Inactive)
REMARK    1  A    between atoms: C_1  and  O_2
REMARK    2  A    between atoms: O_2  and  C_3
REMARK    3  A    between atoms: C_5  and  C_6
REMARK    4  A    between atoms: C_6  and  N_7
REMARK    5  A    between atoms: C_8  and  C_10
REMARK    6  A    between atoms: C_22  and  C_23
REMARK    7  A    between atoms: C_23  and  N_24
REMARK    8  A    between atoms: C_25  and  C_27
REMARK                            x       y       z     vdW  Elec       q    Type
REMARK                         _______ _______ _______ _____ _____    ______ ____
ROOT
ATOM      1  C   UNL     1      44.300   6.001  12.034  0.00  0.00    +0.000 A 
ATOM      2  C   UNL     1      45.044   6.812  12.899  0.00  0.00    +0.000 A 
ATOM      3  C   UNL     1      46.315   7.284  12.541  0.00  0.00    +0.000 A 
ATOM      4  C   UNL     1      46.836   6.945  11.290  0.00  0.00    +0.000 A 
ATOM      5  C   UNL     1      46.106   6.129  10.424  0.00  0.00    +0.000 A 
ATOM      6  C   UNL     1      44.839   5.638  10.788  0.00  0.00    +0.000 A 
ENDROOT
BRANCH   1   8
ATOM      7  C   UNL     1      43.022   4.415  13.258  0.00  0.00    +0.000 C 
ATOM      8  O   UNL     1      43.059   5.503  12.338  0.00  0.00    +0.000 OA
ENDBRANCH   1   8
BRANCH   3   9
ATOM      9  C   UNL     1      47.075   8.176  13.487  0.00  0.00    +0.000 C 
BRANCH   9  10
ATOM     10  N   UNL     1      47.524   7.447  14.647  0.00  0.00    +0.000 N 
ATOM     11  C   UNL     1      48.770   6.884  14.738  0.00  0.00    +0.000 C 
ATOM     12  O   UNL     1      49.596   6.968  13.833  0.00  0.00    +0.000 OA
ATOM     13  H   UNL     1      46.808   7.184  15.317  0.00  0.00    +0.000 HD
BRANCH  11  14
ATOM     14  C   UNL     1      49.100   6.231  16.013  0.00  0.00    +0.000 A 
ATOM     15  C   UNL     1      50.132   6.734  16.794  0.00  0.00    +0.000 A 
ATOM     16  S   UNL     1      50.362   5.891  18.257  0.00  0.00    +0.000 S 
ATOM     17  C   UNL     1      49.120   4.792  17.881  0.00  0.00    +0.000 A 
ATOM     18  N   UNL     1      48.811   3.772  18.728  0.00  0.00    +0.000 NA
ATOM     19  C   UNL     1      47.875   2.991  18.303  0.00  0.00    +0.000 A 
ATOM     20  N   UNL     1      47.210   3.144  17.114  0.00  0.00    +0.000 N 
ATOM     21  C   UNL     1      47.444   4.195  16.258  0.00  0.00    +0.000 A 
ATOM     22  O   UNL     1      46.756   4.363  15.256  0.00  0.00    +0.000 OA
ATOM     23  C   UNL     1      48.519   5.079  16.668  0.00  0.00    +0.000 A 
ATOM     24  H   UNL     1      46.468   2.511  16.852  0.00  0.00    +0.000 HD
ENDBRANCH  11  14
ENDBRANCH   9  10
ENDBRANCH   3   9
BRANCH   6  25
ATOM     25  C   UNL     1      44.080   4.789   9.796  0.00  0.00    +0.000 C 
BRANCH  25  26
ATOM     26  N   UNL     1      44.962   4.288   8.767  0.00  0.00    +0.000 N 
ATOM     27  C   UNL     1      45.424   2.992   8.742  0.00  0.00    +0.000 C 
ATOM     28  O   UNL     1      45.180   2.181   9.628  0.00  0.00    +0.000 OA
ATOM     29  H   UNL     1      45.101   4.850   7.937  0.00  0.00    +0.000 HD
BRANCH  27  30
ATOM     30  C   UNL     1      46.234   2.684   7.575  0.00  0.00    +0.000 A 
ATOM     31  C   UNL     1      46.394   3.351   6.375  0.00  0.00    +0.000 A 
ATOM     32  C   UNL     1      47.292   2.579   5.593  0.00  0.00    +0.000 A 
ATOM     33  C   UNL     1      47.627   1.492   6.363  0.00  0.00    +0.000 A 
ATOM     34  O   UNL     1      46.999   1.545   7.567  0.00  0.00    +0.000 OA
ENDBRANCH  27  30
ENDBRANCH  25  26
ENDBRANCH   6  25
TORSDOF 7
ENDMDL
MODEL 2
REMARK VINA RESULT:    -8.072      2.046      2.545
REMARK INTER + INTRA:         -12.687
REMARK INTER:                 -11.277
REMARK INTRA:                  -1.410
REMARK UNBOUND:                -1.312
REMARK  Name = 
REMARK  8 active torsions:
REMARK  status: ('A' for Active; 'I' for Inactive)
REMARK    1  A    between atoms: C_1  and  O_2
REMARK    2  A    between atoms: O_2  and  C_3
REMARK    3  A    between atoms: C_5  and  C_6
REMARK    4  A    between atoms: C_6  and  N_7
REMARK    5  A    between atoms: C_8  and  C_10
REMARK    6  A    between atoms: C_22  and  C_23
REMARK    7  A    between atoms: C_23  and  N_24
REMARK    8  A    between atoms: C_25  and  C_27
REMARK                            x       y       z     vdW  Elec       q    Type
REMARK                         _______ _______ _______ _____ _____    ______ ____
ROOT
ATOM      1  C   UNL     1      45.660   4.881  12.763  0.00  0.00    +0.000 A 
ATOM      2  C   UNL     1      46.264   6.074  13.176  0.00  0.00    +0.000 A 
ATOM      3  C   UNL     1      45.944   7.298  12.571  0.00  0.00    +0.000 A 
ATOM      4  C   UNL     1      44.995   7.321  11.547  0.00  0.00    +0.000 A 
ATOM      5  C   UNL     1      44.394   6.135  11.121  0.00  0.00    +0.000 A 
ATOM      6  C   UNL     1      44.727   4.902  11.712  0.00  0.00    +0.000 A 
ENDROOT
BRANCH   1   8
ATOM      7  C   UNL     1      47.160   3.559  14.048  0.00  0.00    +0.000 C 
ATOM      8  O   UNL     1      45.943   3.656  13.311  0.00  0.00    +0.000 OA
ENDBRANCH   1   8
BRANCH   3   9
ATOM      9  C   UNL     1      46.594   8.566  13.060  0.00  0.00    +0.000 C 
BRANCH   9  10
ATOM     10  N   UNL     1      47.045   8.430  14.423  0.00  0.00    +0.000 N 
ATOM     11  C   UNL     1      48.066   9.177  14.949  0.00  0.00    +0.000 C 
ATOM     12  O   UNL     1      48.669  10.021  14.290  0.00  0.00    +0.000 OA
ATOM     13  H   UNL     1      46.716   7.612  14.925  0.00  0.00    +0.000 HD
BRANCH  11  14
ATOM     14  C   UNL     1      48.363   8.967  16.373  0.00  0.00    +0.000 A 
ATOM     15  C   UNL     1      48.193  10.015  17.269  0.00  0.00    +0.000 A 
ATOM     16  S   UNL     1      48.539   9.600  18.886  0.00  0.00    +0.000 S 
ATOM     17  C   UNL     1      48.973   8.016  18.443  0.00  0.00    +0.000 A 
ATOM     18  N   UNL     1      49.402   7.124  19.376  0.00  0.00    +0.000 NA
ATOM     19  C   UNL     1      49.733   5.970  18.900  0.00  0.00    +0.000 A 
ATOM     20  N   UNL     1      49.664   5.625  17.575  0.00  0.00    +0.000 N 
ATOM     21  C   UNL     1      49.177   6.471  16.607  0.00  0.00    +0.000 A 
ATOM     22  O   UNL     1      49.025   6.093  15.450  0.00  0.00    +0.000 OA
ATOM     23  C   UNL     1      48.831   7.798  17.084  0.00  0.00    +0.000 A 
ATOM     24  H   UNL     1      49.914   4.695  17.270  0.00  0.00    +0.000 HD
ENDBRANCH  11  14
ENDBRANCH   9  10
ENDBRANCH   3   9
BRANCH   6  25
ATOM     25  C   UNL     1      44.019   3.657  11.235  0.00  0.00    +0.000 C 
BRANCH  25  26
ATOM     26  N   UNL     1      44.855   2.908  10.324  0.00  0.00    +0.000 N 
ATOM     27  C   UNL     1      44.918   3.172   8.975  0.00  0.00    +0.000 C 
ATOM     28  O   UNL     1      44.218   4.019   8.430  0.00  0.00    +0.000 OA
ATOM     29  H   UNL     1      45.555   2.288  10.712  0.00  0.00    +0.000 HD
BRANCH  27  30
ATOM     30  C   UNL     1      45.882   2.349   8.263  0.00  0.00    +0.000 A 
ATOM     31  C   UNL     1      46.866   2.683   7.352  0.00  0.00    +0.000 A 
ATOM     32  C   UNL     1      47.493   1.470   6.964  0.00  0.00    +0.000 A 
ATOM     33  C   UNL     1      46.855   0.473   7.662  0.00  0.00    +0.000 A 
ATOM     34  O   UNL     1      45.882   0.992   8.456  0.00  0.00    +0.000 OA
ENDBRANCH  27  30
ENDBRANCH  25  26
ENDBRANCH   6  25
TORSDOF 7
ENDMDL
MODEL 3
REMARK VINA RESULT:    -8.058      1.479      1.612
REMARK INTER + INTRA:         -12.667
REMARK INTER:                 -11.710
REMARK INTRA:                  -0.957
REMARK UNBOUND:                -1.312
REMARK  Name = 
REMARK  8 active torsions:
REMARK  status: ('A' for Active; 'I' for Inactive)
REMARK    1  A    between atoms: C_1  and  O_2
REMARK    2  A    between atoms: O_2  and  C_3
REMARK    3  A    between atoms: C_5  and  C_6
REMARK    4  A    between atoms: C_6  and  N_7
REMARK    5  A    between atoms: C_8  and  C_10
REMARK    6  A    between atoms: C_22  and  C_23
REMARK    7  A    between atoms: C_23  and  N_24
REMARK    8  A    between atoms: C_25  and  C_27
REMARK                            x       y       z     vdW  Elec       q    Type
REMARK                         _______ _______ _______ _____ _____    ______ ____
ROOT
ATOM      1  C   UNL     1      44.605   5.697  11.813  0.00  0.00    +0.000 A 
ATOM      2  C   UNL     1      45.375   6.727  12.366  0.00  0.00    +0.000 A 
ATOM      3  C   UNL     1      46.521   6.452  13.125  0.00  0.00    +0.000 A 
ATOM      4  C   UNL     1      46.903   5.122  13.318  0.00  0.00    +0.000 A 
ATOM      5  C   UNL     1      46.137   4.087  12.779  0.00  0.00    +0.000 A 
ATOM      6  C   UNL     1      44.975   4.359  12.034  0.00  0.00    +0.000 A 
ENDROOT
BRANCH   1   8
ATOM      7  C   UNL     1      42.231   5.803  11.771  0.00  0.00    +0.000 C 
ATOM      8  O   UNL     1      43.470   5.909  11.073  0.00  0.00    +0.000 OA
ENDBRANCH   1   8
BRANCH   3   9
ATOM      9  C   UNL     1      47.340   7.587  13.682  0.00  0.00    +0.000 C 
BRANCH   9  10
ATOM     10  N   UNL     1      47.830   7.280  15.002  0.00  0.00    +0.000 N 
ATOM     11  C   UNL     1      49.146   7.003  15.264  0.00  0.00    +0.000 C 
ATOM     12  O   UNL     1      50.004   7.002  14.385  0.00  0.00    +0.000 OA
ATOM     13  H   UNL     1      47.128   7.071  15.704  0.00  0.00    +0.000 HD
BRANCH  11  14
ATOM     14  C   UNL     1      49.498   6.775  16.673  0.00  0.00    +0.000 A 
ATOM     15  C   UNL     1      50.440   7.591  17.284  0.00  0.00    +0.000 A 
ATOM     16  S   UNL     1      50.707   7.224  18.927  0.00  0.00    +0.000 S 
ATOM     17  C   UNL     1      49.605   5.929  18.872  0.00  0.00    +0.000 A 
ATOM     18  N   UNL     1      49.378   5.159  19.970  0.00  0.00    +0.000 NA
ATOM     19  C   UNL     1      48.547   4.189  19.780  0.00  0.00    +0.000 A 
ATOM     20  N   UNL     1      47.913   3.926  18.593  0.00  0.00    +0.000 N 
ATOM     21  C   UNL     1      48.063   4.715  17.476  0.00  0.00    +0.000 A 
ATOM     22  O   UNL     1      47.398   4.516  16.465  0.00  0.00    +0.000 OA
ATOM     23  C   UNL     1      49.022   5.795  17.624  0.00  0.00    +0.000 A 
ATOM     24  H   UNL     1      47.254   3.166  18.518  0.00  0.00    +0.000 HD
ENDBRANCH  11  14
ENDBRANCH   9  10
ENDBRANCH   3   9
BRANCH   6  25
ATOM     25  C   UNL     1      44.206   3.201  11.445  0.00  0.00    +0.000 C 
BRANCH  25  26
ATOM     26  N   UNL     1      44.982   2.535  10.424  0.00  0.00    +0.000 N 
ATOM     27  C   UNL     1      45.048   2.978   9.123  0.00  0.00    +0.000 C 
ATOM     28  O   UNL     1      44.396   3.933   8.712  0.00  0.00    +0.000 OA
ATOM     29  H   UNL     1      45.646   1.826  10.710  0.00  0.00    +0.000 HD
BRANCH  27  30
ATOM     30  C   UNL     1      45.949   2.204   8.286  0.00  0.00    +0.000 A 
ATOM     31  C   UNL     1      46.832   2.593   7.296  0.00  0.00    +0.000 A 
ATOM     32  C   UNL     1      47.437   1.410   6.799  0.00  0.00    +0.000 A 
ATOM     33  C   UNL     1      46.890   0.373   7.516  0.00  0.00    +0.000 A 
ATOM     34  O   UNL     1      45.992   0.840   8.423  0.00  0.00    +0.000 OA
ENDBRANCH  27  30
ENDBRANCH  25  26
ENDBRANCH   6  25
TORSDOF 7
ENDMDL
MODEL 4
REMARK VINA RESULT:    -7.641      2.265      3.818
REMARK INTER + INTRA:         -12.079
REMARK INTER:                 -10.789
REMARK INTRA:                  -1.290
REMARK UNBOUND:                -1.312
REMARK  Name = 
REMARK  8 active torsions:
REMARK  status: ('A' for Active; 'I' for Inactive)
REMARK    1  A    between atoms: C_1  and  O_2
REMARK    2  A    between atoms: O_2  and  C_3
REMARK    3  A    between atoms: C_5  and  C_6
REMARK    4  A    between atoms: C_6  and  N_7
REMARK    5  A    between atoms: C_8  and  C_10
REMARK    6  A    between atoms: C_22  and  C_23
REMARK    7  A    between atoms: C_23  and  N_24
REMARK    8  A    between atoms: C_25  and  C_27
REMARK                            x       y       z     vdW  Elec       q    Type
REMARK                         _______ _______ _______ _____ _____    ______ ____
ROOT
ATOM      1  C   UNL     1      44.800   5.621  12.228  0.00  0.00    +0.000 A 
ATOM      2  C   UNL     1      45.594   5.636  13.381  0.00  0.00    +0.000 A 
ATOM      3  C   UNL     1      46.209   4.470  13.856  0.00  0.00    +0.000 A 
ATOM      4  C   UNL     1      46.033   3.275  13.152  0.00  0.00    +0.000 A 
ATOM      5  C   UNL     1      45.235   3.248  12.007  0.00  0.00    +0.000 A 
ATOM      6  C   UNL     1      44.600   4.412  11.539  0.00  0.00    +0.000 A 
ENDROOT
BRANCH   1   8
ATOM      7  C   UNL     1      44.991   7.857  11.447  0.00  0.00    +0.000 C 
ATOM      8  O   UNL     1      44.166   6.729  11.726  0.00  0.00    +0.000 OA
ENDBRANCH   1   8
BRANCH   3   9
ATOM      9  C   UNL     1      47.079   4.529  15.085  0.00  0.00    +0.000 C 
BRANCH   9  10
ATOM     10  N   UNL     1      47.783   5.785  15.166  0.00  0.00    +0.000 N 
ATOM     11  C   UNL     1      48.878   5.976  15.967  0.00  0.00    +0.000 C 
ATOM     12  O   UNL     1      49.338   5.082  16.673  0.00  0.00    +0.000 OA
ATOM     13  H   UNL     1      47.313   6.590  14.763  0.00  0.00    +0.000 HD
BRANCH  11  14
ATOM     14  C   UNL     1      49.523   7.294  15.888  0.00  0.00    +0.000 A 
ATOM     15  C   UNL     1      49.814   7.985  17.056  0.00  0.00    +0.000 A 
ATOM     16  S   UNL     1      50.597   9.477  16.797  0.00  0.00    +0.000 S 
ATOM     17  C   UNL     1      50.537   9.276  15.109  0.00  0.00    +0.000 A 
ATOM     18  N   UNL     1      51.028  10.232  14.275  0.00  0.00    +0.000 NA
ATOM     19  C   UNL     1      50.886   9.969  13.019  0.00  0.00    +0.000 A 
ATOM     20  N   UNL     1      50.305   8.831  12.521  0.00  0.00    +0.000 N 
ATOM     21  C   UNL     1      49.853   7.811  13.324  0.00  0.00    +0.000 A 
ATOM     22  O   UNL     1      49.440   6.760  12.844  0.00  0.00    +0.000 OA
ATOM     23  C   UNL     1      49.951   8.075  14.748  0.00  0.00    +0.000 A 
ATOM     24  H   UNL     1      50.248   8.675  11.525  0.00  0.00    +0.000 HD
ENDBRANCH  11  14
ENDBRANCH   9  10
ENDBRANCH   3   9
BRANCH   6  25
ATOM     25  C   UNL     1      43.778   4.330  10.275  0.00  0.00    +0.000 C 
BRANCH  25  26
ATOM     26  N   UNL     1      44.509   3.647   9.231  0.00  0.00    +0.000 N 
ATOM     27  C   UNL     1      45.538   4.232   8.530  0.00  0.00    +0.000 C 
ATOM     28  O   UNL     1      45.870   5.402   8.688  0.00  0.00    +0.000 OA
ATOM     29  H   UNL     1      44.386   2.647   9.134  0.00  0.00    +0.000 HD
BRANCH  27  30
ATOM     30  C   UNL     1      46.182   3.338   7.583  0.00  0.00    +0.000 A 
ATOM     31  C   UNL     1      46.582   2.020   7.702  0.00  0.00    +0.000 A 
ATOM     32  C   UNL     1      47.178   1.658   6.467  0.00  0.00    +0.000 A 
ATOM     33  C   UNL     1      47.103   2.775   5.669  0.00  0.00    +0.000 A 
ATOM     34  O   UNL     1      46.499   3.796   6.330  0.00  0.00    +0.000 OA
ENDBRANCH  27  30
ENDBRANCH  25  26
ENDBRANCH   6  25
TORSDOF 7
ENDMDL
MODEL 5
REMARK VINA RESULT:    -7.368      2.802      3.531
REMARK INTER + INTRA:         -11.695
REMARK INTER:                 -10.440
REMARK INTRA:                  -1.255
REMARK UNBOUND:                -1.312
REMARK  Name = 
REMARK  8 active torsions:
REMARK  status: ('A' for Active; 'I' for Inactive)
REMARK    1  A    between atoms: C_1  and  O_2
REMARK    2  A    between atoms: O_2  and  C_3
REMARK    3  A    between atoms: C_5  and  C_6
REMARK    4  A    between atoms: C_6  and  N_7
REMARK    5  A    between atoms: C_8  and  C_10
REMARK    6  A    between atoms: C_22  and  C_23
REMARK    7  A    between atoms: C_23  and  N_24
REMARK    8  A    between atoms: C_25  and  C_27
REMARK                            x       y       z     vdW  Elec       q    Type
REMARK                         _______ _______ _______ _____ _____    ______ ____
ROOT
ATOM      1  C   UNL     1      45.419   5.677  12.374  0.00  0.00    +0.000 A 
ATOM      2  C   UNL     1      46.281   5.751  13.475  0.00  0.00    +0.000 A 
ATOM      3  C   UNL     1      46.816   4.594  14.058  0.00  0.00    +0.000 A 
ATOM      4  C   UNL     1      46.489   3.348  13.517  0.00  0.00    +0.000 A 
ATOM      5  C   UNL     1      45.623   3.263  12.426  0.00  0.00    +0.000 A 
ATOM      6  C   UNL     1      45.068   4.421  11.851  0.00  0.00    +0.000 A 
ENDROOT
BRANCH   1   8
ATOM      7  C   UNL     1      45.560   8.006  11.926  0.00  0.00    +0.000 C 
ATOM      8  O   UNL     1      44.859   6.775  11.773  0.00  0.00    +0.000 OA
ENDBRANCH   1   8
BRANCH   3   9
ATOM      9  C   UNL     1      47.762   4.713  15.225  0.00  0.00    +0.000 C 
BRANCH   9  10
ATOM     10  N   UNL     1      47.794   6.061  15.736  0.00  0.00    +0.000 N 
ATOM     11  C   UNL     1      48.961   6.728  16.007  0.00  0.00    +0.000 C 
ATOM     12  O   UNL     1      50.064   6.219  15.828  0.00  0.00    +0.000 OA
ATOM     13  H   UNL     1      46.916   6.429  16.086  0.00  0.00    +0.000 HD
BRANCH  11  14
ATOM     14  C   UNL     1      48.826   8.120  16.459  0.00  0.00    +0.000 A 
ATOM     15  C   UNL     1      49.316   9.148  15.665  0.00  0.00    +0.000 A 
ATOM     16  S   UNL     1      49.047  10.703  16.309  0.00  0.00    +0.000 S 
ATOM     17  C   UNL     1      48.306  10.058  17.698  0.00  0.00    +0.000 A 
ATOM     18  N   UNL     1      47.855  10.873  18.690  0.00  0.00    +0.000 NA
ATOM     19  C   UNL     1      47.347  10.252  19.701  0.00  0.00    +0.000 A 
ATOM     20  N   UNL     1      47.239   8.889  19.806  0.00  0.00    +0.000 N 
ATOM     21  C   UNL     1      47.622   8.031  18.802  0.00  0.00    +0.000 A 
ATOM     22  O   UNL     1      47.410   6.825  18.883  0.00  0.00    +0.000 OA
ATOM     23  C   UNL     1      48.240   8.676  17.659  0.00  0.00    +0.000 A 
ATOM     24  H   UNL     1      46.807   8.467  20.615  0.00  0.00    +0.000 HD
ENDBRANCH  11  14
ENDBRANCH   9  10
ENDBRANCH   3   9
BRANCH   6  25
ATOM     25  C   UNL     1      44.166   4.271  10.649  0.00  0.00    +0.000 C 
BRANCH  25  26
ATOM     26  N   UNL     1      44.821   3.515   9.606  0.00  0.00    +0.000 N 
ATOM     27  C   UNL     1      45.636   4.093   8.660  0.00  0.00    +0.000 C 
ATOM     28  O   UNL     1      45.813   5.304   8.586  0.00  0.00    +0.000 OA
ATOM     29  H   UNL     1      44.832   2.505   9.678  0.00  0.00    +0.000 HD
BRANCH  27  30
ATOM     30  C   UNL     1      46.252   3.137   7.756  0.00  0.00    +0.000 A 
ATOM     31  C   UNL     1      46.658   3.258   6.440  0.00  0.00    +0.000 A 
ATOM     32  C   UNL     1      47.175   1.995   6.052  0.00  0.00    +0.000 A 
ATOM     33  C   UNL     1      47.055   1.182   7.154  0.00  0.00    +0.000 A 
ATOM     34  O   UNL     1      46.504   1.861   8.193  0.00  0.00    +0.000 OA
ENDBRANCH  27  30
ENDBRANCH  25  26
ENDBRANCH   6  25
TORSDOF 7
ENDMDL
MODEL 6
REMARK VINA RESULT:    -7.106      4.730      9.502
REMARK INTER + INTRA:         -11.326
REMARK INTER:                 -10.432
REMARK INTRA:                  -0.894
REMARK UNBOUND:                -1.312
REMARK  Name = 
REMARK  8 active torsions:
REMARK  status: ('A' for Active; 'I' for Inactive)
REMARK    1  A    between atoms: C_1  and  O_2
REMARK    2  A    between atoms: O_2  and  C_3
REMARK    3  A    between atoms: C_5  and  C_6
REMARK    4  A    between atoms: C_6  and  N_7
REMARK    5  A    between atoms: C_8  and  C_10
REMARK    6  A    between atoms: C_22  and  C_23
REMARK    7  A    between atoms: C_23  and  N_24
REMARK    8  A    between atoms: C_25  and  C_27
REMARK                            x       y       z     vdW  Elec       q    Type
REMARK                         _______ _______ _______ _____ _____    ______ ____
ROOT
ATOM      1  C   UNL     1      50.641   4.183  18.211  0.00  0.00    +0.000 A 
ATOM      2  C   UNL     1      49.276   4.299  17.921  0.00  0.00    +0.000 A 
ATOM      3  C   UNL     1      48.592   3.290  17.229  0.00  0.00    +0.000 A 
ATOM      4  C   UNL     1      49.289   2.144  16.836  0.00  0.00    +0.000 A 
ATOM      5  C   UNL     1      50.652   2.024  17.112  0.00  0.00    +0.000 A 
ATOM      6  C   UNL     1      51.346   3.043  17.789  0.00  0.00    +0.000 A 
ENDROOT
BRANCH   1   8
ATOM      7  C   UNL     1      51.176   5.211  20.286  0.00  0.00    +0.000 C 
ATOM      8  O   UNL     1      51.362   5.144  18.874  0.00  0.00    +0.000 OA
ENDBRANCH   1   8
BRANCH   3   9
ATOM      9  C   UNL     1      47.117   3.436  16.958  0.00  0.00    +0.000 C 
BRANCH   9  10
ATOM     10  N   UNL     1      46.869   4.426  15.940  0.00  0.00    +0.000 N 
ATOM     11  C   UNL     1      46.969   4.158  14.600  0.00  0.00    +0.000 C 
ATOM     12  O   UNL     1      47.276   3.048  14.173  0.00  0.00    +0.000 OA
ATOM     13  H   UNL     1      46.818   5.390  16.253  0.00  0.00    +0.000 HD
BRANCH  11  14
ATOM     14  C   UNL     1      46.619   5.256  13.687  0.00  0.00    +0.000 A 
ATOM     15  C   UNL     1      47.550   6.253  13.427  0.00  0.00    +0.000 A 
ATOM     16  S   UNL     1      47.007   7.429  12.319  0.00  0.00    +0.000 S 
ATOM     17  C   UNL     1      45.489   6.674  12.179  0.00  0.00    +0.000 A 
ATOM     18  N   UNL     1      44.519   7.201  11.384  0.00  0.00    +0.000 NA
ATOM     19  C   UNL     1      43.405   6.549  11.398  0.00  0.00    +0.000 A 
ATOM     20  N   UNL     1      43.176   5.411  12.127  0.00  0.00    +0.000 N 
ATOM     21  C   UNL     1      44.146   4.808  12.893  0.00  0.00    +0.000 A 
ATOM     22  O   UNL     1      43.941   3.731  13.445  0.00  0.00    +0.000 OA
ATOM     23  C   UNL     1      45.406   5.526  12.947  0.00  0.00    +0.000 A 
ATOM     24  H   UNL     1      42.288   4.934  12.074  0.00  0.00    +0.000 HD
ENDBRANCH  11  14
ENDBRANCH   9  10
ENDBRANCH   3   9
BRANCH   6  25
ATOM     25  C   UNL     1      52.812   2.843  18.092  0.00  0.00    +0.000 C 
BRANCH  25  26
ATOM     26  N   UNL     1      53.103   1.446  18.321  0.00  0.00    +0.000 N 
ATOM     27  C   UNL     1      54.078   0.760  17.634  0.00  0.00    +0.000 C 
ATOM     28  O   UNL     1      54.730   1.263  16.725  0.00  0.00    +0.000 OA
ATOM     29  H   UNL     1      52.705   1.000  19.138  0.00  0.00    +0.000 HD
BRANCH  27  30
ATOM     30  C   UNL     1      54.253  -0.612  18.081  0.00  0.00    +0.000 A 
ATOM     31  C   UNL     1      55.106  -1.609  17.647  0.00  0.00    +0.000 A 
ATOM     32  C   UNL     1      54.827  -2.758  18.431  0.00  0.00    +0.000 A 
ATOM     33  C   UNL     1      53.824  -2.392  19.296  0.00  0.00    +0.000 A 
ATOM     34  O   UNL     1      53.471  -1.095  19.099  0.00  0.00    +0.000 OA
ENDBRANCH  27  30
ENDBRANCH  25  26
ENDBRANCH   6  25
TORSDOF 7
ENDMDL
MODEL 7
REMARK VINA RESULT:    -6.958      3.240      8.530
REMARK INTER + INTRA:         -11.117
REMARK INTER:                  -9.708
REMARK INTRA:                  -1.409
REMARK UNBOUND:                -1.312
REMARK  Name = 
REMARK  8 active torsions:
REMARK  status: ('A' for Active; 'I' for Inactive)
REMARK    1  A    between atoms: C_1  and  O_2
REMARK    2  A    between atoms: O_2  and  C_3
REMARK    3  A    between atoms: C_5  and  C_6
REMARK    4  A    between atoms: C_6  and  N_7
REMARK    5  A    between atoms: C_8  and  C_10
REMARK    6  A    between atoms: C_22  and  C_23
REMARK    7  A    between atoms: C_23  and  N_24
REMARK    8  A    between atoms: C_25  and  C_27
REMARK                            x       y       z     vdW  Elec       q    Type
REMARK                         _______ _______ _______ _____ _____    ______ ____
ROOT
ATOM      1  C   UNL     1      48.687   6.298  15.599  0.00  0.00    +0.000 A 
ATOM      2  C   UNL     1      47.950   6.508  14.427  0.00  0.00    +0.000 A 
ATOM      3  C   UNL     1      48.447   7.311  13.390  0.00  0.00    +0.000 A 
ATOM      4  C   UNL     1      49.707   7.897  13.530  0.00  0.00    +0.000 A 
ATOM      5  C   UNL     1      50.445   7.702  14.699  0.00  0.00    +0.000 A 
ATOM      6  C   UNL     1      49.941   6.914  15.750  0.00  0.00    +0.000 A 
ENDROOT
BRANCH   1   8
ATOM      7  C   UNL     1      47.693   4.262  16.316  0.00  0.00    +0.000 C 
ATOM      8  O   UNL     1      48.245   5.534  16.649  0.00  0.00    +0.000 OA
ENDBRANCH   1   8
BRANCH   3   9
ATOM      9  C   UNL     1      47.638   7.492  12.132  0.00  0.00    +0.000 C 
BRANCH   9  10
ATOM     10  N   UNL     1      46.878   6.306  11.824  0.00  0.00    +0.000 N 
ATOM     11  C   UNL     1      45.508   6.278  11.822  0.00  0.00    +0.000 C 
ATOM     12  O   UNL     1      44.831   7.270  12.080  0.00  0.00    +0.000 OA
ATOM     13  H   UNL     1      47.395   5.433  11.810  0.00  0.00    +0.000 HD
BRANCH  11  14
ATOM     14  C   UNL     1      44.882   5.010  11.422  0.00  0.00    +0.000 A 
ATOM     15  C   UNL     1      44.062   4.339  12.319  0.00  0.00    +0.000 A 
ATOM     16  S   UNL     1      43.381   2.907  11.692  0.00  0.00    +0.000 S 
ATOM     17  C   UNL     1      44.193   3.107  10.211  0.00  0.00    +0.000 A 
ATOM     18  N   UNL     1      44.061   2.190   9.214  0.00  0.00    +0.000 NA
ATOM     19  C   UNL     1      44.760   2.444   8.159  0.00  0.00    +0.000 A 
ATOM     20  N   UNL     1      45.572   3.539   8.006  0.00  0.00    +0.000 N 
ATOM     21  C   UNL     1      45.686   4.523   8.960  0.00  0.00    +0.000 A 
ATOM     22  O   UNL     1      46.334   5.542   8.746  0.00  0.00    +0.000 OA
ATOM     23  C   UNL     1      44.953   4.263  10.186  0.00  0.00    +0.000 A 
ATOM     24  H   UNL     1      46.073   3.693   7.143  0.00  0.00    +0.000 HD
ENDBRANCH  11  14
ENDBRANCH   9  10
ENDBRANCH   3   9
BRANCH   6  25
ATOM     25  C   UNL     1      50.799   6.709  16.976  0.00  0.00    +0.000 C 
BRANCH  25  26
ATOM     26  N   UNL     1      51.318   5.361  17.019  0.00  0.00    +0.000 N 
ATOM     27  C   UNL     1      51.035   4.480  18.038  0.00  0.00    +0.000 C 
ATOM     28  O   UNL     1      50.376   4.794  19.024  0.00  0.00    +0.000 OA
ATOM     29  H   UNL     1      51.754   4.986  16.186  0.00  0.00    +0.000 HD
BRANCH  27  30
ATOM     30  C   UNL     1      51.596   3.155  17.839  0.00  0.00    +0.000 A 
ATOM     31  C   UNL     1      51.009   1.967  17.446  0.00  0.00    +0.000 A 
ATOM     32  C   UNL     1      52.033   0.985  17.441  0.00  0.00    +0.000 A 
ATOM     33  C   UNL     1      53.181   1.633  17.829  0.00  0.00    +0.000 A 
ATOM     34  O   UNL     1      52.932   2.947  18.067  0.00  0.00    +0.000 OA
ENDBRANCH  27  30
ENDBRANCH  25  26
ENDBRANCH   6  25
TORSDOF 7
ENDMDL
MODEL 8
REMARK VINA RESULT:    -6.925      2.215      3.554
REMARK INTER + INTRA:         -11.071
REMARK INTER:                 -10.001
REMARK INTRA:                  -1.069
REMARK UNBOUND:                -1.312
REMARK  Name = 
REMARK  8 active torsions:
REMARK  status: ('A' for Active; 'I' for Inactive)
REMARK    1  A    between atoms: C_1  and  O_2
REMARK    2  A    between atoms: O_2  and  C_3
REMARK    3  A    between atoms: C_5  and  C_6
REMARK    4  A    between atoms: C_6  and  N_7
REMARK    5  A    between atoms: C_8  and  C_10
REMARK    6  A    between atoms: C_22  and  C_23
REMARK    7  A    between atoms: C_23  and  N_24
REMARK    8  A    between atoms: C_25  and  C_27
REMARK                            x       y       z     vdW  Elec       q    Type
REMARK                         _______ _______ _______ _____ _____    ______ ____
ROOT
ATOM      1  C   UNL     1      46.149   6.016  12.290  0.00  0.00    +0.000 A 
ATOM      2  C   UNL     1      46.705   5.690  13.533  0.00  0.00    +0.000 A 
ATOM      3  C   UNL     1      46.616   4.391  14.051  0.00  0.00    +0.000 A 
ATOM      4  C   UNL     1      45.971   3.404  13.302  0.00  0.00    +0.000 A 
ATOM      5  C   UNL     1      45.404   3.721  12.066  0.00  0.00    +0.000 A 
ATOM      6  C   UNL     1      45.474   5.028  11.552  0.00  0.00    +0.000 A 
ENDROOT
BRANCH   1   8
ATOM      7  C   UNL     1      45.490   8.294  12.439  0.00  0.00    +0.000 C 
ATOM      8  O   UNL     1      46.197   7.272  11.741  0.00  0.00    +0.000 OA
ENDBRANCH   1   8
BRANCH   3   9
ATOM      9  C   UNL     1      47.251   4.071  15.380  0.00  0.00    +0.000 C 
BRANCH   9  10
ATOM     10  N   UNL     1      47.655   5.271  16.068  0.00  0.00    +0.000 N 
ATOM     11  C   UNL     1      48.174   5.264  17.337  0.00  0.00    +0.000 C 
ATOM     12  O   UNL     1      48.334   4.227  17.975  0.00  0.00    +0.000 OA
ATOM     13  H   UNL     1      47.349   6.148  15.660  0.00  0.00    +0.000 HD
BRANCH  11  14
ATOM     14  C   UNL     1      48.600   6.564  17.875  0.00  0.00    +0.000 A 
ATOM     15  C   UNL     1      48.177   6.954  19.138  0.00  0.00    +0.000 A 
ATOM     16  S   UNL     1      48.789   8.467  19.633  0.00  0.00    +0.000 S 
ATOM     17  C   UNL     1      49.607   8.678  18.157  0.00  0.00    +0.000 A 
ATOM     18  N   UNL     1      50.325   9.808  17.913  0.00  0.00    +0.000 NA
ATOM     19  C   UNL     1      50.864   9.856  16.741  0.00  0.00    +0.000 A 
ATOM     20  N   UNL     1      50.760   8.870  15.794  0.00  0.00    +0.000 N 
ATOM     21  C   UNL     1      50.100   7.685  16.019  0.00  0.00    +0.000 A 
ATOM     22  O   UNL     1      50.120   6.780  15.191  0.00  0.00    +0.000 OA
ATOM     23  C   UNL     1      49.438   7.598  17.308  0.00  0.00    +0.000 A 
ATOM     24  H   UNL     1      51.229   8.958  14.904  0.00  0.00    +0.000 HD
ENDBRANCH  11  14
ENDBRANCH   9  10
ENDBRANCH   3   9
BRANCH   6  25
ATOM     25  C   UNL     1      44.875   5.304  10.193  0.00  0.00    +0.000 C 
BRANCH  25  26
ATOM     26  N   UNL     1      45.628   4.638   9.155  0.00  0.00    +0.000 N 
ATOM     27  C   UNL     1      45.262   3.421   8.627  0.00  0.00    +0.000 C 
ATOM     28  O   UNL     1      44.307   2.775   9.044  0.00  0.00    +0.000 OA
ATOM     29  H   UNL     1      46.344   5.162   8.669  0.00  0.00    +0.000 HD
BRANCH  27  30
ATOM     30  C   UNL     1      46.117   2.975   7.540  0.00  0.00    +0.000 A 
ATOM     31  C   UNL     1      46.902   1.846   7.404  0.00  0.00    +0.000 A 
ATOM     32  C   UNL     1      47.540   1.939   6.140  0.00  0.00    +0.000 A 
ATOM     33  C   UNL     1      47.104   3.117   5.581  0.00  0.00    +0.000 A 
ATOM     34  O   UNL     1      46.239   3.751   6.415  0.00  0.00    +0.000 OA
ENDBRANCH  27  30
ENDBRANCH  25  26
ENDBRANCH   6  25
TORSDOF 7
ENDMDL
MODEL 9
REMARK VINA RESULT:    -6.767      3.380      4.750
REMARK INTER + INTRA:         -10.848
REMARK INTER:                  -9.671
REMARK INTRA:                  -1.176
REMARK UNBOUND:                -1.312
REMARK  Name = 
REMARK  8 active torsions:
REMARK  status: ('A' for Active; 'I' for Inactive)
REMARK    1  A    between atoms: C_1  and  O_2
REMARK    2  A    between atoms: O_2  and  C_3
REMARK    3  A    between atoms: C_5  and  C_6
REMARK    4  A    between atoms: C_6  and  N_7
REMARK    5  A    between atoms: C_8  and  C_10
REMARK    6  A    between atoms: C_22  and  C_23
REMARK    7  A    between atoms: C_23  and  N_24
REMARK    8  A    between atoms: C_25  and  C_27
REMARK                            x       y       z     vdW  Elec       q    Type
REMARK                         _______ _______ _______ _____ _____    ______ ____
ROOT
ATOM      1  C   UNL     1      45.440   5.449  11.971  0.00  0.00    +0.000 A 
ATOM      2  C   UNL     1      46.317   6.175  12.786  0.00  0.00    +0.000 A 
ATOM      3  C   UNL     1      47.059   5.547  13.796  0.00  0.00    +0.000 A 
ATOM      4  C   UNL     1      46.927   4.168  13.978  0.00  0.00    +0.000 A 
ATOM      5  C   UNL     1      46.047   3.437  13.178  0.00  0.00    +0.000 A 
ATOM      6  C   UNL     1      45.286   4.067  12.177  0.00  0.00    +0.000 A 
ENDROOT
BRANCH   1   8
ATOM      7  C   UNL     1      43.582   6.816  11.401  0.00  0.00    +0.000 C 
ATOM      8  O   UNL     1      44.682   6.013  10.978  0.00  0.00    +0.000 OA
ENDBRANCH   1   8
BRANCH   3   9
ATOM      9  C   UNL     1      48.014   6.356  14.636  0.00  0.00    +0.000 C 
BRANCH   9  10
ATOM     10  N   UNL     1      49.006   7.007  13.818  0.00  0.00    +0.000 N 
ATOM     11  C   UNL     1      49.017   8.359  13.592  0.00  0.00    +0.000 C 
ATOM     12  O   UNL     1      48.177   9.112  14.079  0.00  0.00    +0.000 OA
ATOM     13  H   UNL     1      49.581   6.401  13.241  0.00  0.00    +0.000 HD
BRANCH  11  14
ATOM     14  C   UNL     1      50.133   8.878  12.790  0.00  0.00    +0.000 A 
ATOM     15  C   UNL     1      49.870   9.532  11.594  0.00  0.00    +0.000 A 
ATOM     16  S   UNL     1      51.266  10.109  10.803  0.00  0.00    +0.000 S 
ATOM     17  C   UNL     1      52.279   9.466  12.009  0.00  0.00    +0.000 A 
ATOM     18  N   UNL     1      53.632   9.591  11.922  0.00  0.00    +0.000 NA
ATOM     19  C   UNL     1      54.282   9.026  12.884  0.00  0.00    +0.000 A 
ATOM     20  N   UNL     1      53.702   8.356  13.931  0.00  0.00    +0.000 N 
ATOM     21  C   UNL     1      52.340   8.261  14.092  0.00  0.00    +0.000 A 
ATOM     22  O   UNL     1      51.854   7.750  15.097  0.00  0.00    +0.000 OA
ATOM     23  C   UNL     1      51.562   8.842  13.014  0.00  0.00    +0.000 A 
ATOM     24  H   UNL     1      54.269   7.958  14.665  0.00  0.00    +0.000 HD
ENDBRANCH  11  14
ENDBRANCH   9  10
ENDBRANCH   3   9
BRANCH   6  25
ATOM     25  C   UNL     1      44.378   3.220  11.317  0.00  0.00    +0.000 C 
BRANCH  25  26
ATOM     26  N   UNL     1      45.111   2.636  10.216  0.00  0.00    +0.000 N 
ATOM     27  C   UNL     1      45.067   3.137   8.936  0.00  0.00    +0.000 C 
ATOM     28  O   UNL     1      44.347   4.077   8.614  0.00  0.00    +0.000 OA
ATOM     29  H   UNL     1      45.824   1.948  10.425  0.00  0.00    +0.000 HD
BRANCH  27  30
ATOM     30  C   UNL     1      45.942   2.444   8.006  0.00  0.00    +0.000 A 
ATOM     31  C   UNL     1      46.528   2.859   6.824  0.00  0.00    +0.000 A 
ATOM     32  C   UNL     1      47.266   1.756   6.323  0.00  0.00    +0.000 A 
ATOM     33  C   UNL     1      47.088   0.738   7.229  0.00  0.00    +0.000 A 
ATOM     34  O   UNL     1      46.294   1.142   8.254  0.00  0.00    +0.000 OA
ENDBRANCH  27  30
ENDBRANCH  25  26
ENDBRANCH   6  25
TORSDOF 7
ENDMDL
