MODEL 1
REMARK VINA RESULT:    -7.047      0.000      0.000
REMARK INTER + INTRA:         -11.005
REMARK INTER:                  -9.931
REMARK INTRA:                  -1.073
REMARK UNBOUND:                -1.073
REMARK  Name = 
REMARK  9 active torsions:
REMARK  status: ('A' for Active; 'I' for Inactive)
REMARK    1  A    between atoms: C_1  and  O_2
REMARK    2  A    between atoms: O_2  and  C_3
REMARK    3  A    between atoms: C_10  and  C_11
REMARK    4  A    between atoms: N_13  and  C_14
REMARK    5  A    between atoms: C_14  and  C_15
REMARK    6  A    between atoms: C_18  and  N_19
REMARK    7  A    between atoms: N_19  and  C_20
REMARK    8  A    between atoms: N_19  and  C_21
REMARK    9  A    between atoms: C_21  and  C_22
REMARK                            x       y       z     vdW  Elec       q    Type
REMARK                         _______ _______ _______ _____ _____    ______ ____
ROOT
ATOM      1  C   UNL     1      47.255   3.443  16.818  0.00  0.00    +0.000 C 
ENDROOT
BRANCH   1   2
ATOM      2  C   UNL     1      48.741   3.467  17.070  0.00  0.00    +0.000 A 
ATOM      3  C   UNL     1      49.408   4.657  17.360  0.00  0.00    +0.000 A 
ATOM      4  C   UNL     1      50.780   4.655  17.678  0.00  0.00    +0.000 A 
ATOM      5  C   UNL     1      51.558   3.480  17.691  0.00  0.00    +0.000 A 
ATOM      6  C   UNL     1      50.876   2.312  17.311  0.00  0.00    +0.000 A 
ATOM      7  C   UNL     1      49.500   2.298  17.013  0.00  0.00    +0.000 A 
BRANCH   5   8
ATOM      8  N   UNL     1      52.919   3.479  18.018  0.00  0.00    +0.000 N 
ATOM      9  C   UNL     1      53.634   4.756  18.089  0.00  0.00    +0.000 C 
BRANCH   8  10
ATOM     10  C   UNL     1      53.507   2.381  18.817  0.00  0.00    +0.000 C 
BRANCH  10  11
ATOM     11  C   UNL     1      54.909   1.974  18.298  0.00  0.00    +0.000 C 
ATOM     12  C   UNL     1      54.829   1.395  16.871  0.00  0.00    +0.000 C 
ATOM     13  C   UNL     1      54.243  -0.020  16.836  0.00  0.00    +0.000 C 
ATOM     14  N   UNL     1      54.940  -0.938  17.738  0.00  0.00    +0.000 NA
ATOM     15  C   UNL     1      54.959  -0.432  19.111  0.00  0.00    +0.000 C 
ATOM     16  C   UNL     1      55.622   0.943  19.189  0.00  0.00    +0.000 C 
ATOM     17  H   UNL     1      55.902  -1.052  17.418  0.00  0.00    +0.000 HD
ENDBRANCH  10  11
ENDBRANCH   8  10
ENDBRANCH   5   8
ENDBRANCH   1   2
BRANCH   1  20
ATOM     18  C   UNL     1      46.892   4.240  14.514  0.00  0.00    +0.000 C 
ATOM     19  O   UNL     1      47.271   3.172  14.044  0.00  0.00    +0.000 OA
ATOM     20  N   UNL     1      46.851   4.447  15.869  0.00  0.00    +0.000 N 
ATOM     21  H   UNL     1      46.553   5.340  16.240  0.00  0.00    +0.000 HD
BRANCH  18  29
ATOM     22  C   UNL     1      44.054   4.861  12.669  0.00  0.00    +0.000 A 
ATOM     23  N   UNL     1      43.052   5.365  11.925  0.00  0.00    +0.000 NA
ATOM     24  C   UNL     1      43.228   6.570  11.373  0.00  0.00    +0.000 A 
ATOM     25  N   UNL     1      44.305   7.345  11.471  0.00  0.00    +0.000 NA
ATOM     26  C   UNL     1      45.271   6.810  12.235  0.00  0.00    +0.000 A 
ATOM     27  S   UNL     1      46.725   7.655  12.466  0.00  0.00    +0.000 S 
ATOM     28  C   UNL     1      47.340   6.425  13.464  0.00  0.00    +0.000 A 
ATOM     29  C   UNL     1      46.470   5.357  13.648  0.00  0.00    +0.000 A 
ATOM     30  C   UNL     1      45.237   5.585  12.892  0.00  0.00    +0.000 A 
BRANCH  22  32
ATOM     31  C   UNL     1      43.549   2.608  12.285  0.00  0.00    +0.000 C 
ATOM     32  O   UNL     1      43.877   3.617  13.236  0.00  0.00    +0.000 OA
ENDBRANCH  22  32
ENDBRANCH  18  29
ENDBRANCH   1  20
TORSDOF 7
ENDMDL
MODEL 2
REMARK VINA RESULT:    -7.045      3.171      9.426
REMARK INTER + INTRA:         -11.002
REMARK INTER:                 -10.270
REMARK INTRA:                  -0.731
REMARK UNBOUND:                -1.073
REMARK  Name = 
REMARK  9 active torsions:
REMARK  status: ('A' for Active; 'I' for Inactive)
REMARK    1  A    between atoms: C_1  and  O_2
REMARK    2  A    between atoms: O_2  and  C_3
REMARK    3  A    between atoms: C_10  and  C_11
REMARK    4  A    between atoms: N_13  and  C_14
REMARK    5  A    between atoms: C_14  and  C_15
REMARK    6  A    between atoms: C_18  and  N_19
REMARK    7  A    between atoms: N_19  and  C_20
REMARK    8  A    between atoms: N_19  and  C_21
REMARK    9  A    between atoms: C_21  and  C_22
REMARK                            x       y       z     vdW  Elec       q    Type
REMARK                         _______ _______ _______ _____ _____    ______ ____
ROOT
ATOM      1  C   UNL     1      48.481   7.227  14.855  0.00  0.00    +0.000 C 
ENDROOT
BRANCH   1   2
ATOM      2  C   UNL     1      47.552   6.423  13.980  0.00  0.00    +0.000 A 
ATOM      3  C   UNL     1      47.159   5.132  14.333  0.00  0.00    +0.000 A 
ATOM      4  C   UNL     1      46.225   4.424  13.552  0.00  0.00    +0.000 A 
ATOM      5  C   UNL     1      45.663   4.951  12.372  0.00  0.00    +0.000 A 
ATOM      6  C   UNL     1      46.144   6.216  11.998  0.00  0.00    +0.000 A 
ATOM      7  C   UNL     1      47.061   6.943  12.782  0.00  0.00    +0.000 A 
BRANCH   5   8
ATOM      8  N   UNL     1      44.727   4.250  11.603  0.00  0.00    +0.000 N 
ATOM      9  C   UNL     1      43.541   4.956  11.108  0.00  0.00    +0.000 C 
BRANCH   8  10
ATOM     10  C   UNL     1      45.127   3.061  10.817  0.00  0.00    +0.000 C 
BRANCH  10  11
ATOM     11  C   UNL     1      44.421   3.013   9.439  0.00  0.00    +0.000 C 
ATOM     12  C   UNL     1      44.630   1.649   8.752  0.00  0.00    +0.000 C 
ATOM     13  C   UNL     1      46.048   1.476   8.196  0.00  0.00    +0.000 C 
ATOM     14  N   UNL     1      46.443   2.575   7.315  0.00  0.00    +0.000 NA
ATOM     15  C   UNL     1      46.316   3.871   7.983  0.00  0.00    +0.000 C 
ATOM     16  C   UNL     1      44.887   4.110   8.469  0.00  0.00    +0.000 C 
ATOM     17  H   UNL     1      45.843   2.573   6.491  0.00  0.00    +0.000 HD
ENDBRANCH  10  11
ENDBRANCH   8  10
ENDBRANCH   5   8
ENDBRANCH   1   2
BRANCH   1  20
ATOM     18  C   UNL     1      49.455   6.119  16.829  0.00  0.00    +0.000 C 
ATOM     19  O   UNL     1      48.568   6.552  17.557  0.00  0.00    +0.000 OA
ATOM     20  N   UNL     1      49.477   6.403  15.487  0.00  0.00    +0.000 N 
ATOM     21  H   UNL     1      50.225   6.053  14.903  0.00  0.00    +0.000 HD
BRANCH  18  29
ATOM     22  C   UNL     1      49.982   2.720  16.934  0.00  0.00    +0.000 A 
ATOM     23  N   UNL     1      50.451   1.464  17.054  0.00  0.00    +0.000 NA
ATOM     24  C   UNL     1      51.648   1.294  17.625  0.00  0.00    +0.000 A 
ATOM     25  N   UNL     1      52.445   2.244  18.108  0.00  0.00    +0.000 NA
ATOM     26  C   UNL     1      51.945   3.481  17.953  0.00  0.00    +0.000 A 
ATOM     27  S   UNL     1      52.823   4.819  18.517  0.00  0.00    +0.000 S 
ATOM     28  C   UNL     1      51.626   5.896  17.975  0.00  0.00    +0.000 A 
ATOM     29  C   UNL     1      50.546   5.278  17.357  0.00  0.00    +0.000 A 
ATOM     30  C   UNL     1      50.733   3.826  17.364  0.00  0.00    +0.000 A 
BRANCH  22  32
ATOM     31  C   UNL     1      47.672   2.858  17.283  0.00  0.00    +0.000 C 
ATOM     32  O   UNL     1      48.747   2.896  16.350  0.00  0.00    +0.000 OA
ENDBRANCH  22  32
ENDBRANCH  18  29
ENDBRANCH   1  20
TORSDOF 7
ENDMDL
MODEL 3
REMARK VINA RESULT:    -6.957      4.247      5.804
REMARK INTER + INTRA:         -10.877
REMARK INTER:                  -9.414
REMARK INTRA:                  -1.463
REMARK UNBOUND:                -1.073
REMARK  Name = 
REMARK  9 active torsions:
REMARK  status: ('A' for Active; 'I' for Inactive)
REMARK    1  A    between atoms: C_1  and  O_2
REMARK    2  A    between atoms: O_2  and  C_3
REMARK    3  A    between atoms: C_10  and  C_11
REMARK    4  A    between atoms: N_13  and  C_14
REMARK    5  A    between atoms: C_14  and  C_15
REMARK    6  A    between atoms: C_18  and  N_19
REMARK    7  A    between atoms: N_19  and  C_20
REMARK    8  A    between atoms: N_19  and  C_21
REMARK    9  A    between atoms: C_21  and  C_22
REMARK                            x       y       z     vdW  Elec       q    Type
REMARK                         _______ _______ _______ _____ _____    ______ ____
ROOT
ATOM      1  C   UNL     1      48.458   8.014  11.851  0.00  0.00    +0.000 C 
ENDROOT
BRANCH   1   2
ATOM      2  C   UNL     1      48.552   7.982  13.357  0.00  0.00    +0.000 A 
ATOM      3  C   UNL     1      49.251   6.973  14.018  0.00  0.00    +0.000 A 
ATOM      4  C   UNL     1      49.403   7.002  15.418  0.00  0.00    +0.000 A 
ATOM      5  C   UNL     1      48.843   8.012  16.225  0.00  0.00    +0.000 A 
ATOM      6  C   UNL     1      48.073   8.964  15.538  0.00  0.00    +0.000 A 
ATOM      7  C   UNL     1      47.933   8.959  14.137  0.00  0.00    +0.000 A 
BRANCH   5   8
ATOM      8  N   UNL     1      49.004   8.044  17.616  0.00  0.00    +0.000 N 
ATOM      9  C   UNL     1      48.427   9.158  18.373  0.00  0.00    +0.000 C 
BRANCH   8  10
ATOM     10  C   UNL     1      49.209   6.796  18.385  0.00  0.00    +0.000 C 
BRANCH  10  11
ATOM     11  C   UNL     1      47.865   6.151  18.809  0.00  0.00    +0.000 C 
ATOM     12  C   UNL     1      47.879   5.760  20.300  0.00  0.00    +0.000 C 
ATOM     13  C   UNL     1      48.733   4.519  20.581  0.00  0.00    +0.000 C 
ATOM     14  N   UNL     1      48.359   3.380  19.742  0.00  0.00    +0.000 NA
ATOM     15  C   UNL     1      48.411   3.720  18.319  0.00  0.00    +0.000 C 
ATOM     16  C   UNL     1      47.498   4.900  17.994  0.00  0.00    +0.000 C 
ATOM     17  H   UNL     1      47.408   3.094  19.974  0.00  0.00    +0.000 HD
ENDBRANCH  10  11
ENDBRANCH   8  10
ENDBRANCH   5   8
ENDBRANCH   1   2
BRANCH   1  20
ATOM     18  C   UNL     1      46.322   6.919  11.296  0.00  0.00    +0.000 C 
ATOM     19  O   UNL     1      45.678   7.883  11.697  0.00  0.00    +0.000 OA
ATOM     20  N   UNL     1      47.693   6.911  11.334  0.00  0.00    +0.000 N 
ATOM     21  H   UNL     1      48.207   6.100  11.016  0.00  0.00    +0.000 HD
BRANCH  18  29
ATOM     22  C   UNL     1      44.583   4.330  12.751  0.00  0.00    +0.000 A 
ATOM     23  N   UNL     1      43.830   3.255  13.053  0.00  0.00    +0.000 NA
ATOM     24  C   UNL     1      43.425   2.472  12.047  0.00  0.00    +0.000 A 
ATOM     25  N   UNL     1      43.691   2.631  10.753  0.00  0.00    +0.000 NA
ATOM     26  C   UNL     1      44.429   3.724  10.497  0.00  0.00    +0.000 A 
ATOM     27  S   UNL     1      44.873   4.083   8.899  0.00  0.00    +0.000 S 
ATOM     28  C   UNL     1      45.697   5.485   9.390  0.00  0.00    +0.000 A 
ATOM     29  C   UNL     1      45.655   5.717  10.759  0.00  0.00    +0.000 A 
ATOM     30  C   UNL     1      44.909   4.645  11.422  0.00  0.00    +0.000 A 
BRANCH  22  32
ATOM     31  C   UNL     1      46.310   4.811  14.255  0.00  0.00    +0.000 C 
ATOM     32  O   UNL     1      45.005   5.136  13.786  0.00  0.00    +0.000 OA
ENDBRANCH  22  32
ENDBRANCH  18  29
ENDBRANCH   1  20
TORSDOF 7
ENDMDL
MODEL 4
REMARK VINA RESULT:    -6.933      4.805      9.359
REMARK INTER + INTRA:         -10.844
REMARK INTER:                  -9.637
REMARK INTRA:                  -1.207
REMARK UNBOUND:                -1.073
REMARK  Name = 
REMARK  9 active torsions:
REMARK  status: ('A' for Active; 'I' for Inactive)
REMARK    1  A    between atoms: C_1  and  O_2
REMARK    2  A    between atoms: O_2  and  C_3
REMARK    3  A    between atoms: C_10  and  C_11
REMARK    4  A    between atoms: N_13  and  C_14
REMARK    5  A    between atoms: C_14  and  C_15
REMARK    6  A    between atoms: C_18  and  N_19
REMARK    7  A    between atoms: N_19  and  C_20
REMARK    8  A    between atoms: N_19  and  C_21
REMARK    9  A    between atoms: C_21  and  C_22
REMARK                            x       y       z     vdW  Elec       q    Type
REMARK                         _______ _______ _______ _____ _____    ______ ____
ROOT
ATOM      1  C   UNL     1      46.875   8.903  13.277  0.00  0.00    +0.000 C 
ENDROOT
BRANCH   1   2
ATOM      2  C   UNL     1      46.316   7.587  12.795  0.00  0.00    +0.000 A 
ATOM      3  C   UNL     1      46.845   6.372  13.229  0.00  0.00    +0.000 A 
ATOM      4  C   UNL     1      46.260   5.152  12.839  0.00  0.00    +0.000 A 
ATOM      5  C   UNL     1      45.146   5.081  11.979  0.00  0.00    +0.000 A 
ATOM      6  C   UNL     1      44.691   6.317  11.492  0.00  0.00    +0.000 A 
ATOM      7  C   UNL     1      45.253   7.545  11.892  0.00  0.00    +0.000 A 
BRANCH   5   8
ATOM      8  N   UNL     1      44.560   3.867  11.601  0.00  0.00    +0.000 N 
ATOM      9  C   UNL     1      43.098   3.756  11.591  0.00  0.00    +0.000 C 
BRANCH   8  10
ATOM     10  C   UNL     1      45.270   2.927  10.706  0.00  0.00    +0.000 C 
BRANCH  10  11
ATOM     11  C   UNL     1      44.543   2.758   9.349  0.00  0.00    +0.000 C 
ATOM     12  C   UNL     1      44.999   1.475   8.626  0.00  0.00    +0.000 C 
ATOM     13  C   UNL     1      46.403   1.599   8.025  0.00  0.00    +0.000 C 
ATOM     14  N   UNL     1      46.540   2.769   7.157  0.00  0.00    +0.000 NA
ATOM     15  C   UNL     1      46.177   4.002   7.855  0.00  0.00    +0.000 C 
ATOM     16  C   UNL     1      44.746   3.941   8.388  0.00  0.00    +0.000 C 
ATOM     17  H   UNL     1      45.926   2.657   6.350  0.00  0.00    +0.000 HD
ENDBRANCH  10  11
ENDBRANCH   8  10
ENDBRANCH   5   8
ENDBRANCH   1   2
BRANCH   1  20
ATOM     18  C   UNL     1      48.413   8.878  15.202  0.00  0.00    +0.000 C 
ATOM     19  O   UNL     1      49.395   8.884  14.467  0.00  0.00    +0.000 OA
ATOM     20  N   UNL     1      47.140   8.892  14.691  0.00  0.00    +0.000 N 
ATOM     21  H   UNL     1      46.341   8.868  15.312  0.00  0.00    +0.000 HD
BRANCH  18  29
ATOM     22  C   UNL     1      48.557   6.331  17.512  0.00  0.00    +0.000 A 
ATOM     23  N   UNL     1      48.692   5.541  18.594  0.00  0.00    +0.000 NA
ATOM     24  C   UNL     1      48.861   6.130  19.782  0.00  0.00    +0.000 A 
ATOM     25  N   UNL     1      48.905   7.438  20.027  0.00  0.00    +0.000 NA
ATOM     26  C   UNL     1      48.783   8.186  18.918  0.00  0.00    +0.000 A 
ATOM     27  S   UNL     1      48.808   9.878  19.040  0.00  0.00    +0.000 S 
ATOM     28  C   UNL     1      48.629  10.052  17.359  0.00  0.00    +0.000 A 
ATOM     29  C   UNL     1      48.550   8.847  16.671  0.00  0.00    +0.000 A 
ATOM     30  C   UNL     1      48.623   7.730  17.614  0.00  0.00    +0.000 A 
BRANCH  22  32
ATOM     31  C   UNL     1      47.820   4.419  16.381  0.00  0.00    +0.000 C 
ATOM     32  O   UNL     1      48.379   5.726  16.287  0.00  0.00    +0.000 OA
ENDBRANCH  22  32
ENDBRANCH  18  29
ENDBRANCH   1  20
TORSDOF 7
ENDMDL
MODEL 5
REMARK VINA RESULT:    -6.844      3.086      9.500
REMARK INTER + INTRA:         -10.718
REMARK INTER:                  -9.484
REMARK INTRA:                  -1.234
REMARK UNBOUND:                -1.073
REMARK  Name = 
REMARK  9 active torsions:
REMARK  status: ('A' for Active; 'I' for Inactive)
REMARK    1  A    between atoms: C_1  and  O_2
REMARK    2  A    between atoms: O_2  and  C_3
REMARK    3  A    between atoms: C_10  and  C_11
REMARK    4  A    between atoms: N_13  and  C_14
REMARK    5  A    between atoms: C_14  and  C_15
REMARK    6  A    between atoms: C_18  and  N_19
REMARK    7  A    between atoms: N_19  and  C_20
REMARK    8  A    between atoms: N_19  and  C_21
REMARK    9  A    between atoms: C_21  and  C_22
REMARK                            x       y       z     vdW  Elec       q    Type
REMARK                         _______ _______ _______ _____ _____    ______ ____
ROOT
ATOM      1  C   UNL     1      49.432   7.990  15.912  0.00  0.00    +0.000 C 
ENDROOT
BRANCH   1   2
ATOM      2  C   UNL     1      48.423   7.655  14.842  0.00  0.00    +0.000 A 
ATOM      3  C   UNL     1      48.203   6.338  14.439  0.00  0.00    +0.000 A 
ATOM      4  C   UNL     1      47.199   6.031  13.500  0.00  0.00    +0.000 A 
ATOM      5  C   UNL     1      46.392   7.015  12.897  0.00  0.00    +0.000 A 
ATOM      6  C   UNL     1      46.697   8.338  13.259  0.00  0.00    +0.000 A 
ATOM      7  C   UNL     1      47.683   8.656  14.213  0.00  0.00    +0.000 A 
BRANCH   5   8
ATOM      8  N   UNL     1      45.388   6.706  11.972  0.00  0.00    +0.000 N 
ATOM      9  C   UNL     1      44.605   7.796  11.381  0.00  0.00    +0.000 C 
BRANCH   8  10
ATOM     10  C   UNL     1      45.454   5.467  11.165  0.00  0.00    +0.000 C 
BRANCH  10  11
ATOM     11  C   UNL     1      44.073   5.087  10.575  0.00  0.00    +0.000 C 
ATOM     12  C   UNL     1      43.145   4.499  11.657  0.00  0.00    +0.000 C 
ATOM     13  C   UNL     1      43.531   3.071  12.057  0.00  0.00    +0.000 C 
ATOM     14  N   UNL     1      43.632   2.174  10.906  0.00  0.00    +0.000 NA
ATOM     15  C   UNL     1      44.565   2.688   9.903  0.00  0.00    +0.000 C 
ATOM     16  C   UNL     1      44.153   4.077   9.418  0.00  0.00    +0.000 C 
ATOM     17  H   UNL     1      42.711   2.079  10.477  0.00  0.00    +0.000 HD
ENDBRANCH  10  11
ENDBRANCH   8  10
ENDBRANCH   5   8
ENDBRANCH   1   2
BRANCH   1  20
ATOM     18  C   UNL     1      50.522   6.581  17.615  0.00  0.00    +0.000 C 
ATOM     19  O   UNL     1      50.150   7.319  18.521  0.00  0.00    +0.000 OA
ATOM     20  N   UNL     1      50.204   6.841  16.306  0.00  0.00    +0.000 N 
ATOM     21  H   UNL     1      50.534   6.231  15.569  0.00  0.00    +0.000 HD
BRANCH  18  29
ATOM     22  C   UNL     1      50.058   3.224  17.012  0.00  0.00    +0.000 A 
ATOM     23  N   UNL     1      50.150   1.891  16.847  0.00  0.00    +0.000 NA
ATOM     24  C   UNL     1      51.259   1.282  17.281  0.00  0.00    +0.000 A 
ATOM     25  N   UNL     1      52.302   1.852  17.879  0.00  0.00    +0.000 NA
ATOM     26  C   UNL     1      52.174   3.183  18.008  0.00  0.00    +0.000 A 
ATOM     27  S   UNL     1      53.407   4.078  18.755  0.00  0.00    +0.000 S 
ATOM     28  C   UNL     1      52.558   5.532  18.527  0.00  0.00    +0.000 A 
ATOM     29  C   UNL     1      51.336   5.380  17.884  0.00  0.00    +0.000 A 
ATOM     30  C   UNL     1      51.101   3.964  17.592  0.00  0.00    +0.000 A 
BRANCH  22  32
ATOM     31  C   UNL     1      47.834   3.773  17.493  0.00  0.00    +0.000 C 
ATOM     32  O   UNL     1      48.915   3.853  16.568  0.00  0.00    +0.000 OA
ENDBRANCH  22  32
ENDBRANCH  18  29
ENDBRANCH   1  20
TORSDOF 7
ENDMDL
MODEL 6
REMARK VINA RESULT:    -6.367      3.110      9.722
REMARK INTER + INTRA:         -10.046
REMARK INTER:                  -8.838
REMARK INTRA:                  -1.208
REMARK UNBOUND:                -1.073
REMARK  Name = 
REMARK  9 active torsions:
REMARK  status: ('A' for Active; 'I' for Inactive)
REMARK    1  A    between atoms: C_1  and  O_2
REMARK    2  A    between atoms: O_2  and  C_3
REMARK    3  A    between atoms: C_10  and  C_11
REMARK    4  A    between atoms: N_13  and  C_14
REMARK    5  A    between atoms: C_14  and  C_15
REMARK    6  A    between atoms: C_18  and  N_19
REMARK    7  A    between atoms: N_19  and  C_20
REMARK    8  A    between atoms: N_19  and  C_21
REMARK    9  A    between atoms: C_21  and  C_22
REMARK                            x       y       z     vdW  Elec       q    Type
REMARK                         _______ _______ _______ _____ _____    ______ ____
ROOT
ATOM      1  C   UNL     1      48.510   3.527  18.131  0.00  0.00    +0.000 C 
ENDROOT
BRANCH   1   2
ATOM      2  C   UNL     1      48.115   4.222  16.853  0.00  0.00    +0.000 A 
ATOM      3  C   UNL     1      47.228   3.635  15.952  0.00  0.00    +0.000 A 
ATOM      4  C   UNL     1      46.801   4.330  14.804  0.00  0.00    +0.000 A 
ATOM      5  C   UNL     1      47.257   5.624  14.483  0.00  0.00    +0.000 A 
ATOM      6  C   UNL     1      48.215   6.152  15.364  0.00  0.00    +0.000 A 
ATOM      7  C   UNL     1      48.633   5.476  16.526  0.00  0.00    +0.000 A 
BRANCH   5   8
ATOM      8  N   UNL     1      46.823   6.317  13.347  0.00  0.00    +0.000 N 
ATOM      9  C   UNL     1      47.795   6.644  12.299  0.00  0.00    +0.000 C 
BRANCH   8  10
ATOM     10  C   UNL     1      45.415   6.234  12.898  0.00  0.00    +0.000 C 
BRANCH  10  11
ATOM     11  C   UNL     1      45.277   5.451  11.569  0.00  0.00    +0.000 C 
ATOM     12  C   UNL     1      44.004   5.869  10.805  0.00  0.00    +0.000 C 
ATOM     13  C   UNL     1      42.723   5.314  11.436  0.00  0.00    +0.000 C 
ATOM     14  N   UNL     1      42.773   3.863  11.622  0.00  0.00    +0.000 NA
ATOM     15  C   UNL     1      43.940   3.462  12.408  0.00  0.00    +0.000 C 
ATOM     16  C   UNL     1      45.240   3.925  11.752  0.00  0.00    +0.000 C 
ATOM     17  H   UNL     1      42.823   3.413  10.708  0.00  0.00    +0.000 HD
ENDBRANCH  10  11
ENDBRANCH   8  10
ENDBRANCH   5   8
ENDBRANCH   1   2
BRANCH   1  20
ATOM     18  C   UNL     1      50.558   2.368  17.398  0.00  0.00    +0.000 C 
ATOM     19  O   UNL     1      49.936   1.711  16.569  0.00  0.00    +0.000 OA
ATOM     20  N   UNL     1      49.927   3.285  18.200  0.00  0.00    +0.000 N 
ATOM     21  H   UNL     1      50.452   3.805  18.891  0.00  0.00    +0.000 HD
BRANCH  18  29
ATOM     22  C   UNL     1      53.160   4.582  17.811  0.00  0.00    +0.000 A 
ATOM     23  N   UNL     1      54.326   5.216  18.039  0.00  0.00    +0.000 NA
ATOM     24  C   UNL     1      55.423   4.469  18.197  0.00  0.00    +0.000 A 
ATOM     25  N   UNL     1      55.501   3.141  18.146  0.00  0.00    +0.000 NA
ATOM     26  C   UNL     1      54.314   2.551  17.932  0.00  0.00    +0.000 A 
ATOM     27  S   UNL     1      54.222   0.860  17.829  0.00  0.00    +0.000 S 
ATOM     28  C   UNL     1      52.541   0.916  17.586  0.00  0.00    +0.000 A 
ATOM     29  C   UNL     1      52.012   2.201  17.581  0.00  0.00    +0.000 A 
ATOM     30  C   UNL     1      53.084   3.180  17.769  0.00  0.00    +0.000 A 
BRANCH  22  32
ATOM     31  C   UNL     1      52.160   6.331  16.619  0.00  0.00    +0.000 C 
ATOM     32  O   UNL     1      52.028   5.350  17.644  0.00  0.00    +0.000 OA
ENDBRANCH  22  32
ENDBRANCH  18  29
ENDBRANCH   1  20
TORSDOF 7
ENDMDL
MODEL 7
REMARK VINA RESULT:    -6.257      4.252      9.262
REMARK INTER + INTRA:          -9.890
REMARK INTER:                  -8.497
REMARK INTRA:                  -1.393
REMARK UNBOUND:                -1.073
REMARK  Name = 
REMARK  9 active torsions:
REMARK  status: ('A' for Active; 'I' for Inactive)
REMARK    1  A    between atoms: C_1  and  O_2
REMARK    2  A    between atoms: O_2  and  C_3
REMARK    3  A    between atoms: C_10  and  C_11
REMARK    4  A    between atoms: N_13  and  C_14
REMARK    5  A    between atoms: C_14  and  C_15
REMARK    6  A    between atoms: C_18  and  N_19
REMARK    7  A    between atoms: N_19  and  C_20
REMARK    8  A    between atoms: N_19  and  C_21
REMARK    9  A    between atoms: C_21  and  C_22
REMARK                            x       y       z     vdW  Elec       q    Type
REMARK                         _______ _______ _______ _____ _____    ______ ____
ROOT
ATOM      1  C   UNL     1      50.517   7.997  14.115  0.00  0.00    +0.000 C 
ENDROOT
BRANCH   1   2
ATOM      2  C   UNL     1      49.136   7.974  13.509  0.00  0.00    +0.000 A 
ATOM      3  C   UNL     1      48.886   7.329  12.298  0.00  0.00    +0.000 A 
ATOM      4  C   UNL     1      47.578   7.241  11.785  0.00  0.00    +0.000 A 
ATOM      5  C   UNL     1      46.466   7.815  12.432  0.00  0.00    +0.000 A 
ATOM      6  C   UNL     1      46.763   8.531  13.603  0.00  0.00    +0.000 A 
ATOM      7  C   UNL     1      48.064   8.607  14.137  0.00  0.00    +0.000 A 
BRANCH   5   8
ATOM      8  N   UNL     1      45.164   7.718  11.926  0.00  0.00    +0.000 N 
ATOM      9  C   UNL     1      44.602   8.852  11.185  0.00  0.00    +0.000 C 
BRANCH   8  10
ATOM     10  C   UNL     1      44.569   6.400  11.608  0.00  0.00    +0.000 C 
BRANCH  10  11
ATOM     11  C   UNL     1      44.183   5.617  12.888  0.00  0.00    +0.000 C 
ATOM     12  C   UNL     1      45.348   4.729  13.371  0.00  0.00    +0.000 C 
ATOM     13  C   UNL     1      45.552   3.488  12.496  0.00  0.00    +0.000 C 
ATOM     14  N   UNL     1      44.325   2.707  12.336  0.00  0.00    +0.000 NA
ATOM     15  C   UNL     1      43.232   3.524  11.809  0.00  0.00    +0.000 C 
ATOM     16  C   UNL     1      42.945   4.722  12.714  0.00  0.00    +0.000 C 
ATOM     17  H   UNL     1      44.048   2.335  13.244  0.00  0.00    +0.000 HD
ENDBRANCH  10  11
ENDBRANCH   8  10
ENDBRANCH   5   8
ENDBRANCH   1   2
BRANCH   1  20
ATOM     18  C   UNL     1      51.619   7.078  16.119  0.00  0.00    +0.000 C 
ATOM     19  O   UNL     1      52.685   6.958  15.525  0.00  0.00    +0.000 OA
ATOM     20  N   UNL     1      50.508   7.586  15.495  0.00  0.00    +0.000 N 
ATOM     21  H   UNL     1      49.632   7.661  15.994  0.00  0.00    +0.000 HD
BRANCH  18  29
ATOM     22  C   UNL     1      49.291   5.191  17.812  0.00  0.00    +0.000 A 
ATOM     23  N   UNL     1      48.570   4.463  18.685  0.00  0.00    +0.000 NA
ATOM     24  C   UNL     1      48.990   4.411  19.953  0.00  0.00    +0.000 A 
ATOM     25  N   UNL     1      50.059   5.015  20.467  0.00  0.00    +0.000 NA
ATOM     26  C   UNL     1      50.756   5.716  19.558  0.00  0.00    +0.000 A 
ATOM     27  S   UNL     1      52.148   6.561  20.035  0.00  0.00    +0.000 S 
ATOM     28  C   UNL     1      52.417   7.113  18.451  0.00  0.00    +0.000 A 
ATOM     29  C   UNL     1      51.473   6.675  17.531  0.00  0.00    +0.000 A 
ATOM     30  C   UNL     1      50.467   5.852  18.205  0.00  0.00    +0.000 A 
BRANCH  22  32
ATOM     31  C   UNL     1      47.701   4.455  16.260  0.00  0.00    +0.000 C 
ATOM     32  O   UNL     1      48.858   5.249  16.505  0.00  0.00    +0.000 OA
ENDBRANCH  22  32
ENDBRANCH  18  29
ENDBRANCH   1  20
TORSDOF 7
ENDMDL
MODEL 8
REMARK VINA RESULT:    -6.143      6.208     10.146
REMARK INTER + INTRA:          -9.730
REMARK INTER:                  -8.435
REMARK INTRA:                  -1.295
REMARK UNBOUND:                -1.073
REMARK  Name = 
REMARK  9 active torsions:
REMARK  status: ('A' for Active; 'I' for Inactive)
REMARK    1  A    between atoms: C_1  and  O_2
REMARK    2  A    between atoms: O_2  and  C_3
REMARK    3  A    between atoms: C_10  and  C_11
REMARK    4  A    between atoms: N_13  and  C_14
REMARK    5  A    between atoms: C_14  and  C_15
REMARK    6  A    between atoms: C_18  and  N_19
REMARK    7  A    between atoms: N_19  and  C_20
REMARK    8  A    between atoms: N_19  and  C_21
REMARK    9  A    between atoms: C_21  and  C_22
REMARK                            x       y       z     vdW  Elec       q    Type
REMARK                         _______ _______ _______ _____ _____    ______ ____
ROOT
ATOM      1  C   UNL     1      51.225   8.895  11.908  0.00  0.00    +0.000 C 
ENDROOT
BRANCH   1   2
ATOM      2  C   UNL     1      50.028   8.098  12.363  0.00  0.00    +0.000 A 
ATOM      3  C   UNL     1      48.997   7.770  11.483  0.00  0.00    +0.000 A 
ATOM      4  C   UNL     1      47.928   6.953  11.899  0.00  0.00    +0.000 A 
ATOM      5  C   UNL     1      47.817   6.452  13.211  0.00  0.00    +0.000 A 
ATOM      6  C   UNL     1      48.824   6.872  14.095  0.00  0.00    +0.000 A 
ATOM      7  C   UNL     1      49.910   7.670  13.686  0.00  0.00    +0.000 A 
BRANCH   5   8
ATOM      8  N   UNL     1      46.759   5.632  13.619  0.00  0.00    +0.000 N 
ATOM      9  C   UNL     1      46.934   4.778  14.798  0.00  0.00    +0.000 C 
BRANCH   8  10
ATOM     10  C   UNL     1      45.357   5.984  13.299  0.00  0.00    +0.000 C 
BRANCH  10  11
ATOM     11  C   UNL     1      44.525   4.740  12.898  0.00  0.00    +0.000 C 
ATOM     12  C   UNL     1      45.082   4.084  11.619  0.00  0.00    +0.000 C 
ATOM     13  C   UNL     1      44.764   4.887  10.353  0.00  0.00    +0.000 C 
ATOM     14  N   UNL     1      43.336   5.176  10.217  0.00  0.00    +0.000 NA
ATOM     15  C   UNL     1      42.812   5.864  11.398  0.00  0.00    +0.000 C 
ATOM     16  C   UNL     1      43.036   5.042  12.667  0.00  0.00    +0.000 C 
ATOM     17  H   UNL     1      42.829   4.300  10.098  0.00  0.00    +0.000 HD
ENDBRANCH  10  11
ENDBRANCH   8  10
ENDBRANCH   5   8
ENDBRANCH   1   2
BRANCH   1  20
ATOM     18  C   UNL     1      52.575   9.249   9.877  0.00  0.00    +0.000 C 
ATOM     19  O   UNL     1      53.097  10.252  10.351  0.00  0.00    +0.000 OA
ATOM     20  N   UNL     1      51.649   8.524  10.584  0.00  0.00    +0.000 N 
ATOM     21  H   UNL     1      51.215   7.709  10.170  0.00  0.00    +0.000 HD
BRANCH  18  29
ATOM     22  C   UNL     1      53.406   6.167   8.589  0.00  0.00    +0.000 A 
ATOM     23  N   UNL     1      53.693   5.090   7.834  0.00  0.00    +0.000 NA
ATOM     24  C   UNL     1      53.850   5.271   6.519  0.00  0.00    +0.000 A 
ATOM     25  N   UNL     1      53.761   6.420   5.854  0.00  0.00    +0.000 NA
ATOM     26  C   UNL     1      53.458   7.464   6.642  0.00  0.00    +0.000 A 
ATOM     27  S   UNL     1      53.310   9.013   5.967  0.00  0.00    +0.000 S 
ATOM     28  C   UNL     1      52.936   9.692   7.479  0.00  0.00    +0.000 A 
ATOM     29  C   UNL     1      52.910   8.773   8.521  0.00  0.00    +0.000 A 
ATOM     30  C   UNL     1      53.243   7.440   8.016  0.00  0.00    +0.000 A 
BRANCH  22  32
ATOM     31  C   UNL     1      54.472   6.062  10.670  0.00  0.00    +0.000 C 
ATOM     32  O   UNL     1      53.248   5.984   9.945  0.00  0.00    +0.000 OA
ENDBRANCH  22  32
ENDBRANCH  18  29
ENDBRANCH   1  20
TORSDOF 7
ENDMDL
MODEL 9
REMARK VINA RESULT:    -5.875      4.165      5.827
REMARK INTER + INTRA:          -9.353
REMARK INTER:                  -8.095
REMARK INTRA:                  -1.258
REMARK UNBOUND:                -1.073
REMARK  Name = 
REMARK  9 active torsions:
REMARK  status: ('A' for Active; 'I' for Inactive)
REMARK    1  A    between atoms: C_1  and  O_2
REMARK    2  A    between atoms: O_2  and  C_3
REMARK    3  A    between atoms: C_10  and  C_11
REMARK    4  A    between atoms: N_13  and  C_14
REMARK    5  A    between atoms: C_14  and  C_15
REMARK    6  A    between atoms: C_18  and  N_19
REMARK    7  A    between atoms: N_19  and  C_20
REMARK    8  A    between atoms: N_19  and  C_21
REMARK    9  A    between atoms: C_21  and  C_22
REMARK                            x       y       z     vdW  Elec       q    Type
REMARK                         _______ _______ _______ _____ _____    ______ ____
ROOT
ATOM      1  C   UNL     1      47.724   7.784  11.607  0.00  0.00    +0.000 C 
ENDROOT
BRANCH   1   2
ATOM      2  C   UNL     1      48.341   7.995  12.966  0.00  0.00    +0.000 A 
ATOM      3  C   UNL     1      47.699   8.753  13.945  0.00  0.00    +0.000 A 
ATOM      4  C   UNL     1      48.246   8.872  15.237  0.00  0.00    +0.000 A 
ATOM      5  C   UNL     1      49.466   8.272  15.608  0.00  0.00    +0.000 A 
ATOM      6  C   UNL     1      50.129   7.588  14.576  0.00  0.00    +0.000 A 
ATOM      7  C   UNL     1      49.583   7.444  13.286  0.00  0.00    +0.000 A 
BRANCH   5   8
ATOM      8  N   UNL     1      50.002   8.383  16.896  0.00  0.00    +0.000 N 
ATOM      9  C   UNL     1      50.512   9.682  17.345  0.00  0.00    +0.000 C 
BRANCH   8  10
ATOM     10  C   UNL     1      49.578   7.464  17.976  0.00  0.00    +0.000 C 
BRANCH  10  11
ATOM     11  C   UNL     1      49.698   5.979  17.554  0.00  0.00    +0.000 C 
ATOM     12  C   UNL     1      48.317   5.379  17.222  0.00  0.00    +0.000 C 
ATOM     13  C   UNL     1      47.472   5.107  18.471  0.00  0.00    +0.000 C 
ATOM     14  N   UNL     1      48.178   4.289  19.458  0.00  0.00    +0.000 NA
ATOM     15  C   UNL     1      49.460   4.887  19.834  0.00  0.00    +0.000 C 
ATOM     16  C   UNL     1      50.361   5.086  18.616  0.00  0.00    +0.000 C 
ATOM     17  H   UNL     1      48.352   3.366  19.062  0.00  0.00    +0.000 HD
ENDBRANCH  10  11
ENDBRANCH   8  10
ENDBRANCH   5   8
ENDBRANCH   1   2
BRANCH   1  20
ATOM     18  C   UNL     1      45.565   6.598  11.669  0.00  0.00    +0.000 C 
ATOM     19  O   UNL     1      44.947   7.648  11.814  0.00  0.00    +0.000 OA
ATOM     20  N   UNL     1      46.931   6.584  11.553  0.00  0.00    +0.000 N 
ATOM     21  H   UNL     1      47.426   5.707  11.453  0.00  0.00    +0.000 HD
BRANCH  18  29
ATOM     22  C   UNL     1      45.300   4.151   9.263  0.00  0.00    +0.000 A 
ATOM     23  N   UNL     1      45.085   3.040   8.533  0.00  0.00    +0.000 NA
ATOM     24  C   UNL     1      44.353   2.064   9.079  0.00  0.00    +0.000 A 
ATOM     25  N   UNL     1      43.791   2.066  10.286  0.00  0.00    +0.000 NA
ATOM     26  C   UNL     1      44.045   3.185  10.984  0.00  0.00    +0.000 A 
ATOM     27  S   UNL     1      43.402   3.366  12.544  0.00  0.00    +0.000 S 
ATOM     28  C   UNL     1      44.129   4.892  12.720  0.00  0.00    +0.000 A 
ATOM     29  C   UNL     1      44.871   5.296  11.618  0.00  0.00    +0.000 A 
ATOM     30  C   UNL     1      44.801   4.276  10.570  0.00  0.00    +0.000 A 
BRANCH  22  32
ATOM     31  C   UNL     1      46.873   4.716   7.624  0.00  0.00    +0.000 C 
ATOM     32  O   UNL     1      46.052   5.160   8.700  0.00  0.00    +0.000 OA
ENDBRANCH  22  32
ENDBRANCH  18  29
ENDBRANCH   1  20
TORSDOF 7
ENDMDL
