MODEL 1
REMARK VINA RESULT:    -7.734      0.000      0.000
REMARK INTER + INTRA:         -11.116
REMARK INTER:                 -10.674
REMARK INTRA:                  -0.442
REMARK UNBOUND:                -0.442
REMARK  Name = 
REMARK  7 active torsions:
REMARK  status: ('A' for Active; 'I' for Inactive)
REMARK    1  A    between atoms: N_1  and  C_2
REMARK    2  A    between atoms: C_2  and  C_3
REMARK    3  A    between atoms: C_3  and  C_4
REMARK    4  A    between atoms: C_7  and  C_8
REMARK    5  A    between atoms: C_8  and  O_9
REMARK    6  A    between atoms: O_9  and  C_10
REMARK    7  A    between atoms: C_16  and  N_17
REMARK                            x       y       z     vdW  Elec       q    Type
REMARK                         _______ _______ _______ _____ _____    ______ ____
ROOT
ATOM      1  C   UNL     1      43.406   4.805  10.699  0.00  0.00    +0.000 C 
ENDROOT
BRANCH   1   5
ATOM      2  C   UNL     1      45.964   2.416   8.150  0.00  0.00    +0.000 A 
ATOM      3  C   UNL     1      45.118   1.804   9.083  0.00  0.00    +0.000 A 
ATOM      4  C   UNL     1      44.300   2.575   9.915  0.00  0.00    +0.000 A 
ATOM      5  C   UNL     1      44.301   3.972   9.815  0.00  0.00    +0.000 A 
ATOM      6  C   UNL     1      45.142   4.584   8.878  0.00  0.00    +0.000 A 
ATOM      7  C   UNL     1      45.960   3.813   8.047  0.00  0.00    +0.000 A 
BRANCH   2   8
ATOM      8  C   UNL     1      46.876   1.586   7.280  0.00  0.00    +0.000 C 
BRANCH   8   9
ATOM      9  C   UNL     1      48.073   2.379   6.748  0.00  0.00    +0.000 C 
BRANCH   9  10
ATOM     10  N   UNL     1      48.439   1.928   5.404  0.00  0.00    +0.000 NA
ATOM     11  H   UNL     1      48.932   2.676   4.919  0.00  0.00    +0.000 HD
ATOM     12  H   UNL     1      47.595   1.744   4.863  0.00  0.00    +0.000 HD
ENDBRANCH   9  10
ENDBRANCH   8   9
ENDBRANCH   2   8
ENDBRANCH   1   5
BRANCH   1  13
ATOM     13  O   UNL     1      43.887   4.772  12.045  0.00  0.00    +0.000 OA
BRANCH  13  14
ATOM     14  C   UNL     1      44.821   5.752  12.302  0.00  0.00    +0.000 A 
ATOM     15  N   UNL     1      44.642   6.974  11.738  0.00  0.00    +0.000 NA
ATOM     16  C   UNL     1      45.595   7.914  11.960  0.00  0.00    +0.000 A 
ATOM     17  C   UNL     1      46.732   7.696  12.724  0.00  0.00    +0.000 A 
ATOM     18 CL   UNL     1      47.894   8.939  12.940  0.00  0.00    +0.000 Cl
ATOM     19  C   UNL     1      46.911   6.448  13.304  0.00  0.00    +0.000 A 
ATOM     20  C   UNL     1      45.932   5.472  13.083  0.00  0.00    +0.000 A 
BRANCH  20  21
ATOM     21  N   UNL     1      46.108   4.168  13.660  0.00  0.00    +0.000 N 
ATOM     22  O   UNL     1      46.383   4.108  14.865  0.00  0.00    +0.000 OA
ATOM     23  O   UNL     1      46.052   3.206  12.882  0.00  0.00    +0.000 OA
ENDBRANCH  20  21
ENDBRANCH  13  14
ENDBRANCH   1  13
TORSDOF 7
ENDMDL
MODEL 2
REMARK VINA RESULT:    -6.821      2.248      2.762
REMARK INTER + INTRA:          -9.856
REMARK INTER:                  -9.266
REMARK INTRA:                  -0.590
REMARK UNBOUND:                -0.442
REMARK  Name = 
REMARK  7 active torsions:
REMARK  status: ('A' for Active; 'I' for Inactive)
REMARK    1  A    between atoms: N_1  and  C_2
REMARK    2  A    between atoms: C_2  and  C_3
REMARK    3  A    between atoms: C_3  and  C_4
REMARK    4  A    between atoms: C_7  and  C_8
REMARK    5  A    between atoms: C_8  and  O_9
REMARK    6  A    between atoms: O_9  and  C_10
REMARK    7  A    between atoms: C_16  and  N_17
REMARK                            x       y       z     vdW  Elec       q    Type
REMARK                         _______ _______ _______ _____ _____    ______ ____
ROOT
ATOM      1  C   UNL     1      44.516   4.378  11.751  0.00  0.00    +0.000 C 
ENDROOT
BRANCH   1   5
ATOM      2  C   UNL     1      45.890   3.290   7.793  0.00  0.00    +0.000 A 
ATOM      3  C   UNL     1      45.341   2.324   8.645  0.00  0.00    +0.000 A 
ATOM      4  C   UNL     1      44.908   2.672   9.928  0.00  0.00    +0.000 A 
ATOM      5  C   UNL     1      45.000   3.996  10.374  0.00  0.00    +0.000 A 
ATOM      6  C   UNL     1      45.543   4.963   9.519  0.00  0.00    +0.000 A 
ATOM      7  C   UNL     1      45.976   4.614   8.236  0.00  0.00    +0.000 A 
BRANCH   2   8
ATOM      8  C   UNL     1      46.395   2.906   6.423  0.00  0.00    +0.000 C 
BRANCH   8   9
ATOM      9  C   UNL     1      47.290   1.664   6.445  0.00  0.00    +0.000 C 
BRANCH   9  10
ATOM     10  N   UNL     1      48.530   1.905   5.705  0.00  0.00    +0.000 NA
ATOM     11  H   UNL     1      49.250   1.265   6.035  0.00  0.00    +0.000 HD
ATOM     12  H   UNL     1      48.871   2.845   5.904  0.00  0.00    +0.000 HD
ENDBRANCH   9  10
ENDBRANCH   8   9
ENDBRANCH   2   8
ENDBRANCH   1   5
BRANCH   1  13
ATOM     13  O   UNL     1      45.102   5.623  12.142  0.00  0.00    +0.000 OA
BRANCH  13  14
ATOM     14  C   UNL     1      46.027   5.483  13.154  0.00  0.00    +0.000 A 
ATOM     15  N   UNL     1      45.894   4.433  14.005  0.00  0.00    +0.000 NA
ATOM     16  C   UNL     1      46.783   4.336  15.026  0.00  0.00    +0.000 A 
ATOM     17  C   UNL     1      47.810   5.243  15.245  0.00  0.00    +0.000 A 
ATOM     18 CL   UNL     1      48.881   5.051  16.571  0.00  0.00    +0.000 Cl
ATOM     19  C   UNL     1      47.948   6.312  14.371  0.00  0.00    +0.000 A 
ATOM     20  C   UNL     1      47.037   6.419  13.313  0.00  0.00    +0.000 A 
BRANCH  20  21
ATOM     21  N   UNL     1      47.151   7.530  12.407  0.00  0.00    +0.000 N 
ATOM     22  O   UNL     1      46.457   8.528  12.637  0.00  0.00    +0.000 OA
ATOM     23  O   UNL     1      47.878   7.366  11.418  0.00  0.00    +0.000 OA
ENDBRANCH  20  21
ENDBRANCH  13  14
ENDBRANCH   1  13
TORSDOF 7
ENDMDL
MODEL 3
REMARK VINA RESULT:    -6.733      1.622      2.634
REMARK INTER + INTRA:          -9.734
REMARK INTER:                 -10.573
REMARK INTRA:                   0.838
REMARK UNBOUND:                -0.442
REMARK  Name = 
REMARK  7 active torsions:
REMARK  status: ('A' for Active; 'I' for Inactive)
REMARK    1  A    between atoms: N_1  and  C_2
REMARK    2  A    between atoms: C_2  and  C_3
REMARK    3  A    between atoms: C_3  and  C_4
REMARK    4  A    between atoms: C_7  and  C_8
REMARK    5  A    between atoms: C_8  and  O_9
REMARK    6  A    between atoms: O_9  and  C_10
REMARK    7  A    between atoms: C_16  and  N_17
REMARK                            x       y       z     vdW  Elec       q    Type
REMARK                         _______ _______ _______ _____ _____    ______ ____
ROOT
ATOM      1  C   UNL     1      43.295   3.202  11.322  0.00  0.00    +0.000 C 
ENDROOT
BRANCH   1   5
ATOM      2  C   UNL     1      45.856   3.011   7.837  0.00  0.00    +0.000 A 
ATOM      3  C   UNL     1      45.432   4.247   8.340  0.00  0.00    +0.000 A 
ATOM      4  C   UNL     1      44.595   4.309   9.459  0.00  0.00    +0.000 A 
ATOM      5  C   UNL     1      44.183   3.137  10.104  0.00  0.00    +0.000 A 
ATOM      6  C   UNL     1      44.612   1.901   9.604  0.00  0.00    +0.000 A 
ATOM      7  C   UNL     1      45.449   1.839   8.486  0.00  0.00    +0.000 A 
BRANCH   2   8
ATOM      8  C   UNL     1      46.727   2.942   6.606  0.00  0.00    +0.000 C 
BRANCH   8   9
ATOM      9  C   UNL     1      47.568   1.664   6.543  0.00  0.00    +0.000 C 
BRANCH   9  10
ATOM     10  N   UNL     1      48.618   1.783   5.530  0.00  0.00    +0.000 NA
ATOM     11  H   UNL     1      48.197   2.028   4.635  0.00  0.00    +0.000 HD
ATOM     12  H   UNL     1      49.068   0.878   5.395  0.00  0.00    +0.000 HD
ENDBRANCH   9  10
ENDBRANCH   8   9
ENDBRANCH   2   8
ENDBRANCH   1   5
BRANCH   1  13
ATOM     13  O   UNL     1      44.024   2.774  12.476  0.00  0.00    +0.000 OA
BRANCH  13  14
ATOM     14  C   UNL     1      45.010   3.663  12.845  0.00  0.00    +0.000 A 
ATOM     15  N   UNL     1      46.253   3.178  13.095  0.00  0.00    +0.000 NA
ATOM     16  C   UNL     1      47.201   4.058  13.505  0.00  0.00    +0.000 A 
ATOM     17  C   UNL     1      46.970   5.415  13.680  0.00  0.00    +0.000 A 
ATOM     18 CL   UNL     1      48.224   6.455  14.216  0.00  0.00    +0.000 Cl
ATOM     19  C   UNL     1      45.700   5.911  13.418  0.00  0.00    +0.000 A 
ATOM     20  C   UNL     1      44.716   5.010  12.992  0.00  0.00    +0.000 A 
BRANCH  20  21
ATOM     21  N   UNL     1      43.390   5.501  12.734  0.00  0.00    +0.000 N 
ATOM     22  O   UNL     1      43.244   6.278  11.782  0.00  0.00    +0.000 OA
ATOM     23  O   UNL     1      42.510   5.169  13.539  0.00  0.00    +0.000 OA
ENDBRANCH  20  21
ENDBRANCH  13  14
ENDBRANCH   1  13
TORSDOF 7
ENDMDL
MODEL 4
REMARK VINA RESULT:    -6.575      2.313      3.236
REMARK INTER + INTRA:          -9.516
REMARK INTER:                  -8.976
REMARK INTRA:                  -0.540
REMARK UNBOUND:                -0.442
REMARK  Name = 
REMARK  7 active torsions:
REMARK  status: ('A' for Active; 'I' for Inactive)
REMARK    1  A    between atoms: N_1  and  C_2
REMARK    2  A    between atoms: C_2  and  C_3
REMARK    3  A    between atoms: C_3  and  C_4
REMARK    4  A    between atoms: C_7  and  C_8
REMARK    5  A    between atoms: C_8  and  O_9
REMARK    6  A    between atoms: O_9  and  C_10
REMARK    7  A    between atoms: C_16  and  N_17
REMARK                            x       y       z     vdW  Elec       q    Type
REMARK                         _______ _______ _______ _____ _____    ______ ____
ROOT
ATOM      1  C   UNL     1      45.262   4.856  13.330  0.00  0.00    +0.000 C 
ENDROOT
BRANCH   1   5
ATOM      2  C   UNL     1      45.192   3.864   9.116  0.00  0.00    +0.000 A 
ATOM      3  C   UNL     1      45.641   5.120   9.544  0.00  0.00    +0.000 A 
ATOM      4  C   UNL     1      45.652   5.445  10.903  0.00  0.00    +0.000 A 
ATOM      5  C   UNL     1      45.233   4.514  11.861  0.00  0.00    +0.000 A 
ATOM      6  C   UNL     1      44.789   3.256  11.434  0.00  0.00    +0.000 A 
ATOM      7  C   UNL     1      44.778   2.930  10.074  0.00  0.00    +0.000 A 
BRANCH   2   8
ATOM      8  C   UNL     1      45.141   3.527   7.646  0.00  0.00    +0.000 C 
BRANCH   8   9
ATOM      9  C   UNL     1      46.512   3.157   7.073  0.00  0.00    +0.000 C 
BRANCH   9  10
ATOM     10  N   UNL     1      46.828   3.984   5.908  0.00  0.00    +0.000 NA
ATOM     11  H   UNL     1      47.235   4.865   6.219  0.00  0.00    +0.000 HD
ATOM     12  H   UNL     1      45.969   4.226   5.415  0.00  0.00    +0.000 HD
ENDBRANCH   9  10
ENDBRANCH   8   9
ENDBRANCH   2   8
ENDBRANCH   1   5
BRANCH   1  13
ATOM     13  O   UNL     1      46.364   4.195  13.959  0.00  0.00    +0.000 OA
BRANCH  13  14
ATOM     14  C   UNL     1      47.213   5.069  14.602  0.00  0.00    +0.000 A 
ATOM     15  N   UNL     1      47.426   6.287  14.043  0.00  0.00    +0.000 NA
ATOM     16  C   UNL     1      48.303   7.118  14.661  0.00  0.00    +0.000 A 
ATOM     17  C   UNL     1      48.988   6.792  15.823  0.00  0.00    +0.000 A 
ATOM     18 CL   UNL     1      50.090   7.899  16.530  0.00  0.00    +0.000 Cl
ATOM     19  C   UNL     1      48.764   5.549  16.397  0.00  0.00    +0.000 A 
ATOM     20  C   UNL     1      47.859   4.685  15.768  0.00  0.00    +0.000 A 
BRANCH  20  21
ATOM     21  N   UNL     1      47.629   3.386  16.336  0.00  0.00    +0.000 N 
ATOM     22  O   UNL     1      48.346   2.456  15.946  0.00  0.00    +0.000 OA
ATOM     23  O   UNL     1      46.671   3.283  17.114  0.00  0.00    +0.000 OA
ENDBRANCH  20  21
ENDBRANCH  13  14
ENDBRANCH   1  13
TORSDOF 7
ENDMDL
MODEL 5
REMARK VINA RESULT:    -6.238      3.552      4.723
REMARK INTER + INTRA:          -9.051
REMARK INTER:                  -8.576
REMARK INTRA:                  -0.475
REMARK UNBOUND:                -0.442
REMARK  Name = 
REMARK  7 active torsions:
REMARK  status: ('A' for Active; 'I' for Inactive)
REMARK    1  A    between atoms: N_1  and  C_2
REMARK    2  A    between atoms: C_2  and  C_3
REMARK    3  A    between atoms: C_3  and  C_4
REMARK    4  A    between atoms: C_7  and  C_8
REMARK    5  A    between atoms: C_8  and  O_9
REMARK    6  A    between atoms: O_9  and  C_10
REMARK    7  A    between atoms: C_16  and  N_17
REMARK                            x       y       z     vdW  Elec       q    Type
REMARK                         _______ _______ _______ _____ _____    ______ ____
ROOT
ATOM      1  C   UNL     1      45.990   4.980  14.001  0.00  0.00    +0.000 C 
ENDROOT
BRANCH   1   5
ATOM      2  C   UNL     1      45.149   4.291   9.810  0.00  0.00    +0.000 A 
ATOM      3  C   UNL     1      45.620   5.536  10.245  0.00  0.00    +0.000 A 
ATOM      4  C   UNL     1      45.880   5.763  11.600  0.00  0.00    +0.000 A 
ATOM      5  C   UNL     1      45.692   4.743  12.541  0.00  0.00    +0.000 A 
ATOM      6  C   UNL     1      45.227   3.496  12.104  0.00  0.00    +0.000 A 
ATOM      7  C   UNL     1      44.966   3.269  10.749  0.00  0.00    +0.000 A 
BRANCH   2   8
ATOM      8  C   UNL     1      44.829   4.058   8.353  0.00  0.00    +0.000 C 
BRANCH   8   9
ATOM      9  C   UNL     1      45.923   3.274   7.622  0.00  0.00    +0.000 C 
BRANCH   9  10
ATOM     10  N   UNL     1      46.744   4.168   6.804  0.00  0.00    +0.000 NA
ATOM     11  H   UNL     1      47.728   3.941   6.939  0.00  0.00    +0.000 HD
ATOM     12  H   UNL     1      46.627   5.130   7.124  0.00  0.00    +0.000 HD
ENDBRANCH   9  10
ENDBRANCH   8   9
ENDBRANCH   2   8
ENDBRANCH   1   5
BRANCH   1  13
ATOM     13  O   UNL     1      47.397   4.865  14.232  0.00  0.00    +0.000 OA
BRANCH  13  14
ATOM     14  C   UNL     1      47.705   4.668  15.561  0.00  0.00    +0.000 A 
ATOM     15  N   UNL     1      47.185   3.582  16.187  0.00  0.00    +0.000 NA
ATOM     16  C   UNL     1      47.456   3.428  17.508  0.00  0.00    +0.000 A 
ATOM     17  C   UNL     1      48.229   4.314  18.246  0.00  0.00    +0.000 A 
ATOM     18 CL   UNL     1      48.509   4.049  19.917  0.00  0.00    +0.000 Cl
ATOM     19  C   UNL     1      48.764   5.421  17.602  0.00  0.00    +0.000 A 
ATOM     20  C   UNL     1      48.492   5.587  16.239  0.00  0.00    +0.000 A 
BRANCH  20  21
ATOM     21  N   UNL     1      49.021   6.737  15.559  0.00  0.00    +0.000 N 
ATOM     22  O   UNL     1      48.257   7.691  15.370  0.00  0.00    +0.000 OA
ATOM     23  O   UNL     1      50.184   6.647  15.142  0.00  0.00    +0.000 OA
ENDBRANCH  20  21
ENDBRANCH  13  14
ENDBRANCH   1  13
TORSDOF 7
ENDMDL
MODEL 6
REMARK VINA RESULT:    -6.189      3.977      5.704
REMARK INTER + INTRA:          -8.983
REMARK INTER:                  -8.471
REMARK INTRA:                  -0.512
REMARK UNBOUND:                -0.442
REMARK  Name = 
REMARK  7 active torsions:
REMARK  status: ('A' for Active; 'I' for Inactive)
REMARK    1  A    between atoms: N_1  and  C_2
REMARK    2  A    between atoms: C_2  and  C_3
REMARK    3  A    between atoms: C_3  and  C_4
REMARK    4  A    between atoms: C_7  and  C_8
REMARK    5  A    between atoms: C_8  and  O_9
REMARK    6  A    between atoms: O_9  and  C_10
REMARK    7  A    between atoms: C_16  and  N_17
REMARK                            x       y       z     vdW  Elec       q    Type
REMARK                         _______ _______ _______ _____ _____    ______ ____
ROOT
ATOM      1  C   UNL     1      48.235   6.662  14.266  0.00  0.00    +0.000 C 
ENDROOT
BRANCH   1   5
ATOM      2  C   UNL     1      45.366   4.809  11.605  0.00  0.00    +0.000 A 
ATOM      3  C   UNL     1      46.015   5.994  11.236  0.00  0.00    +0.000 A 
ATOM      4  C   UNL     1      46.933   6.599  12.100  0.00  0.00    +0.000 A 
ATOM      5  C   UNL     1      47.231   6.020  13.340  0.00  0.00    +0.000 A 
ATOM      6  C   UNL     1      46.586   4.832  13.705  0.00  0.00    +0.000 A 
ATOM      7  C   UNL     1      45.669   4.227  12.842  0.00  0.00    +0.000 A 
BRANCH   2   8
ATOM      8  C   UNL     1      44.345   4.177  10.690  0.00  0.00    +0.000 C 
BRANCH   8   9
ATOM      9  C   UNL     1      43.095   3.700  11.434  0.00  0.00    +0.000 C 
BRANCH   9  10
ATOM     10  N   UNL     1      43.056   2.238  11.500  0.00  0.00    +0.000 NA
ATOM     11  H   UNL     1      43.367   1.933  12.421  0.00  0.00    +0.000 HD
ATOM     12  H   UNL     1      43.719   1.847  10.831  0.00  0.00    +0.000 HD
ENDBRANCH   9  10
ENDBRANCH   8   9
ENDBRANCH   2   8
ENDBRANCH   1   5
BRANCH   1  13
ATOM     13  O   UNL     1      48.742   5.686  15.181  0.00  0.00    +0.000 OA
BRANCH  13  14
ATOM     14  C   UNL     1      48.498   6.011  16.497  0.00  0.00    +0.000 A 
ATOM     15  N   UNL     1      48.754   7.281  16.903  0.00  0.00    +0.000 NA
ATOM     16  C   UNL     1      48.555   7.574  18.214  0.00  0.00    +0.000 A 
ATOM     17  C   UNL     1      48.109   6.654  19.151  0.00  0.00    +0.000 A 
ATOM     18 CL   UNL     1      47.900   7.107  20.792  0.00  0.00    +0.000 Cl
ATOM     19  C   UNL     1      47.843   5.358  18.733  0.00  0.00    +0.000 A 
ATOM     20  C   UNL     1      48.043   5.046  17.383  0.00  0.00    +0.000 A 
BRANCH  20  21
ATOM     21  N   UNL     1      47.790   3.705  16.934  0.00  0.00    +0.000 N 
ATOM     22  O   UNL     1      46.624   3.296  16.981  0.00  0.00    +0.000 OA
ATOM     23  O   UNL     1      48.780   3.033  16.612  0.00  0.00    +0.000 OA
ENDBRANCH  20  21
ENDBRANCH  13  14
ENDBRANCH   1  13
TORSDOF 7
ENDMDL
MODEL 7
REMARK VINA RESULT:    -6.169      4.007      5.692
REMARK INTER + INTRA:          -8.955
REMARK INTER:                  -8.492
REMARK INTRA:                  -0.463
REMARK UNBOUND:                -0.442
REMARK  Name = 
REMARK  7 active torsions:
REMARK  status: ('A' for Active; 'I' for Inactive)
REMARK    1  A    between atoms: N_1  and  C_2
REMARK    2  A    between atoms: C_2  and  C_3
REMARK    3  A    between atoms: C_3  and  C_4
REMARK    4  A    between atoms: C_7  and  C_8
REMARK    5  A    between atoms: C_8  and  O_9
REMARK    6  A    between atoms: O_9  and  C_10
REMARK    7  A    between atoms: C_16  and  N_17
REMARK                            x       y       z     vdW  Elec       q    Type
REMARK                         _______ _______ _______ _____ _____    ______ ____
ROOT
ATOM      1  C   UNL     1      48.280   6.688  14.381  0.00  0.00    +0.000 C 
ENDROOT
BRANCH   1   5
ATOM      2  C   UNL     1      45.432   4.765  11.747  0.00  0.00    +0.000 A 
ATOM      3  C   UNL     1      45.799   4.164  12.958  0.00  0.00    +0.000 A 
ATOM      4  C   UNL     1      46.727   4.779  13.803  0.00  0.00    +0.000 A 
ATOM      5  C   UNL     1      47.292   6.014  13.461  0.00  0.00    +0.000 A 
ATOM      6  C   UNL     1      46.920   6.617  12.253  0.00  0.00    +0.000 A 
ATOM      7  C   UNL     1      45.991   6.003  11.408  0.00  0.00    +0.000 A 
BRANCH   2   8
ATOM      8  C   UNL     1      44.460   4.083  10.816  0.00  0.00    +0.000 C 
BRANCH   8   9
ATOM      9  C   UNL     1      43.154   3.683  11.508  0.00  0.00    +0.000 C 
BRANCH   9  10
ATOM     10  N   UNL     1      43.041   2.226  11.603  0.00  0.00    +0.000 NA
ATOM     11  H   UNL     1      43.294   1.929  12.545  0.00  0.00    +0.000 HD
ATOM     12  H   UNL     1      43.716   1.789  10.976  0.00  0.00    +0.000 HD
ENDBRANCH   9  10
ENDBRANCH   8   9
ENDBRANCH   2   8
ENDBRANCH   1   5
BRANCH   1  13
ATOM     13  O   UNL     1      48.799   5.738  15.314  0.00  0.00    +0.000 OA
BRANCH  13  14
ATOM     14  C   UNL     1      48.502   6.057  16.622  0.00  0.00    +0.000 A 
ATOM     15  N   UNL     1      48.723   7.330  17.039  0.00  0.00    +0.000 NA
ATOM     16  C   UNL     1      48.472   7.617  18.341  0.00  0.00    +0.000 A 
ATOM     17  C   UNL     1      48.006   6.688  19.261  0.00  0.00    +0.000 A 
ATOM     18 CL   UNL     1      47.730   7.134  20.893  0.00  0.00    +0.000 Cl
ATOM     19  C   UNL     1      47.775   5.389  18.831  0.00  0.00    +0.000 A 
ATOM     20  C   UNL     1      48.029   5.083  17.488  0.00  0.00    +0.000 A 
BRANCH  20  21
ATOM     21  N   UNL     1      47.814   3.739  17.029  0.00  0.00    +0.000 N 
ATOM     22  O   UNL     1      48.798   3.112  16.617  0.00  0.00    +0.000 OA
ATOM     23  O   UNL     1      46.641   3.342  17.005  0.00  0.00    +0.000 OA
ENDBRANCH  20  21
ENDBRANCH  13  14
ENDBRANCH   1  13
TORSDOF 7
ENDMDL
MODEL 8
REMARK VINA RESULT:    -6.048      2.952      6.430
REMARK INTER + INTRA:          -8.788
REMARK INTER:                  -8.321
REMARK INTRA:                  -0.467
REMARK UNBOUND:                -0.442
REMARK  Name = 
REMARK  7 active torsions:
REMARK  status: ('A' for Active; 'I' for Inactive)
REMARK    1  A    between atoms: N_1  and  C_2
REMARK    2  A    between atoms: C_2  and  C_3
REMARK    3  A    between atoms: C_3  and  C_4
REMARK    4  A    between atoms: C_7  and  C_8
REMARK    5  A    between atoms: C_8  and  O_9
REMARK    6  A    between atoms: O_9  and  C_10
REMARK    7  A    between atoms: C_16  and  N_17
REMARK                            x       y       z     vdW  Elec       q    Type
REMARK                         _______ _______ _______ _____ _____    ______ ____
ROOT
ATOM      1  C   UNL     1      45.391   6.830  10.968  0.00  0.00    +0.000 C 
ENDROOT
BRANCH   1   5
ATOM      2  C   UNL     1      48.191   6.712  14.268  0.00  0.00    +0.000 A 
ATOM      3  C   UNL     1      47.341   5.628  14.018  0.00  0.00    +0.000 A 
ATOM      4  C   UNL     1      46.428   5.670  12.960  0.00  0.00    +0.000 A 
ATOM      5  C   UNL     1      46.362   6.790  12.122  0.00  0.00    +0.000 A 
ATOM      6  C   UNL     1      47.216   7.872  12.369  0.00  0.00    +0.000 A 
ATOM      7  C   UNL     1      48.129   7.830  13.427  0.00  0.00    +0.000 A 
BRANCH   2   8
ATOM      8  C   UNL     1      49.148   6.684  15.435  0.00  0.00    +0.000 C 
BRANCH   8   9
ATOM      9  C   UNL     1      48.714   5.713  16.537  0.00  0.00    +0.000 C 
BRANCH   9  10
ATOM     10  N   UNL     1      47.942   6.410  17.567  0.00  0.00    +0.000 NA
ATOM     11  H   UNL     1      47.039   6.685  17.185  0.00  0.00    +0.000 HD
ATOM     12  H   UNL     1      48.417   7.274  17.826  0.00  0.00    +0.000 HD
ENDBRANCH   9  10
ENDBRANCH   8   9
ENDBRANCH   2   8
ENDBRANCH   1   5
BRANCH   1  13
ATOM     13  O   UNL     1      44.595   5.641  10.964  0.00  0.00    +0.000 OA
BRANCH  13  14
ATOM     14  C   UNL     1      45.055   4.695  10.074  0.00  0.00    +0.000 A 
ATOM     15  N   UNL     1      45.688   5.123   8.951  0.00  0.00    +0.000 NA
ATOM     16  C   UNL     1      46.091   4.181   8.060  0.00  0.00    +0.000 A 
ATOM     17  C   UNL     1      45.893   2.819   8.233  0.00  0.00    +0.000 A 
ATOM     18 CL   UNL     1      46.424   1.699   7.048  0.00  0.00    +0.000 Cl
ATOM     19  C   UNL     1      45.252   2.384   9.384  0.00  0.00    +0.000 A 
ATOM     20  C   UNL     1      44.834   3.347  10.311  0.00  0.00    +0.000 A 
BRANCH  20  21
ATOM     21  N   UNL     1      44.150   2.917  11.499  0.00  0.00    +0.000 N 
ATOM     22  O   UNL     1      44.816   2.821  12.538  0.00  0.00    +0.000 OA
ATOM     23  O   UNL     1      42.961   2.597  11.370  0.00  0.00    +0.000 OA
ENDBRANCH  20  21
ENDBRANCH  13  14
ENDBRANCH   1  13
TORSDOF 7
ENDMDL
MODEL 9
REMARK VINA RESULT:    -5.943      4.280      6.158
REMARK INTER + INTRA:          -8.644
REMARK INTER:                  -7.967
REMARK INTRA:                  -0.677
REMARK UNBOUND:                -0.442
REMARK  Name = 
REMARK  7 active torsions:
REMARK  status: ('A' for Active; 'I' for Inactive)
REMARK    1  A    between atoms: N_1  and  C_2
REMARK    2  A    between atoms: C_2  and  C_3
REMARK    3  A    between atoms: C_3  and  C_4
REMARK    4  A    between atoms: C_7  and  C_8
REMARK    5  A    between atoms: C_8  and  O_9
REMARK    6  A    between atoms: O_9  and  C_10
REMARK    7  A    between atoms: C_16  and  N_17
REMARK                            x       y       z     vdW  Elec       q    Type
REMARK                         _______ _______ _______ _____ _____    ______ ____
ROOT
ATOM      1  C   UNL     1      48.346   6.226  14.517  0.00  0.00    +0.000 C 
ENDROOT
BRANCH   1   5
ATOM      2  C   UNL     1      45.154   5.388  11.715  0.00  0.00    +0.000 A 
ATOM      3  C   UNL     1      45.210   4.726  12.947  0.00  0.00    +0.000 A 
ATOM      4  C   UNL     1      46.247   4.987  13.848  0.00  0.00    +0.000 A 
ATOM      5  C   UNL     1      47.236   5.929  13.539  0.00  0.00    +0.000 A 
ATOM      6  C   UNL     1      47.177   6.595  12.309  0.00  0.00    +0.000 A 
ATOM      7  C   UNL     1      46.139   6.334  11.408  0.00  0.00    +0.000 A 
BRANCH   2   8
ATOM      8  C   UNL     1      44.057   5.077  10.726  0.00  0.00    +0.000 C 
BRANCH   8   9
ATOM      9  C   UNL     1      42.670   5.022  11.373  0.00  0.00    +0.000 C 
BRANCH   9  10
ATOM     10  N   UNL     1      42.190   6.369  11.684  0.00  0.00    +0.000 NA
ATOM     11  H   UNL     1      42.213   6.511  12.693  0.00  0.00    +0.000 HD
ATOM     12  H   UNL     1      41.213   6.457  11.406  0.00  0.00    +0.000 HD
ENDBRANCH   9  10
ENDBRANCH   8   9
ENDBRANCH   2   8
ENDBRANCH   1   5
BRANCH   1  13
ATOM     13  O   UNL     1      47.918   5.910  15.845  0.00  0.00    +0.000 OA
BRANCH  13  14
ATOM     14  C   UNL     1      48.921   5.356  16.611  0.00  0.00    +0.000 A 
ATOM     15  N   UNL     1      49.945   6.156  17.005  0.00  0.00    +0.000 NA
ATOM     16  C   UNL     1      50.950   5.585  17.716  0.00  0.00    +0.000 A 
ATOM     17  C   UNL     1      50.987   4.241  18.059  0.00  0.00    +0.000 A 
ATOM     18 CL   UNL     1      52.305   3.599  18.949  0.00  0.00    +0.000 Cl
ATOM     19  C   UNL     1      49.936   3.426  17.660  0.00  0.00    +0.000 A 
ATOM     20  C   UNL     1      48.894   4.007  16.928  0.00  0.00    +0.000 A 
BRANCH  20  21
ATOM     21  N   UNL     1      47.806   3.176  16.489  0.00  0.00    +0.000 N 
ATOM     22  O   UNL     1      47.945   2.569  15.421  0.00  0.00    +0.000 OA
ATOM     23  O   UNL     1      46.778   3.199  17.180  0.00  0.00    +0.000 OA
ENDBRANCH  20  21
ENDBRANCH  13  14
ENDBRANCH   1  13
TORSDOF 7
ENDMDL
