MODEL 1
REMARK VINA RESULT:    -8.452      0.000      0.000
REMARK INTER + INTRA:         -12.784
REMARK INTER:                 -11.416
REMARK INTRA:                  -1.368
REMARK UNBOUND:                -1.368
REMARK  Name = 
REMARK  7 active torsions:
REMARK  status: ('A' for Active; 'I' for Inactive)
REMARK    1  A    between atoms: C_1  and  O_2
REMARK    2  A    between atoms: O_2  and  C_3
REMARK    3  A    between atoms: C_5  and  C_6
REMARK    4  A    between atoms: C_11  and  N_12
REMARK    5  A    between atoms: N_12  and  C_13
REMARK    6  A    between atoms: C_13  and  C_14
REMARK    7  A    between atoms: C_18  and  C_19
REMARK                            x       y       z     vdW  Elec       q    Type
REMARK                         _______ _______ _______ _____ _____    ______ ____
ROOT
ATOM      1  N   UNL     1      44.108   6.651  12.832  0.00  0.00    +0.000 N 
ATOM      2  H   UNL     1      43.809   6.099  13.630  0.00  0.00    +0.000 HD
ENDROOT
BRANCH   1   8
ATOM      3  C   UNL     1      46.485   5.973  13.322  0.00  0.00    +0.000 A 
ATOM      4  C   UNL     1      47.850   6.271  13.172  0.00  0.00    +0.000 A 
ATOM      5  C   UNL     1      48.281   7.442  12.538  0.00  0.00    +0.000 A 
ATOM      6  C   UNL     1      47.324   8.317  12.026  0.00  0.00    +0.000 A 
ATOM      7  C   UNL     1      45.958   8.023  12.167  0.00  0.00    +0.000 A 
ATOM      8  C   UNL     1      45.502   6.864  12.830  0.00  0.00    +0.000 A 
BRANCH   5   9
ATOM      9  C   UNL     1      49.755   7.656  12.440  0.00  0.00    +0.000 C 
ATOM     10  N   UNL     1      50.517   7.537  13.568  0.00  0.00    +0.000 N 
ATOM     11  O   UNL     1      50.294   7.931  11.374  0.00  0.00    +0.000 OA
ATOM     12  H   UNL     1      50.170   7.328  14.489  0.00  0.00    +0.000 HD
ATOM     13  H   UNL     1      51.512   7.695  13.459  0.00  0.00    +0.000 HD
ENDBRANCH   5   9
BRANCH   3  15
ATOM     14  C   UNL     1      46.587   3.587  13.380  0.00  0.00    +0.000 C 
ATOM     15  O   UNL     1      46.072   4.803  13.909  0.00  0.00    +0.000 OA
ENDBRANCH   3  15
ENDBRANCH   1   8
BRANCH   1  16
ATOM     16  C   UNL     1      43.418   6.296  11.601  0.00  0.00    +0.000 C 
BRANCH  16  17
ATOM     17  C   UNL     1      43.716   4.873  11.193  0.00  0.00    +0.000 A 
ATOM     18  C   UNL     1      43.132   3.806  11.875  0.00  0.00    +0.000 A 
ATOM     19  C   UNL     1      43.346   2.524  11.403  0.00  0.00    +0.000 A 
ATOM     20  N   UNL     1      44.113   2.236  10.329  0.00  0.00    +0.000 NA
ATOM     21  C   UNL     1      44.719   3.266   9.685  0.00  0.00    +0.000 A 
ATOM     22  C   UNL     1      44.531   4.590  10.089  0.00  0.00    +0.000 A 
BRANCH  21  23
ATOM     23  C   UNL     1      45.576   2.888   8.537  0.00  0.00    +0.000 A 
ATOM     24  C   UNL     1      46.049   1.567   8.389  0.00  0.00    +0.000 A 
ATOM     25  C   UNL     1      46.868   1.200   7.316  0.00  0.00    +0.000 A 
ATOM     26  C   UNL     1      47.228   2.154   6.376  0.00  0.00    +0.000 A 
ATOM     27  F   UNL     1      48.016   1.809   5.349  0.00  0.00    +0.000 F 
ATOM     28  C   UNL     1      46.788   3.464   6.489  0.00  0.00    +0.000 A 
ATOM     29  C   UNL     1      45.969   3.827   7.563  0.00  0.00    +0.000 A 
ENDBRANCH  21  23
ENDBRANCH  16  17
ENDBRANCH   1  16
TORSDOF 6
ENDMDL
MODEL 2
REMARK VINA RESULT:    -8.076      1.282      2.019
REMARK INTER + INTRA:         -12.277
REMARK INTER:                 -11.215
REMARK INTRA:                  -1.061
REMARK UNBOUND:                -1.368
REMARK  Name = 
REMARK  7 active torsions:
REMARK  status: ('A' for Active; 'I' for Inactive)
REMARK    1  A    between atoms: C_1  and  O_2
REMARK    2  A    between atoms: O_2  and  C_3
REMARK    3  A    between atoms: C_5  and  C_6
REMARK    4  A    between atoms: C_11  and  N_12
REMARK    5  A    between atoms: N_12  and  C_13
REMARK    6  A    between atoms: C_13  and  C_14
REMARK    7  A    between atoms: C_18  and  C_19
REMARK                            x       y       z     vdW  Elec       q    Type
REMARK                         _______ _______ _______ _____ _____    ______ ____
ROOT
ATOM      1  N   UNL     1      43.801   6.523  12.571  0.00  0.00    +0.000 N 
ATOM      2  H   UNL     1      43.465   6.048  13.404  0.00  0.00    +0.000 HD
ENDROOT
BRANCH   1   8
ATOM      3  C   UNL     1      45.890   7.840  12.070  0.00  0.00    +0.000 A 
ATOM      4  C   UNL     1      47.276   7.967  12.259  0.00  0.00    +0.000 A 
ATOM      5  C   UNL     1      48.010   7.016  12.979  0.00  0.00    +0.000 A 
ATOM      6  C   UNL     1      47.334   5.931  13.536  0.00  0.00    +0.000 A 
ATOM      7  C   UNL     1      45.947   5.801  13.355  0.00  0.00    +0.000 A 
ATOM      8  C   UNL     1      45.195   6.730  12.608  0.00  0.00    +0.000 A 
BRANCH   5   9
ATOM      9  C   UNL     1      49.478   7.251  13.113  0.00  0.00    +0.000 C 
ATOM     10  N   UNL     1      50.242   7.318  11.982  0.00  0.00    +0.000 N 
ATOM     11  O   UNL     1      50.008   7.390  14.209  0.00  0.00    +0.000 OA
ATOM     12  H   UNL     1      49.906   7.206  11.041  0.00  0.00    +0.000 HD
ATOM     13  H   UNL     1      51.234   7.475  12.117  0.00  0.00    +0.000 HD
ENDBRANCH   5   9
BRANCH   3  15
ATOM     14  C   UNL     1      44.841   9.986  12.106  0.00  0.00    +0.000 C 
ATOM     15  O   UNL     1      45.173   8.798  11.398  0.00  0.00    +0.000 OA
ENDBRANCH   3  15
ENDBRANCH   1   8
BRANCH   1  16
ATOM     16  C   UNL     1      43.159   6.057  11.351  0.00  0.00    +0.000 C 
BRANCH  16  17
ATOM     17  C   UNL     1      43.607   4.661  10.991  0.00  0.00    +0.000 A 
ATOM     18  C   UNL     1      43.160   3.564  11.728  0.00  0.00    +0.000 A 
ATOM     19  C   UNL     1      43.507   2.296  11.301  0.00  0.00    +0.000 A 
ATOM     20  N   UNL     1      44.280   2.051  10.221  0.00  0.00    +0.000 NA
ATOM     21  C   UNL     1      44.754   3.114   9.523  0.00  0.00    +0.000 A 
ATOM     22  C   UNL     1      44.427   4.425   9.880  0.00  0.00    +0.000 A 
BRANCH  21  23
ATOM     23  C   UNL     1      45.624   2.787   8.370  0.00  0.00    +0.000 A 
ATOM     24  C   UNL     1      46.204   1.507   8.238  0.00  0.00    +0.000 A 
ATOM     25  C   UNL     1      47.037   1.190   7.161  0.00  0.00    +0.000 A 
ATOM     26  C   UNL     1      47.305   2.152   6.199  0.00  0.00    +0.000 A 
ATOM     27  F   UNL     1      48.106   1.854   5.168  0.00  0.00    +0.000 F 
ATOM     28  C   UNL     1      46.759   3.423   6.295  0.00  0.00    +0.000 A 
ATOM     29  C   UNL     1      45.926   3.737   7.374  0.00  0.00    +0.000 A 
ENDBRANCH  21  23
ENDBRANCH  16  17
ENDBRANCH   1  16
TORSDOF 6
ENDMDL
MODEL 3
REMARK VINA RESULT:    -7.914      3.272      6.628
REMARK INTER + INTRA:         -12.057
REMARK INTER:                 -11.101
REMARK INTRA:                  -0.956
REMARK UNBOUND:                -1.368
REMARK  Name = 
REMARK  7 active torsions:
REMARK  status: ('A' for Active; 'I' for Inactive)
REMARK    1  A    between atoms: C_1  and  O_2
REMARK    2  A    between atoms: O_2  and  C_3
REMARK    3  A    between atoms: C_5  and  C_6
REMARK    4  A    between atoms: C_11  and  N_12
REMARK    5  A    between atoms: N_12  and  C_13
REMARK    6  A    between atoms: C_13  and  C_14
REMARK    7  A    between atoms: C_18  and  C_19
REMARK                            x       y       z     vdW  Elec       q    Type
REMARK                         _______ _______ _______ _____ _____    ______ ____
ROOT
ATOM      1  N   UNL     1      43.914   5.564  10.268  0.00  0.00    +0.000 N 
ATOM      2  H   UNL     1      44.061   6.411   9.727  0.00  0.00    +0.000 HD
ENDROOT
BRANCH   1   8
ATOM      3  C   UNL     1      44.317   3.098   9.943  0.00  0.00    +0.000 A 
ATOM      4  C   UNL     1      45.039   2.102   9.265  0.00  0.00    +0.000 A 
ATOM      5  C   UNL     1      46.062   2.420   8.363  0.00  0.00    +0.000 A 
ATOM      6  C   UNL     1      46.347   3.763   8.123  0.00  0.00    +0.000 A 
ATOM      7  C   UNL     1      45.625   4.765   8.792  0.00  0.00    +0.000 A 
ATOM      8  C   UNL     1      44.613   4.465   9.728  0.00  0.00    +0.000 A 
BRANCH   5   9
ATOM      9  C   UNL     1      46.764   1.279   7.705  0.00  0.00    +0.000 C 
ATOM     10  N   UNL     1      47.782   1.545   6.832  0.00  0.00    +0.000 N 
ATOM     11  O   UNL     1      46.452   0.116   7.932  0.00  0.00    +0.000 OA
ATOM     12  H   UNL     1      48.104   2.461   6.570  0.00  0.00    +0.000 HD
ATOM     13  H   UNL     1      48.229   0.743   6.404  0.00  0.00    +0.000 HD
ENDBRANCH   5   9
BRANCH   3  15
ATOM     14  C   UNL     1      43.636   2.290  12.085  0.00  0.00    +0.000 C 
ATOM     15  O   UNL     1      43.289   2.777  10.795  0.00  0.00    +0.000 OA
ENDBRANCH   3  15
ENDBRANCH   1   8
BRANCH   1  16
ATOM     16  C   UNL     1      43.911   5.798  11.705  0.00  0.00    +0.000 C 
BRANCH  16  17
ATOM     17  C   UNL     1      45.316   5.868  12.255  0.00  0.00    +0.000 A 
ATOM     18  C   UNL     1      45.779   4.889  13.135  0.00  0.00    +0.000 A 
ATOM     19  C   UNL     1      47.103   4.930  13.530  0.00  0.00    +0.000 A 
ATOM     20  N   UNL     1      47.977   5.881  13.136  0.00  0.00    +0.000 NA
ATOM     21  C   UNL     1      47.524   6.861  12.313  0.00  0.00    +0.000 A 
ATOM     22  C   UNL     1      46.204   6.873  11.852  0.00  0.00    +0.000 A 
BRANCH  21  23
ATOM     23  C   UNL     1      48.516   7.896  11.941  0.00  0.00    +0.000 A 
ATOM     24  C   UNL     1      48.151   9.257  11.868  0.00  0.00    +0.000 A 
ATOM     25  C   UNL     1      49.075  10.243  11.506  0.00  0.00    +0.000 A 
ATOM     26  C   UNL     1      50.379   9.879  11.210  0.00  0.00    +0.000 A 
ATOM     27  F   UNL     1      51.267  10.818  10.858  0.00  0.00    +0.000 F 
ATOM     28  C   UNL     1      50.776   8.551  11.265  0.00  0.00    +0.000 A 
ATOM     29  C   UNL     1      49.849   7.568  11.626  0.00  0.00    +0.000 A 
ENDBRANCH  21  23
ENDBRANCH  16  17
ENDBRANCH   1  16
TORSDOF 6
ENDMDL
MODEL 4
REMARK VINA RESULT:    -7.864      3.812      7.176
REMARK INTER + INTRA:         -11.991
REMARK INTER:                 -11.312
REMARK INTRA:                  -0.679
REMARK UNBOUND:                -1.368
REMARK  Name = 
REMARK  7 active torsions:
REMARK  status: ('A' for Active; 'I' for Inactive)
REMARK    1  A    between atoms: C_1  and  O_2
REMARK    2  A    between atoms: O_2  and  C_3
REMARK    3  A    between atoms: C_5  and  C_6
REMARK    4  A    between atoms: C_11  and  N_12
REMARK    5  A    between atoms: N_12  and  C_13
REMARK    6  A    between atoms: C_13  and  C_14
REMARK    7  A    between atoms: C_18  and  C_19
REMARK                            x       y       z     vdW  Elec       q    Type
REMARK                         _______ _______ _______ _____ _____    ______ ____
ROOT
ATOM      1  N   UNL     1      43.789   5.462  10.184  0.00  0.00    +0.000 N 
ATOM      2  H   UNL     1      43.882   6.287   9.599  0.00  0.00    +0.000 HD
ENDROOT
BRANCH   1   8
ATOM      3  C   UNL     1      44.283   3.002   9.956  0.00  0.00    +0.000 A 
ATOM      4  C   UNL     1      45.026   2.005   9.302  0.00  0.00    +0.000 A 
ATOM      5  C   UNL     1      46.008   2.322   8.356  0.00  0.00    +0.000 A 
ATOM      6  C   UNL     1      46.232   3.663   8.048  0.00  0.00    +0.000 A 
ATOM      7  C   UNL     1      45.489   4.665   8.695  0.00  0.00    +0.000 A 
ATOM      8  C   UNL     1      44.517   4.368   9.672  0.00  0.00    +0.000 A 
BRANCH   5   9
ATOM      9  C   UNL     1      46.738   1.181   7.728  0.00  0.00    +0.000 C 
ATOM     10  N   UNL     1      47.801   1.446   6.912  0.00  0.00    +0.000 N 
ATOM     11  O   UNL     1      46.408   0.019   7.932  0.00  0.00    +0.000 OA
ATOM     12  H   UNL     1      48.142   2.362   6.673  0.00  0.00    +0.000 HD
ATOM     13  H   UNL     1      48.266   0.644   6.503  0.00  0.00    +0.000 HD
ENDBRANCH   5   9
BRANCH   3  15
ATOM     14  C   UNL     1      43.682   2.443  12.200  0.00  0.00    +0.000 C 
ATOM     15  O   UNL     1      43.294   2.680  10.852  0.00  0.00    +0.000 OA
ENDBRANCH   3  15
ENDBRANCH   1   8
BRANCH   1  16
ATOM     16  C   UNL     1      43.823   5.765  11.607  0.00  0.00    +0.000 C 
BRANCH  16  17
ATOM     17  C   UNL     1      45.237   5.981  12.092  0.00  0.00    +0.000 A 
ATOM     18  C   UNL     1      46.105   6.814  11.387  0.00  0.00    +0.000 A 
ATOM     19  C   UNL     1      47.355   7.069  11.921  0.00  0.00    +0.000 A 
ATOM     20  N   UNL     1      47.800   6.537  13.080  0.00  0.00    +0.000 NA
ATOM     21  C   UNL     1      46.977   5.692  13.751  0.00  0.00    +0.000 A 
ATOM     22  C   UNL     1      45.691   5.404  13.285  0.00  0.00    +0.000 A 
BRANCH  21  23
ATOM     23  C   UNL     1      47.531   5.111  14.996  0.00  0.00    +0.000 A 
ATOM     24  C   UNL     1      48.388   5.862  15.828  0.00  0.00    +0.000 A 
ATOM     25  C   UNL     1      48.927   5.321  17.000  0.00  0.00    +0.000 A 
ATOM     26  C   UNL     1      48.618   4.017  17.354  0.00  0.00    +0.000 A 
ATOM     27  F   UNL     1      49.136   3.493  18.473  0.00  0.00    +0.000 F 
ATOM     28  C   UNL     1      47.784   3.244  16.560  0.00  0.00    +0.000 A 
ATOM     29  C   UNL     1      47.246   3.788  15.389  0.00  0.00    +0.000 A 
ENDBRANCH  21  23
ENDBRANCH  16  17
ENDBRANCH   1  16
TORSDOF 6
ENDMDL
MODEL 5
REMARK VINA RESULT:    -7.183      1.459      1.967
REMARK INTER + INTRA:         -11.071
REMARK INTER:                 -10.082
REMARK INTRA:                  -0.989
REMARK UNBOUND:                -1.368
REMARK  Name = 
REMARK  7 active torsions:
REMARK  status: ('A' for Active; 'I' for Inactive)
REMARK    1  A    between atoms: C_1  and  O_2
REMARK    2  A    between atoms: O_2  and  C_3
REMARK    3  A    between atoms: C_5  and  C_6
REMARK    4  A    between atoms: C_11  and  N_12
REMARK    5  A    between atoms: N_12  and  C_13
REMARK    6  A    between atoms: C_13  and  C_14
REMARK    7  A    between atoms: C_18  and  C_19
REMARK                            x       y       z     vdW  Elec       q    Type
REMARK                         _______ _______ _______ _____ _____    ______ ____
ROOT
ATOM      1  N   UNL     1      45.716   7.272  13.240  0.00  0.00    +0.000 N 
ATOM      2  H   UNL     1      45.565   6.462  13.833  0.00  0.00    +0.000 HD
ENDROOT
BRANCH   1   8
ATOM      3  C   UNL     1      48.166   6.926  13.721  0.00  0.00    +0.000 A 
ATOM      4  C   UNL     1      49.491   7.187  13.334  0.00  0.00    +0.000 A 
ATOM      5  C   UNL     1      49.789   8.026  12.254  0.00  0.00    +0.000 A 
ATOM      6  C   UNL     1      48.736   8.594  11.538  0.00  0.00    +0.000 A 
ATOM      7  C   UNL     1      47.409   8.333  11.915  0.00  0.00    +0.000 A 
ATOM      8  C   UNL     1      47.088   7.515  13.019  0.00  0.00    +0.000 A 
BRANCH   5   9
ATOM      9  C   UNL     1      51.233   8.236  11.937  0.00  0.00    +0.000 C 
ATOM     10  N   UNL     1      51.832   7.422  11.018  0.00  0.00    +0.000 N 
ATOM     11  O   UNL     1      51.886   9.120  12.477  0.00  0.00    +0.000 OA
ATOM     12  H   UNL     1      51.388   6.662  10.530  0.00  0.00    +0.000 HD
ATOM     13  H   UNL     1      52.813   7.595  10.834  0.00  0.00    +0.000 HD
ENDBRANCH   5   9
BRANCH   3  15
ATOM     14  C   UNL     1      48.676   6.176  15.931  0.00  0.00    +0.000 C 
ATOM     15  O   UNL     1      47.882   6.069  14.756  0.00  0.00    +0.000 OA
ENDBRANCH   3  15
ENDBRANCH   1   8
BRANCH   1  16
ATOM     16  C   UNL     1      44.768   7.359  12.139  0.00  0.00    +0.000 C 
BRANCH  16  17
ATOM     17  C   UNL     1      44.410   5.990  11.611  0.00  0.00    +0.000 A 
ATOM     18  C   UNL     1      43.290   5.317  12.099  0.00  0.00    +0.000 A 
ATOM     19  C   UNL     1      42.936   4.115  11.514  0.00  0.00    +0.000 A 
ATOM     20  N   UNL     1      43.627   3.534  10.510  0.00  0.00    +0.000 NA
ATOM     21  C   UNL     1      44.742   4.162  10.058  0.00  0.00    +0.000 A 
ATOM     22  C   UNL     1      45.150   5.391  10.584  0.00  0.00    +0.000 A 
BRANCH  21  23
ATOM     23  C   UNL     1      45.480   3.463   8.980  0.00  0.00    +0.000 A 
ATOM     24  C   UNL     1      46.063   4.183   7.916  0.00  0.00    +0.000 A 
ATOM     25  C   UNL     1      46.752   3.534   6.886  0.00  0.00    +0.000 A 
ATOM     26  C   UNL     1      46.865   2.152   6.906  0.00  0.00    +0.000 A 
ATOM     27  F   UNL     1      47.519   1.525   5.919  0.00  0.00    +0.000 F 
ATOM     28  C   UNL     1      46.301   1.409   7.932  0.00  0.00    +0.000 A 
ATOM     29  C   UNL     1      45.613   2.061   8.960  0.00  0.00    +0.000 A 
ENDBRANCH  21  23
ENDBRANCH  16  17
ENDBRANCH   1  16
TORSDOF 6
ENDMDL
MODEL 6
REMARK VINA RESULT:    -7.178      2.626      3.469
REMARK INTER + INTRA:         -11.064
REMARK INTER:                 -10.244
REMARK INTRA:                  -0.821
REMARK UNBOUND:                -1.368
REMARK  Name = 
REMARK  7 active torsions:
REMARK  status: ('A' for Active; 'I' for Inactive)
REMARK    1  A    between atoms: C_1  and  O_2
REMARK    2  A    between atoms: O_2  and  C_3
REMARK    3  A    between atoms: C_5  and  C_6
REMARK    4  A    between atoms: C_11  and  N_12
REMARK    5  A    between atoms: N_12  and  C_13
REMARK    6  A    between atoms: C_13  and  C_14
REMARK    7  A    between atoms: C_18  and  C_19
REMARK                            x       y       z     vdW  Elec       q    Type
REMARK                         _______ _______ _______ _____ _____    ______ ____
ROOT
ATOM      1  N   UNL     1      46.525   5.884  13.018  0.00  0.00    +0.000 N 
ATOM      2  H   UNL     1      46.873   6.752  12.620  0.00  0.00    +0.000 HD
ENDROOT
BRANCH   1   8
ATOM      3  C   UNL     1      48.162   6.334  14.880  0.00  0.00    +0.000 A 
ATOM      4  C   UNL     1      48.681   5.919  16.118  0.00  0.00    +0.000 A 
ATOM      5  C   UNL     1      48.264   4.731  16.730  0.00  0.00    +0.000 A 
ATOM      6  C   UNL     1      47.291   3.959  16.096  0.00  0.00    +0.000 A 
ATOM      7  C   UNL     1      46.763   4.370  14.861  0.00  0.00    +0.000 A 
ATOM      8  C   UNL     1      47.193   5.547  14.213  0.00  0.00    +0.000 A 
BRANCH   5   9
ATOM      9  C   UNL     1      48.887   4.389  18.042  0.00  0.00    +0.000 C 
ATOM     10  N   UNL     1      48.328   3.400  18.801  0.00  0.00    +0.000 N 
ATOM     11  O   UNL     1      49.887   4.969  18.447  0.00  0.00    +0.000 OA
ATOM     12  H   UNL     1      47.504   2.874  18.563  0.00  0.00    +0.000 HD
ATOM     13  H   UNL     1      48.779   3.201  19.686  0.00  0.00    +0.000 HD
ENDBRANCH   5   9
BRANCH   3  15
ATOM     14  C   UNL     1      49.943   7.760  14.173  0.00  0.00    +0.000 C 
ATOM     15  O   UNL     1      48.547   7.521  14.308  0.00  0.00    +0.000 OA
ENDBRANCH   3  15
ENDBRANCH   1   8
BRANCH   1  16
ATOM     16  C   UNL     1      45.079   5.751  12.922  0.00  0.00    +0.000 C 
BRANCH  16  17
ATOM     17  C   UNL     1      44.690   4.609  12.013  0.00  0.00    +0.000 A 
ATOM     18  C   UNL     1      43.572   3.826  12.302  0.00  0.00    +0.000 A 
ATOM     19  C   UNL     1      43.189   2.861  11.390  0.00  0.00    +0.000 A 
ATOM     20  N   UNL     1      43.849   2.608  10.239  0.00  0.00    +0.000 NA
ATOM     21  C   UNL     1      44.962   3.337   9.971  0.00  0.00    +0.000 A 
ATOM     22  C   UNL     1      45.399   4.346  10.834  0.00  0.00    +0.000 A 
BRANCH  21  23
ATOM     23  C   UNL     1      45.666   2.993   8.713  0.00  0.00    +0.000 A 
ATOM     24  C   UNL     1      46.026   1.659   8.425  0.00  0.00    +0.000 A 
ATOM     25  C   UNL     1      46.702   1.323   7.247  0.00  0.00    +0.000 A 
ATOM     26  C   UNL     1      47.029   2.320   6.341  0.00  0.00    +0.000 A 
ATOM     27  F   UNL     1      47.680   2.004   5.213  0.00  0.00    +0.000 F 
ATOM     28  C   UNL     1      46.696   3.643   6.589  0.00  0.00    +0.000 A 
ATOM     29  C   UNL     1      46.022   3.976   7.768  0.00  0.00    +0.000 A 
ENDBRANCH  21  23
ENDBRANCH  16  17
ENDBRANCH   1  16
TORSDOF 6
ENDMDL
MODEL 7
REMARK VINA RESULT:    -6.576      2.464      2.714
REMARK INTER + INTRA:         -10.250
REMARK INTER:                  -9.550
REMARK INTRA:                  -0.700
REMARK UNBOUND:                -1.368
REMARK  Name = 
REMARK  7 active torsions:
REMARK  status: ('A' for Active; 'I' for Inactive)
REMARK    1  A    between atoms: C_1  and  O_2
REMARK    2  A    between atoms: O_2  and  C_3
REMARK    3  A    between atoms: C_5  and  C_6
REMARK    4  A    between atoms: C_11  and  N_12
REMARK    5  A    between atoms: N_12  and  C_13
REMARK    6  A    between atoms: C_13  and  C_14
REMARK    7  A    between atoms: C_18  and  C_19
REMARK                            x       y       z     vdW  Elec       q    Type
REMARK                         _______ _______ _______ _____ _____    ______ ____
ROOT
ATOM      1  N   UNL     1      46.172   4.308  14.273  0.00  0.00    +0.000 N 
ATOM      2  H   UNL     1      46.479   3.385  13.980  0.00  0.00    +0.000 HD
ENDROOT
BRANCH   1   8
ATOM      3  C   UNL     1      47.933   4.630  16.047  0.00  0.00    +0.000 A 
ATOM      4  C   UNL     1      49.006   5.407  16.515  0.00  0.00    +0.000 A 
ATOM      5  C   UNL     1      49.392   6.589  15.872  0.00  0.00    +0.000 A 
ATOM      6  C   UNL     1      48.701   6.984  14.727  0.00  0.00    +0.000 A 
ATOM      7  C   UNL     1      47.631   6.209  14.251  0.00  0.00    +0.000 A 
ATOM      8  C   UNL     1      47.206   5.032  14.901  0.00  0.00    +0.000 A 
BRANCH   5   9
ATOM      9  C   UNL     1      50.543   7.336  16.460  0.00  0.00    +0.000 C 
ATOM     10  N   UNL     1      51.801   6.820  16.330  0.00  0.00    +0.000 N 
ATOM     11  O   UNL     1      50.384   8.398  17.050  0.00  0.00    +0.000 OA
ATOM     12  H   UNL     1      52.035   5.953  15.876  0.00  0.00    +0.000 HD
ATOM     13  H   UNL     1      52.553   7.356  16.746  0.00  0.00    +0.000 HD
ENDBRANCH   5   9
BRANCH   3  15
ATOM     14  C   UNL     1      47.722   3.384  18.074  0.00  0.00    +0.000 C 
ATOM     15  O   UNL     1      47.588   3.451  16.660  0.00  0.00    +0.000 OA
ENDBRANCH   3  15
ENDBRANCH   1   8
BRANCH   1  16
ATOM     16  C   UNL     1      45.306   4.958  13.301  0.00  0.00    +0.000 C 
BRANCH  16  17
ATOM     17  C   UNL     1      44.839   3.986  12.243  0.00  0.00    +0.000 A 
ATOM     18  C   UNL     1      43.671   3.248  12.429  0.00  0.00    +0.000 A 
ATOM     19  C   UNL     1      43.221   2.451  11.393  0.00  0.00    +0.000 A 
ATOM     20  N   UNL     1      43.862   2.321  10.211  0.00  0.00    +0.000 NA
ATOM     21  C   UNL     1      45.022   3.005  10.037  0.00  0.00    +0.000 A 
ATOM     22  C   UNL     1      45.527   3.848  11.030  0.00  0.00    +0.000 A 
BRANCH  21  23
ATOM     23  C   UNL     1      45.699   2.798   8.736  0.00  0.00    +0.000 A 
ATOM     24  C   UNL     1      46.148   1.518   8.347  0.00  0.00    +0.000 A 
ATOM     25  C   UNL     1      46.800   1.312   7.127  0.00  0.00    +0.000 A 
ATOM     26  C   UNL     1      47.013   2.386   6.278  0.00  0.00    +0.000 A 
ATOM     27  F   UNL     1      47.641   2.195   5.110  0.00  0.00    +0.000 F 
ATOM     28  C   UNL     1      46.591   3.661   6.625  0.00  0.00    +0.000 A 
ATOM     29  C   UNL     1      45.940   3.864   7.846  0.00  0.00    +0.000 A 
ENDBRANCH  21  23
ENDBRANCH  16  17
ENDBRANCH   1  16
TORSDOF 6
ENDMDL
MODEL 8
REMARK VINA RESULT:    -6.460      2.229      2.739
REMARK INTER + INTRA:         -10.095
REMARK INTER:                  -9.434
REMARK INTRA:                  -0.660
REMARK UNBOUND:                -1.368
REMARK  Name = 
REMARK  7 active torsions:
REMARK  status: ('A' for Active; 'I' for Inactive)
REMARK    1  A    between atoms: C_1  and  O_2
REMARK    2  A    between atoms: O_2  and  C_3
REMARK    3  A    between atoms: C_5  and  C_6
REMARK    4  A    between atoms: C_11  and  N_12
REMARK    5  A    between atoms: N_12  and  C_13
REMARK    6  A    between atoms: C_13  and  C_14
REMARK    7  A    between atoms: C_18  and  C_19
REMARK                            x       y       z     vdW  Elec       q    Type
REMARK                         _______ _______ _______ _____ _____    ______ ____
ROOT
ATOM      1  N   UNL     1      46.798   7.340  12.407  0.00  0.00    +0.000 N 
ATOM      2  H   UNL     1      47.227   8.076  11.853  0.00  0.00    +0.000 HD
ENDROOT
BRANCH   1   8
ATOM      3  C   UNL     1      47.431   5.901  14.376  0.00  0.00    +0.000 A 
ATOM      4  C   UNL     1      48.294   5.713  15.469  0.00  0.00    +0.000 A 
ATOM      5  C   UNL     1      49.274   6.655  15.803  0.00  0.00    +0.000 A 
ATOM      6  C   UNL     1      49.402   7.795  15.010  0.00  0.00    +0.000 A 
ATOM      7  C   UNL     1      48.547   7.987  13.913  0.00  0.00    +0.000 A 
ATOM      8  C   UNL     1      47.533   7.065  13.578  0.00  0.00    +0.000 A 
BRANCH   5   9
ATOM      9  C   UNL     1      50.130   6.353  16.987  0.00  0.00    +0.000 C 
ATOM     10  N   UNL     1      49.974   5.156  17.627  0.00  0.00    +0.000 N 
ATOM     11  O   UNL     1      50.969   7.150  17.392  0.00  0.00    +0.000 OA
ATOM     12  H   UNL     1      49.309   4.443  17.381  0.00  0.00    +0.000 HD
ATOM     13  H   UNL     1      50.572   4.992  18.429  0.00  0.00    +0.000 HD
ENDBRANCH   5   9
BRANCH   3  15
ATOM     14  C   UNL     1      46.972   3.636  13.772  0.00  0.00    +0.000 C 
ATOM     15  O   UNL     1      46.501   4.952  14.033  0.00  0.00    +0.000 OA
ENDBRANCH   3  15
ENDBRANCH   1   8
BRANCH   1  16
ATOM     16  C   UNL     1      45.347   7.434  12.455  0.00  0.00    +0.000 C 
BRANCH  16  17
ATOM     17  C   UNL     1      44.695   6.248  11.784  0.00  0.00    +0.000 A 
ATOM     18  C   UNL     1      43.378   5.903  12.085  0.00  0.00    +0.000 A 
ATOM     19  C   UNL     1      42.784   4.879  11.371  0.00  0.00    +0.000 A 
ATOM     20  N   UNL     1      43.414   4.168  10.411  0.00  0.00    +0.000 NA
ATOM     21  C   UNL     1      44.710   4.469  10.141  0.00  0.00    +0.000 A 
ATOM     22  C   UNL     1      45.369   5.507  10.805  0.00  0.00    +0.000 A 
BRANCH  21  23
ATOM     23  C   UNL     1      45.360   3.635   9.105  0.00  0.00    +0.000 A 
ATOM     24  C   UNL     1      45.974   4.224   7.979  0.00  0.00    +0.000 A 
ATOM     25  C   UNL     1      46.581   3.447   6.987  0.00  0.00    +0.000 A 
ATOM     26  C   UNL     1      46.580   2.066   7.107  0.00  0.00    +0.000 A 
ATOM     27  F   UNL     1      47.156   1.317   6.158  0.00  0.00    +0.000 F 
ATOM     28  C   UNL     1      45.983   1.448   8.196  0.00  0.00    +0.000 A 
ATOM     29  C   UNL     1      45.376   2.228   9.186  0.00  0.00    +0.000 A 
ENDBRANCH  21  23
ENDBRANCH  16  17
ENDBRANCH   1  16
TORSDOF 6
ENDMDL
MODEL 9
REMARK VINA RESULT:    -6.302      3.461      5.245
REMARK INTER + INTRA:          -9.880
REMARK INTER:                  -9.015
REMARK INTRA:                  -0.865
REMARK UNBOUND:                -1.368
REMARK  Name = 
REMARK  7 active torsions:
REMARK  status: ('A' for Active; 'I' for Inactive)
REMARK    1  A    between atoms: C_1  and  O_2
REMARK    2  A    between atoms: O_2  and  C_3
REMARK    3  A    between atoms: C_5  and  C_6
REMARK    4  A    between atoms: C_11  and  N_12
REMARK    5  A    between atoms: N_12  and  C_13
REMARK    6  A    between atoms: C_13  and  C_14
REMARK    7  A    between atoms: C_18  and  C_19
REMARK                            x       y       z     vdW  Elec       q    Type
REMARK                         _______ _______ _______ _____ _____    ______ ____
ROOT
ATOM      1  N   UNL     1      48.676   6.652  14.286  0.00  0.00    +0.000 N 
ATOM      2  H   UNL     1      49.607   6.561  13.891  0.00  0.00    +0.000 HD
ENDROOT
BRANCH   1   8
ATOM      3  C   UNL     1      47.696   5.071  15.987  0.00  0.00    +0.000 A 
ATOM      4  C   UNL     1      47.785   4.529  17.280  0.00  0.00    +0.000 A 
ATOM      5  C   UNL     1      48.751   4.964  18.195  0.00  0.00    +0.000 A 
ATOM      6  C   UNL     1      49.658   5.944  17.794  0.00  0.00    +0.000 A 
ATOM      7  C   UNL     1      49.579   6.487  16.501  0.00  0.00    +0.000 A 
ATOM      8  C   UNL     1      48.593   6.085  15.575  0.00  0.00    +0.000 A 
BRANCH   5   9
ATOM      9  C   UNL     1      48.749   4.320  19.541  0.00  0.00    +0.000 C 
ATOM     10  N   UNL     1      48.348   3.018  19.651  0.00  0.00    +0.000 N 
ATOM     11  O   UNL     1      49.100   4.930  20.544  0.00  0.00    +0.000 OA
ATOM     12  H   UNL     1      48.031   2.437  18.894  0.00  0.00    +0.000 HD
ATOM     13  H   UNL     1      48.357   2.621  20.583  0.00  0.00    +0.000 HD
ENDBRANCH   5   9
BRANCH   3  15
ATOM     14  C   UNL     1      47.165   3.542  14.229  0.00  0.00    +0.000 C 
ATOM     15  O   UNL     1      46.771   4.609  15.083  0.00  0.00    +0.000 OA
ENDBRANCH   3  15
ENDBRANCH   1   8
BRANCH   1  16
ATOM     16  C   UNL     1      48.061   7.941  14.010  0.00  0.00    +0.000 C 
BRANCH  16  17
ATOM     17  C   UNL     1      46.857   7.797  13.110  0.00  0.00    +0.000 A 
ATOM     18  C   UNL     1      45.994   8.873  12.907  0.00  0.00    +0.000 A 
ATOM     19  C   UNL     1      44.966   8.732  11.993  0.00  0.00    +0.000 A 
ATOM     20  N   UNL     1      44.728   7.599  11.299  0.00  0.00    +0.000 NA
ATOM     21  C   UNL     1      45.537   6.533  11.521  0.00  0.00    +0.000 A 
ATOM     22  C   UNL     1      46.611   6.607  12.412  0.00  0.00    +0.000 A 
BRANCH  21  23
ATOM     23  C   UNL     1      45.208   5.307  10.758  0.00  0.00    +0.000 A 
ATOM     24  C   UNL     1      45.572   5.177   9.401  0.00  0.00    +0.000 A 
ATOM     25  C   UNL     1      45.256   4.030   8.666  0.00  0.00    +0.000 A 
ATOM     26  C   UNL     1      44.568   2.995   9.280  0.00  0.00    +0.000 A 
ATOM     27  F   UNL     1      44.259   1.896   8.579  0.00  0.00    +0.000 F 
ATOM     28  C   UNL     1      44.188   3.086  10.611  0.00  0.00    +0.000 A 
ATOM     29  C   UNL     1      44.505   4.234  11.343  0.00  0.00    +0.000 A 
ENDBRANCH  21  23
ENDBRANCH  16  17
ENDBRANCH   1  16
TORSDOF 6
ENDMDL
