MODEL 1
REMARK VINA RESULT:    -8.363      0.000      0.000
REMARK INTER + INTRA:         -12.229
REMARK INTER:                 -11.297
REMARK INTRA:                  -0.932
REMARK UNBOUND:                -0.932
REMARK  Name = 
REMARK  7 active torsions:
REMARK  status: ('A' for Active; 'I' for Inactive)
REMARK    1  A    between atoms: C_1  and  N_2
REMARK    2  A    between atoms: N_5  and  C_6
REMARK    3  A    between atoms: C_10  and  C_11
REMARK    4  A    between atoms: C_11  and  C_12
REMARK    5  A    between atoms: C_12  and  N_13
REMARK    6  A    between atoms: N_13  and  C_14
REMARK    7  A    between atoms: C_17  and  C_18
REMARK                            x       y       z     vdW  Elec       q    Type
REMARK                         _______ _______ _______ _____ _____    ______ ____
ROOT
ATOM      1  C   UNL     1      43.712   5.113  12.193  0.00  0.00    +0.000 C 
ENDROOT
BRANCH   1   6
ATOM      2  C   UNL     1      47.100   5.573  13.928  0.00  0.00    +0.000 A 
ATOM      3  C   UNL     1      47.795   6.295  12.949  0.00  0.00    +0.000 A 
ATOM      4  C   UNL     1      47.195   6.665  11.744  0.00  0.00    +0.000 A 
ATOM      5  C   UNL     1      45.876   6.308  11.482  0.00  0.00    +0.000 A 
ATOM      6  C   UNL     1      45.145   5.566  12.414  0.00  0.00    +0.000 A 
ATOM      7  C   UNL     1      45.772   5.220  13.626  0.00  0.00    +0.000 A 
BRANCH   2  12
ATOM      8  C   UNL     1      48.181   5.151  19.363  0.00  0.00    +0.000 C 
ATOM      9  N   UNL     1      48.404   4.906  17.941  0.00  0.00    +0.000 NA
ATOM     10  C   UNL     1      47.238   4.216  17.342  0.00  0.00    +0.000 C 
ATOM     11  C   UNL     1      47.408   3.984  15.823  0.00  0.00    +0.000 C 
ATOM     12  N   UNL     1      47.652   5.274  15.156  0.00  0.00    +0.000 N 
ATOM     13  C   UNL     1      48.809   6.002  15.699  0.00  0.00    +0.000 C 
ATOM     14  C   UNL     1      48.635   6.183  17.226  0.00  0.00    +0.000 C 
ENDBRANCH   2  12
ENDBRANCH   1   6
BRANCH   1  15
ATOM     15  C   UNL     1      43.389   4.708  10.756  0.00  0.00    +0.000 C 
BRANCH  15  16
ATOM     16  N   UNL     1      43.768   3.328  10.462  0.00  0.00    +0.000 N 
ATOM     17  H   UNL     1      42.995   2.667  10.467  0.00  0.00    +0.000 HD
BRANCH  16  18
ATOM     18  C   UNL     1      44.648   3.110   9.391  0.00  0.00    +0.000 A 
ATOM     19  C   UNL     1      45.131   4.139   8.567  0.00  0.00    +0.000 A 
ATOM     20  C   UNL     1      46.064   3.888   7.557  0.00  0.00    +0.000 A 
ATOM     21  C   UNL     1      46.572   2.603   7.377  0.00  0.00    +0.000 A 
ATOM     22  C   UNL     1      46.125   1.567   8.203  0.00  0.00    +0.000 A 
ATOM     23  C   UNL     1      45.178   1.827   9.204  0.00  0.00    +0.000 A 
BRANCH  21  24
ATOM     24  C   UNL     1      47.578   2.396   6.302  0.00  0.00    +0.000 C 
ATOM     25  N   UNL     1      47.474   3.183   5.188  0.00  0.00    +0.000 N 
ATOM     26  O   UNL     1      48.436   1.529   6.380  0.00  0.00    +0.000 OA
ATOM     27  H   UNL     1      46.642   3.713   4.981  0.00  0.00    +0.000 HD
ATOM     28  H   UNL     1      48.078   2.935   4.416  0.00  0.00    +0.000 HD
ENDBRANCH  21  24
ENDBRANCH  16  18
ENDBRANCH  15  16
ENDBRANCH   1  15
TORSDOF 6
ENDMDL
MODEL 2
REMARK VINA RESULT:    -8.158      1.289      1.906
REMARK INTER + INTRA:         -11.951
REMARK INTER:                 -11.059
REMARK INTRA:                  -0.892
REMARK UNBOUND:                -0.932
REMARK  Name = 
REMARK  7 active torsions:
REMARK  status: ('A' for Active; 'I' for Inactive)
REMARK    1  A    between atoms: C_1  and  N_2
REMARK    2  A    between atoms: N_5  and  C_6
REMARK    3  A    between atoms: C_10  and  C_11
REMARK    4  A    between atoms: C_11  and  C_12
REMARK    5  A    between atoms: C_12  and  N_13
REMARK    6  A    between atoms: N_13  and  C_14
REMARK    7  A    between atoms: C_17  and  C_18
REMARK                            x       y       z     vdW  Elec       q    Type
REMARK                         _______ _______ _______ _____ _____    ______ ____
ROOT
ATOM      1  C   UNL     1      45.030   5.025  12.197  0.00  0.00    +0.000 C 
ENDROOT
BRANCH   1   6
ATOM      2  C   UNL     1      48.084   6.136  14.231  0.00  0.00    +0.000 A 
ATOM      3  C   UNL     1      48.699   7.003  13.319  0.00  0.00    +0.000 A 
ATOM      4  C   UNL     1      48.145   7.266  12.065  0.00  0.00    +0.000 A 
ATOM      5  C   UNL     1      46.956   6.651  11.685  0.00  0.00    +0.000 A 
ATOM      6  C   UNL     1      46.313   5.758  12.547  0.00  0.00    +0.000 A 
ATOM      7  C   UNL     1      46.889   5.523  13.810  0.00  0.00    +0.000 A 
BRANCH   2  12
ATOM      8  C   UNL     1      50.976   4.411  18.652  0.00  0.00    +0.000 C 
ATOM      9  N   UNL     1      49.957   5.187  17.952  0.00  0.00    +0.000 NA
ATOM     10  C   UNL     1      50.579   6.061  16.931  0.00  0.00    +0.000 C 
ATOM     11  C   UNL     1      49.531   6.863  16.125  0.00  0.00    +0.000 C 
ATOM     12  N   UNL     1      48.575   5.932  15.504  0.00  0.00    +0.000 N 
ATOM     13  C   UNL     1      47.911   5.045  16.472  0.00  0.00    +0.000 C 
ATOM     14  C   UNL     1      48.982   4.286  17.293  0.00  0.00    +0.000 C 
ENDBRANCH   2  12
ENDBRANCH   1   6
BRANCH   1  15
ATOM     15  C   UNL     1      44.242   5.641  11.041  0.00  0.00    +0.000 C 
BRANCH  15  16
ATOM     16  N   UNL     1      43.737   4.639  10.107  0.00  0.00    +0.000 N 
ATOM     17  H   UNL     1      42.962   4.953   9.528  0.00  0.00    +0.000 HD
BRANCH  16  18
ATOM     18  C   UNL     1      44.678   3.896   9.380  0.00  0.00    +0.000 A 
ATOM     19  C   UNL     1      44.749   2.495   9.413  0.00  0.00    +0.000 A 
ATOM     20  C   UNL     1      45.656   1.790   8.616  0.00  0.00    +0.000 A 
ATOM     21  C   UNL     1      46.486   2.473   7.729  0.00  0.00    +0.000 A 
ATOM     22  C   UNL     1      46.415   3.867   7.659  0.00  0.00    +0.000 A 
ATOM     23  C   UNL     1      45.511   4.565   8.473  0.00  0.00    +0.000 A 
BRANCH  21  24
ATOM     24  C   UNL     1      47.416   1.673   6.889  0.00  0.00    +0.000 C 
ATOM     25  N   UNL     1      48.531   2.306   6.414  0.00  0.00    +0.000 N 
ATOM     26  O   UNL     1      47.178   0.512   6.590  0.00  0.00    +0.000 OA
ATOM     27  H   UNL     1      48.623   3.310   6.422  0.00  0.00    +0.000 HD
ATOM     28  H   UNL     1      49.076   1.789   5.737  0.00  0.00    +0.000 HD
ENDBRANCH  21  24
ENDBRANCH  16  18
ENDBRANCH  15  16
ENDBRANCH   1  15
TORSDOF 6
ENDMDL
MODEL 3
REMARK VINA RESULT:    -7.620      2.690      3.581
REMARK INTER + INTRA:         -11.224
REMARK INTER:                 -10.434
REMARK INTRA:                  -0.790
REMARK UNBOUND:                -0.932
REMARK  Name = 
REMARK  7 active torsions:
REMARK  status: ('A' for Active; 'I' for Inactive)
REMARK    1  A    between atoms: C_1  and  N_2
REMARK    2  A    between atoms: N_5  and  C_6
REMARK    3  A    between atoms: C_10  and  C_11
REMARK    4  A    between atoms: C_11  and  C_12
REMARK    5  A    between atoms: C_12  and  N_13
REMARK    6  A    between atoms: N_13  and  C_14
REMARK    7  A    between atoms: C_17  and  C_18
REMARK                            x       y       z     vdW  Elec       q    Type
REMARK                         _______ _______ _______ _____ _____    ______ ____
ROOT
ATOM      1  C   UNL     1      45.123   4.793  12.093  0.00  0.00    +0.000 C 
ENDROOT
BRANCH   1   6
ATOM      2  C   UNL     1      47.704   7.599  12.493  0.00  0.00    +0.000 A 
ATOM      3  C   UNL     1      46.860   8.713  12.592  0.00  0.00    +0.000 A 
ATOM      4  C   UNL     1      45.471   8.588  12.559  0.00  0.00    +0.000 A 
ATOM      5  C   UNL     1      44.886   7.334  12.413  0.00  0.00    +0.000 A 
ATOM      6  C   UNL     1      45.682   6.192  12.284  0.00  0.00    +0.000 A 
ATOM      7  C   UNL     1      47.080   6.349  12.335  0.00  0.00    +0.000 A 
BRANCH   2  12
ATOM      8  C   UNL     1      52.914   9.419  13.151  0.00  0.00    +0.000 C 
ATOM      9  N   UNL     1      51.874   8.416  12.939  0.00  0.00    +0.000 NA
ATOM     10  C   UNL     1      50.924   8.404  14.075  0.00  0.00    +0.000 C 
ATOM     11  C   UNL     1      49.772   7.393  13.869  0.00  0.00    +0.000 C 
ATOM     12  N   UNL     1      49.075   7.698  12.608  0.00  0.00    +0.000 N 
ATOM     13  C   UNL     1      49.966   7.710  11.437  0.00  0.00    +0.000 C 
ATOM     14  C   UNL     1      51.132   8.697  11.687  0.00  0.00    +0.000 C 
ENDBRANCH   2  12
ENDBRANCH   1   6
BRANCH   1  15
ATOM     15  C   UNL     1      43.768   4.741  11.388  0.00  0.00    +0.000 C 
BRANCH  15  16
ATOM     16  N   UNL     1      43.871   4.992   9.953  0.00  0.00    +0.000 N 
ATOM     17  H   UNL     1      44.014   5.968   9.703  0.00  0.00    +0.000 HD
BRANCH  16  18
ATOM     18  C   UNL     1      44.677   4.126   9.198  0.00  0.00    +0.000 A 
ATOM     19  C   UNL     1      45.710   4.568   8.358  0.00  0.00    +0.000 A 
ATOM     20  C   UNL     1      46.536   3.667   7.680  0.00  0.00    +0.000 A 
ATOM     21  C   UNL     1      46.376   2.295   7.864  0.00  0.00    +0.000 A 
ATOM     22  C   UNL     1      45.369   1.832   8.717  0.00  0.00    +0.000 A 
ATOM     23  C   UNL     1      44.537   2.744   9.381  0.00  0.00    +0.000 A 
BRANCH  21  24
ATOM     24  C   UNL     1      47.295   1.382   7.136  0.00  0.00    +0.000 C 
ATOM     25  N   UNL     1      48.373   1.947   6.512  0.00  0.00    +0.000 N 
ATOM     26  O   UNL     1      47.078   0.183   7.050  0.00  0.00    +0.000 OA
ATOM     27  H   UNL     1      48.438   2.940   6.344  0.00  0.00    +0.000 HD
ATOM     28  H   UNL     1      48.907   1.333   5.912  0.00  0.00    +0.000 HD
ENDBRANCH  21  24
ENDBRANCH  16  18
ENDBRANCH  15  16
ENDBRANCH   1  15
TORSDOF 6
ENDMDL
MODEL 4
REMARK VINA RESULT:    -7.206      2.689      7.998
REMARK INTER + INTRA:         -10.665
REMARK INTER:                  -9.573
REMARK INTRA:                  -1.093
REMARK UNBOUND:                -0.932
REMARK  Name = 
REMARK  7 active torsions:
REMARK  status: ('A' for Active; 'I' for Inactive)
REMARK    1  A    between atoms: C_1  and  N_2
REMARK    2  A    between atoms: N_5  and  C_6
REMARK    3  A    between atoms: C_10  and  C_11
REMARK    4  A    between atoms: C_11  and  C_12
REMARK    5  A    between atoms: C_12  and  N_13
REMARK    6  A    between atoms: N_13  and  C_14
REMARK    7  A    between atoms: C_17  and  C_18
REMARK                            x       y       z     vdW  Elec       q    Type
REMARK                         _______ _______ _______ _____ _____    ______ ____
ROOT
ATOM      1  C   UNL     1      45.677   7.854  11.977  0.00  0.00    +0.000 C 
ENDROOT
BRANCH   1   6
ATOM      2  C   UNL     1      44.872   4.427  10.459  0.00  0.00    +0.000 A 
ATOM      3  C   UNL     1      43.950   3.940  11.395  0.00  0.00    +0.000 A 
ATOM      4  C   UNL     1      43.555   4.698  12.499  0.00  0.00    +0.000 A 
ATOM      5  C   UNL     1      44.086   5.967  12.702  0.00  0.00    +0.000 A 
ATOM      6  C   UNL     1      45.029   6.491  11.812  0.00  0.00    +0.000 A 
ATOM      7  C   UNL     1      45.398   5.709  10.701  0.00  0.00    +0.000 A 
BRANCH   2  12
ATOM      8  C   UNL     1      47.498   1.431   6.585  0.00  0.00    +0.000 C 
ATOM      9  N   UNL     1      46.374   2.160   7.163  0.00  0.00    +0.000 NA
ATOM     10  C   UNL     1      45.963   1.548   8.448  0.00  0.00    +0.000 C 
ATOM     11  C   UNL     1      44.809   2.322   9.126  0.00  0.00    +0.000 C 
ATOM     12  N   UNL     1      45.209   3.725   9.320  0.00  0.00    +0.000 N 
ATOM     13  C   UNL     1      45.615   4.394   8.074  0.00  0.00    +0.000 C 
ATOM     14  C   UNL     1      46.741   3.577   7.395  0.00  0.00    +0.000 C 
ENDBRANCH   2  12
ENDBRANCH   1   6
BRANCH   1  15
ATOM     15  C   UNL     1      46.576   7.985  13.206  0.00  0.00    +0.000 C 
BRANCH  15  16
ATOM     16  N   UNL     1      47.707   7.061  13.177  0.00  0.00    +0.000 N 
ATOM     17  H   UNL     1      48.606   7.499  12.993  0.00  0.00    +0.000 HD
BRANCH  16  18
ATOM     18  C   UNL     1      47.783   6.094  14.191  0.00  0.00    +0.000 A 
ATOM     19  C   UNL     1      48.380   6.329  15.438  0.00  0.00    +0.000 A 
ATOM     20  C   UNL     1      48.369   5.362  16.447  0.00  0.00    +0.000 A 
ATOM     21  C   UNL     1      47.716   4.147  16.245  0.00  0.00    +0.000 A 
ATOM     22  C   UNL     1      47.091   3.901  15.019  0.00  0.00    +0.000 A 
ATOM     23  C   UNL     1      47.121   4.873  14.009  0.00  0.00    +0.000 A 
BRANCH  21  24
ATOM     24  C   UNL     1      47.716   3.163  17.359  0.00  0.00    +0.000 C 
ATOM     25  N   UNL     1      48.917   2.896  17.958  0.00  0.00    +0.000 N 
ATOM     26  O   UNL     1      46.701   2.574  17.699  0.00  0.00    +0.000 OA
ATOM     27  H   UNL     1      49.796   3.158  17.539  0.00  0.00    +0.000 HD
ATOM     28  H   UNL     1      48.919   2.128  18.616  0.00  0.00    +0.000 HD
ENDBRANCH  21  24
ENDBRANCH  16  18
ENDBRANCH  15  16
ENDBRANCH   1  15
TORSDOF 6
ENDMDL
MODEL 5
REMARK VINA RESULT:    -6.863      2.390      3.962
REMARK INTER + INTRA:         -10.202
REMARK INTER:                  -9.439
REMARK INTRA:                  -0.763
REMARK UNBOUND:                -0.932
REMARK  Name = 
REMARK  7 active torsions:
REMARK  status: ('A' for Active; 'I' for Inactive)
REMARK    1  A    between atoms: C_1  and  N_2
REMARK    2  A    between atoms: N_5  and  C_6
REMARK    3  A    between atoms: C_10  and  C_11
REMARK    4  A    between atoms: C_11  and  C_12
REMARK    5  A    between atoms: C_12  and  N_13
REMARK    6  A    between atoms: N_13  and  C_14
REMARK    7  A    between atoms: C_17  and  C_18
REMARK                            x       y       z     vdW  Elec       q    Type
REMARK                         _______ _______ _______ _____ _____    ______ ____
ROOT
ATOM      1  C   UNL     1      45.684   3.947  12.702  0.00  0.00    +0.000 C 
ENDROOT
BRANCH   1   6
ATOM      2  C   UNL     1      48.246   6.586  13.782  0.00  0.00    +0.000 A 
ATOM      3  C   UNL     1      48.423   6.238  15.127  0.00  0.00    +0.000 A 
ATOM      4  C   UNL     1      47.756   5.153  15.699  0.00  0.00    +0.000 A 
ATOM      5  C   UNL     1      46.878   4.391  14.936  0.00  0.00    +0.000 A 
ATOM      6  C   UNL     1      46.646   4.710  13.595  0.00  0.00    +0.000 A 
ATOM      7  C   UNL     1      47.343   5.801  13.042  0.00  0.00    +0.000 A 
BRANCH   2  12
ATOM      8  C   UNL     1      52.260   9.801  11.676  0.00  0.00    +0.000 C 
ATOM      9  N   UNL     1      50.885   9.436  12.003  0.00  0.00    +0.000 NA
ATOM     10  C   UNL     1      50.518   8.156  11.354  0.00  0.00    +0.000 C 
ATOM     11  C   UNL     1      49.085   7.702  11.717  0.00  0.00    +0.000 C 
ATOM     12  N   UNL     1      48.961   7.601  13.181  0.00  0.00    +0.000 N 
ATOM     13  C   UNL     1      49.299   8.849  13.882  0.00  0.00    +0.000 C 
ATOM     14  C   UNL     1      50.720   9.304  13.469  0.00  0.00    +0.000 C 
ENDBRANCH   2  12
ENDBRANCH   1   6
BRANCH   1  15
ATOM     15  C   UNL     1      44.559   4.795  12.108  0.00  0.00    +0.000 C 
BRANCH  15  16
ATOM     16  N   UNL     1      43.895   4.142  10.984  0.00  0.00    +0.000 N 
ATOM     17  H   UNL     1      43.082   4.637  10.627  0.00  0.00    +0.000 HD
BRANCH  16  18
ATOM     18  C   UNL     1      44.705   3.637   9.955  0.00  0.00    +0.000 A 
ATOM     19  C   UNL     1      44.833   2.269   9.674  0.00  0.00    +0.000 A 
ATOM     20  C   UNL     1      45.594   1.813   8.593  0.00  0.00    +0.000 A 
ATOM     21  C   UNL     1      46.210   2.724   7.737  0.00  0.00    +0.000 A 
ATOM     22  C   UNL     1      46.074   4.094   7.982  0.00  0.00    +0.000 A 
ATOM     23  C   UNL     1      45.321   4.540   9.077  0.00  0.00    +0.000 A 
BRANCH  21  24
ATOM     24  C   UNL     1      46.988   2.186   6.591  0.00  0.00    +0.000 C 
ATOM     25  N   UNL     1      47.170   3.012   5.515  0.00  0.00    +0.000 N 
ATOM     26  O   UNL     1      47.410   1.039   6.579  0.00  0.00    +0.000 OA
ATOM     27  H   UNL     1      46.626   3.850   5.384  0.00  0.00    +0.000 HD
ATOM     28  H   UNL     1      47.581   2.584   4.696  0.00  0.00    +0.000 HD
ENDBRANCH  21  24
ENDBRANCH  16  18
ENDBRANCH  15  16
ENDBRANCH   1  15
TORSDOF 6
ENDMDL
MODEL 6
REMARK VINA RESULT:    -6.561      3.378      8.775
REMARK INTER + INTRA:          -9.794
REMARK INTER:                  -9.349
REMARK INTRA:                  -0.446
REMARK UNBOUND:                -0.932
REMARK  Name = 
REMARK  7 active torsions:
REMARK  status: ('A' for Active; 'I' for Inactive)
REMARK    1  A    between atoms: C_1  and  N_2
REMARK    2  A    between atoms: N_5  and  C_6
REMARK    3  A    between atoms: C_10  and  C_11
REMARK    4  A    between atoms: C_11  and  C_12
REMARK    5  A    between atoms: C_12  and  N_13
REMARK    6  A    between atoms: N_13  and  C_14
REMARK    7  A    between atoms: C_17  and  C_18
REMARK                            x       y       z     vdW  Elec       q    Type
REMARK                         _______ _______ _______ _____ _____    ______ ____
ROOT
ATOM      1  C   UNL     1      46.875   3.978  14.013  0.00  0.00    +0.000 C 
ENDROOT
BRANCH   1   6
ATOM      2  C   UNL     1      44.961   3.643  10.709  0.00  0.00    +0.000 A 
ATOM      3  C   UNL     1      43.706   4.140  11.086  0.00  0.00    +0.000 A 
ATOM      4  C   UNL     1      43.460   4.609  12.378  0.00  0.00    +0.000 A 
ATOM      5  C   UNL     1      44.468   4.580  13.336  0.00  0.00    +0.000 A 
ATOM      6  C   UNL     1      45.731   4.071  13.019  0.00  0.00    +0.000 A 
ATOM      7  C   UNL     1      45.954   3.618  11.705  0.00  0.00    +0.000 A 
BRANCH   2  12
ATOM      8  C   UNL     1      47.479   2.115   5.996  0.00  0.00    +0.000 C 
ATOM      9  N   UNL     1      46.338   2.428   6.851  0.00  0.00    +0.000 NA
ATOM     10  C   UNL     1      46.301   1.521   8.022  0.00  0.00    +0.000 C 
ATOM     11  C   UNL     1      45.138   1.851   8.986  0.00  0.00    +0.000 C 
ATOM     12  N   UNL     1      45.243   3.255   9.416  0.00  0.00    +0.000 N 
ATOM     13  C   UNL     1      45.270   4.208   8.295  0.00  0.00    +0.000 C 
ATOM     14  C   UNL     1      46.415   3.830   7.325  0.00  0.00    +0.000 C 
ENDBRANCH   2  12
ENDBRANCH   1   6
BRANCH   1  15
ATOM     15  C   UNL     1      46.926   5.117  15.031  0.00  0.00    +0.000 C 
BRANCH  15  16
ATOM     16  N   UNL     1      47.012   4.637  16.408  0.00  0.00    +0.000 N 
ATOM     17  H   UNL     1      46.172   4.176  16.748  0.00  0.00    +0.000 HD
BRANCH  16  18
ATOM     18  C   UNL     1      48.182   3.963  16.789  0.00  0.00    +0.000 A 
ATOM     19  C   UNL     1      48.351   2.576  16.658  0.00  0.00    +0.000 A 
ATOM     20  C   UNL     1      49.560   1.955  16.982  0.00  0.00    +0.000 A 
ATOM     21  C   UNL     1      50.649   2.716  17.404  0.00  0.00    +0.000 A 
ATOM     22  C   UNL     1      50.511   4.103  17.518  0.00  0.00    +0.000 A 
ATOM     23  C   UNL     1      49.289   4.715  17.204  0.00  0.00    +0.000 A 
BRANCH  21  24
ATOM     24  C   UNL     1      51.917   2.007  17.715  0.00  0.00    +0.000 C 
ATOM     25  N   UNL     1      51.976   0.673  17.419  0.00  0.00    +0.000 N 
ATOM     26  O   UNL     1      52.855   2.571  18.259  0.00  0.00    +0.000 OA
ATOM     27  H   UNL     1      51.151   0.130  17.219  0.00  0.00    +0.000 HD
ATOM     28  H   UNL     1      52.791   0.181  17.761  0.00  0.00    +0.000 HD
ENDBRANCH  21  24
ENDBRANCH  16  18
ENDBRANCH  15  16
ENDBRANCH   1  15
TORSDOF 6
ENDMDL
MODEL 7
REMARK VINA RESULT:    -6.487      3.734      7.605
REMARK INTER + INTRA:          -9.695
REMARK INTER:                  -8.935
REMARK INTRA:                  -0.759
REMARK UNBOUND:                -0.932
REMARK  Name = 
REMARK  7 active torsions:
REMARK  status: ('A' for Active; 'I' for Inactive)
REMARK    1  A    between atoms: C_1  and  N_2
REMARK    2  A    between atoms: N_5  and  C_6
REMARK    3  A    between atoms: C_10  and  C_11
REMARK    4  A    between atoms: C_11  and  C_12
REMARK    5  A    between atoms: C_12  and  N_13
REMARK    6  A    between atoms: N_13  and  C_14
REMARK    7  A    between atoms: C_17  and  C_18
REMARK                            x       y       z     vdW  Elec       q    Type
REMARK                         _______ _______ _______ _____ _____    ______ ____
ROOT
ATOM      1  C   UNL     1      44.975   7.078  12.808  0.00  0.00    +0.000 C 
ENDROOT
BRANCH   1   6
ATOM      2  C   UNL     1      44.692   3.881  10.712  0.00  0.00    +0.000 A 
ATOM      3  C   UNL     1      43.873   3.102  11.539  0.00  0.00    +0.000 A 
ATOM      4  C   UNL     1      43.381   3.586  12.753  0.00  0.00    +0.000 A 
ATOM      5  C   UNL     1      43.711   4.869  13.178  0.00  0.00    +0.000 A 
ATOM      6  C   UNL     1      44.546   5.679  12.403  0.00  0.00    +0.000 A 
ATOM      7  C   UNL     1      45.015   5.169  11.178  0.00  0.00    +0.000 A 
BRANCH   2  12
ATOM      8  C   UNL     1      47.689   2.038   6.410  0.00  0.00    +0.000 C 
ATOM      9  N   UNL     1      46.476   2.477   7.092  0.00  0.00    +0.000 NA
ATOM     10  C   UNL     1      46.178   1.596   8.245  0.00  0.00    +0.000 C 
ATOM     11  C   UNL     1      44.930   2.056   9.031  0.00  0.00    +0.000 C 
ATOM     12  N   UNL     1      45.116   3.448   9.472  0.00  0.00    +0.000 N 
ATOM     13  C   UNL     1      45.400   4.377   8.368  0.00  0.00    +0.000 C 
ATOM     14  C   UNL     1      46.627   3.871   7.572  0.00  0.00    +0.000 C 
ENDBRANCH   2  12
ENDBRANCH   1   6
BRANCH   1  15
ATOM     15  C   UNL     1      45.650   7.882  11.698  0.00  0.00    +0.000 C 
BRANCH  15  16
ATOM     16  N   UNL     1      46.536   8.922  12.215  0.00  0.00    +0.000 N 
ATOM     17  H   UNL     1      46.340   9.207  13.171  0.00  0.00    +0.000 HD
BRANCH  16  18
ATOM     18  C   UNL     1      47.910   8.786  11.970  0.00  0.00    +0.000 A 
ATOM     19  C   UNL     1      48.563   7.546  11.902  0.00  0.00    +0.000 A 
ATOM     20  C   UNL     1      49.921   7.451  11.584  0.00  0.00    +0.000 A 
ATOM     21  C   UNL     1      50.650   8.599  11.279  0.00  0.00    +0.000 A 
ATOM     22  C   UNL     1      50.014   9.844  11.314  0.00  0.00    +0.000 A 
ATOM     23  C   UNL     1      48.655   9.929  11.649  0.00  0.00    +0.000 A 
BRANCH  21  24
ATOM     24  C   UNL     1      52.085   8.440  10.926  0.00  0.00    +0.000 C 
ATOM     25  N   UNL     1      52.900   7.866  11.862  0.00  0.00    +0.000 N 
ATOM     26  O   UNL     1      52.537   8.847   9.866  0.00  0.00    +0.000 OA
ATOM     27  H   UNL     1      52.620   7.761  12.825  0.00  0.00    +0.000 HD
ATOM     28  H   UNL     1      53.890   7.891  11.659  0.00  0.00    +0.000 HD
ENDBRANCH  21  24
ENDBRANCH  16  18
ENDBRANCH  15  16
ENDBRANCH   1  15
TORSDOF 6
ENDMDL
MODEL 8
REMARK VINA RESULT:    -6.281      3.764      7.963
REMARK INTER + INTRA:          -9.416
REMARK INTER:                  -8.208
REMARK INTRA:                  -1.208
REMARK UNBOUND:                -0.932
REMARK  Name = 
REMARK  7 active torsions:
REMARK  status: ('A' for Active; 'I' for Inactive)
REMARK    1  A    between atoms: C_1  and  N_2
REMARK    2  A    between atoms: N_5  and  C_6
REMARK    3  A    between atoms: C_10  and  C_11
REMARK    4  A    between atoms: C_11  and  C_12
REMARK    5  A    between atoms: C_12  and  N_13
REMARK    6  A    between atoms: N_13  and  C_14
REMARK    7  A    between atoms: C_17  and  C_18
REMARK                            x       y       z     vdW  Elec       q    Type
REMARK                         _______ _______ _______ _____ _____    ______ ____
ROOT
ATOM      1  C   UNL     1      49.749   8.450  15.727  0.00  0.00    +0.000 C 
ENDROOT
BRANCH   1   6
ATOM      2  C   UNL     1      47.574   6.739  13.075  0.00  0.00    +0.000 A 
ATOM      3  C   UNL     1      48.287   7.058  11.912  0.00  0.00    +0.000 A 
ATOM      4  C   UNL     1      49.473   7.793  11.955  0.00  0.00    +0.000 A 
ATOM      5  C   UNL     1      49.973   8.242  13.173  0.00  0.00    +0.000 A 
ATOM      6  C   UNL     1      49.287   7.973  14.362  0.00  0.00    +0.000 A 
ATOM      7  C   UNL     1      48.102   7.218  14.288  0.00  0.00    +0.000 A 
BRANCH   2  12
ATOM      8  C   UNL     1      43.488   3.260  11.629  0.00  0.00    +0.000 C 
ATOM      9  N   UNL     1      44.226   4.141  12.529  0.00  0.00    +0.000 NA
ATOM     10  C   UNL     1      45.611   3.650  12.717  0.00  0.00    +0.000 C 
ATOM     11  C   UNL     1      46.449   4.583  13.622  0.00  0.00    +0.000 C 
ATOM     12  N   UNL     1      46.448   5.943  13.056  0.00  0.00    +0.000 N 
ATOM     13  C   UNL     1      45.097   6.492  12.859  0.00  0.00    +0.000 C 
ATOM     14  C   UNL     1      44.268   5.519  11.987  0.00  0.00    +0.000 C 
ENDBRANCH   2  12
ENDBRANCH   1   6
BRANCH   1  15
ATOM     15  C   UNL     1      48.672   8.414  16.811  0.00  0.00    +0.000 C 
BRANCH  15  16
ATOM     16  N   UNL     1      49.076   7.637  17.980  0.00  0.00    +0.000 N 
ATOM     17  H   UNL     1      48.543   7.835  18.823  0.00  0.00    +0.000 HD
BRANCH  16  18
ATOM     18  C   UNL     1      49.301   6.264  17.801  0.00  0.00    +0.000 A 
ATOM     19  C   UNL     1      48.338   5.385  17.282  0.00  0.00    +0.000 A 
ATOM     20  C   UNL     1      48.629   4.037  17.052  0.00  0.00    +0.000 A 
ATOM     21  C   UNL     1      49.911   3.546  17.293  0.00  0.00    +0.000 A 
ATOM     22  C   UNL     1      50.894   4.410  17.786  0.00  0.00    +0.000 A 
ATOM     23  C   UNL     1      50.587   5.757  18.027  0.00  0.00    +0.000 A 
BRANCH  21  24
ATOM     24  C   UNL     1      50.171   2.110  17.011  0.00  0.00    +0.000 C 
ATOM     25  N   UNL     1      51.136   1.491  17.756  0.00  0.00    +0.000 N 
ATOM     26  O   UNL     1      49.588   1.513  16.118  0.00  0.00    +0.000 OA
ATOM     27  H   UNL     1      51.804   2.008  18.306  0.00  0.00    +0.000 HD
ATOM     28  H   UNL     1      51.392   0.559  17.458  0.00  0.00    +0.000 HD
ENDBRANCH  21  24
ENDBRANCH  16  18
ENDBRANCH  15  16
ENDBRANCH   1  15
TORSDOF 6
ENDMDL
MODEL 9
REMARK VINA RESULT:    -6.134      3.555      7.985
REMARK INTER + INTRA:          -9.218
REMARK INTER:                  -8.296
REMARK INTRA:                  -0.922
REMARK UNBOUND:                -0.932
REMARK  Name = 
REMARK  7 active torsions:
REMARK  status: ('A' for Active; 'I' for Inactive)
REMARK    1  A    between atoms: C_1  and  N_2
REMARK    2  A    between atoms: N_5  and  C_6
REMARK    3  A    between atoms: C_10  and  C_11
REMARK    4  A    between atoms: C_11  and  C_12
REMARK    5  A    between atoms: C_12  and  N_13
REMARK    6  A    between atoms: N_13  and  C_14
REMARK    7  A    between atoms: C_17  and  C_18
REMARK                            x       y       z     vdW  Elec       q    Type
REMARK                         _______ _______ _______ _____ _____    ______ ____
ROOT
ATOM      1  C   UNL     1      48.856   8.597  12.658  0.00  0.00    +0.000 C 
ENDROOT
BRANCH   1   6
ATOM      2  C   UNL     1      45.334   7.510  11.609  0.00  0.00    +0.000 A 
ATOM      3  C   UNL     1      44.699   8.754  11.505  0.00  0.00    +0.000 A 
ATOM      4  C   UNL     1      45.382   9.949  11.741  0.00  0.00    +0.000 A 
ATOM      5  C   UNL     1      46.726   9.926  12.101  0.00  0.00    +0.000 A 
ATOM      6  C   UNL     1      47.400   8.710  12.242  0.00  0.00    +0.000 A 
ATOM      7  C   UNL     1      46.689   7.523  11.985  0.00  0.00    +0.000 A 
BRANCH   2  12
ATOM      8  C   UNL     1      43.280   2.346  11.669  0.00  0.00    +0.000 C 
ATOM      9  N   UNL     1      43.511   3.677  11.116  0.00  0.00    +0.000 NA
ATOM     10  C   UNL     1      42.977   4.718  12.024  0.00  0.00    +0.000 C 
ATOM     11  C   UNL     1      43.248   6.148  11.504  0.00  0.00    +0.000 C 
ATOM     12  N   UNL     1      44.695   6.327  11.298  0.00  0.00    +0.000 N 
ATOM     13  C   UNL     1      45.282   5.329  10.390  0.00  0.00    +0.000 C 
ATOM     14  C   UNL     1      44.961   3.907  10.910  0.00  0.00    +0.000 C 
ENDBRANCH   2  12
ENDBRANCH   1   6
BRANCH   1  15
ATOM     15  C   UNL     1      49.102   8.750  14.159  0.00  0.00    +0.000 C 
BRANCH  15  16
ATOM     16  N   UNL     1      49.956   7.695  14.700  0.00  0.00    +0.000 N 
ATOM     17  H   UNL     1      50.831   8.023  15.099  0.00  0.00    +0.000 HD
BRANCH  16  18
ATOM     18  C   UNL     1      49.347   6.707  15.488  0.00  0.00    +0.000 A 
ATOM     19  C   UNL     1      48.175   6.034  15.113  0.00  0.00    +0.000 A 
ATOM     20  C   UNL     1      47.642   5.004  15.894  0.00  0.00    +0.000 A 
ATOM     21  C   UNL     1      48.300   4.591  17.051  0.00  0.00    +0.000 A 
ATOM     22  C   UNL     1      49.484   5.230  17.431  0.00  0.00    +0.000 A 
ATOM     23  C   UNL     1      50.002   6.271  16.647  0.00  0.00    +0.000 A 
BRANCH  21  24
ATOM     24  C   UNL     1      47.701   3.477  17.832  0.00  0.00    +0.000 C 
ATOM     25  N   UNL     1      48.326   3.123  18.996  0.00  0.00    +0.000 N 
ATOM     26  O   UNL     1      46.721   2.864  17.435  0.00  0.00    +0.000 OA
ATOM     27  H   UNL     1      49.263   3.423  19.215  0.00  0.00    +0.000 HD
ATOM     28  H   UNL     1      47.986   2.280  19.440  0.00  0.00    +0.000 HD
ENDBRANCH  21  24
ENDBRANCH  16  18
ENDBRANCH  15  16
ENDBRANCH   1  15
TORSDOF 6
ENDMDL
