MODEL 1
REMARK VINA RESULT:    -8.229      0.000      0.000
REMARK INTER + INTRA:         -10.733
REMARK INTER:                 -10.154
REMARK INTRA:                  -0.579
REMARK UNBOUND:                -0.579
REMARK  Name = 
REMARK  6 active torsions:
REMARK  status: ('A' for Active; 'I' for Inactive)
REMARK    1  A    between atoms: C_1  and  C_2
REMARK    2  A    between atoms: C_5  and  C_6
REMARK    3  A    between atoms: C_6  and  C_7
REMARK    4  A    between atoms: C_6  and  N_8
REMARK    5  A    between atoms: N_8  and  C_9
REMARK    6  A    between atoms: C_12  and  C_13
REMARK                            x       y       z     vdW  Elec       q    Type
REMARK                         _______ _______ _______ _____ _____    ______ ____
ROOT
ATOM      1  N   UNL     1      43.739   4.845   9.841  0.00  0.00    +0.000 N 
ATOM      2  H   UNL     1      44.034   5.799   9.631  0.00  0.00    +0.000 HD
ENDROOT
BRANCH   1   3
ATOM      3  C   UNL     1      44.552   3.937   9.134  0.00  0.00    +0.000 A 
ATOM      4  C   UNL     1      45.582   4.318   8.274  0.00  0.00    +0.000 A 
ATOM      5  C   UNL     1      46.404   3.365   7.661  0.00  0.00    +0.000 A 
ATOM      6  C   UNL     1      46.195   2.027   7.952  0.00  0.00    +0.000 A 
ATOM      7  N   UNL     1      45.237   1.588   8.808  0.00  0.00    +0.000 NA
ATOM      8  C   UNL     1      44.463   2.557   9.378  0.00  0.00    +0.000 A 
BRANCH   6   9
ATOM      9  C   UNL     1      47.095   1.001   7.325  0.00  0.00    +0.000 C 
ATOM     10  N   UNL     1      46.847  -0.300   7.671  0.00  0.00    +0.000 N 
ATOM     11  O   UNL     1      48.003   1.296   6.559  0.00  0.00    +0.000 OA
ATOM     12  H   UNL     1      46.113  -0.516   8.333  0.00  0.00    +0.000 HD
ATOM     13  H   UNL     1      47.458  -1.027   7.324  0.00  0.00    +0.000 HD
ENDBRANCH   6   9
ENDBRANCH   1   3
BRANCH   1  14
ATOM     14  C   UNL     1      43.552   4.694  11.306  0.00  0.00    +0.000 C 
ATOM     15  C   UNL     1      42.364   5.511  11.830  0.00  0.00    +0.000 C 
BRANCH  14  20
ATOM     16  C   UNL     1      48.133   6.264  14.499  0.00  0.00    +0.000 C 
ATOM     17  C   UNL     1      46.993   5.886  13.608  0.00  0.00    +0.000 A 
ATOM     18  C   UNL     1      46.639   6.641  12.492  0.00  0.00    +0.000 A 
ATOM     19  C   UNL     1      45.544   6.261  11.713  0.00  0.00    +0.000 A 
ATOM     20  C   UNL     1      44.817   5.122  12.066  0.00  0.00    +0.000 A 
ATOM     21  N   UNL     1      45.162   4.365  13.139  0.00  0.00    +0.000 NA
ATOM     22  C   UNL     1      46.222   4.762  13.881  0.00  0.00    +0.000 A 
ENDBRANCH  14  20
ENDBRANCH   1  14
TORSDOF 4
ENDMDL
MODEL 2
REMARK VINA RESULT:    -7.253      2.752      6.162
REMARK INTER + INTRA:          -9.528
REMARK INTER:                  -9.453
REMARK INTRA:                  -0.074
REMARK UNBOUND:                -0.579
REMARK  Name = 
REMARK  6 active torsions:
REMARK  status: ('A' for Active; 'I' for Inactive)
REMARK    1  A    between atoms: C_1  and  C_2
REMARK    2  A    between atoms: C_5  and  C_6
REMARK    3  A    between atoms: C_6  and  C_7
REMARK    4  A    between atoms: C_6  and  N_8
REMARK    5  A    between atoms: N_8  and  C_9
REMARK    6  A    between atoms: C_12  and  C_13
REMARK                            x       y       z     vdW  Elec       q    Type
REMARK                         _______ _______ _______ _____ _____    ______ ____
ROOT
ATOM      1  N   UNL     1      44.172   5.400  10.532  0.00  0.00    +0.000 N 
ATOM      2  H   UNL     1      43.344   5.882  10.884  0.00  0.00    +0.000 HD
ENDROOT
BRANCH   1   3
ATOM      3  C   UNL     1      45.223   5.535  11.460  0.00  0.00    +0.000 A 
ATOM      4  C   UNL     1      46.416   6.207  11.197  0.00  0.00    +0.000 A 
ATOM      5  C   UNL     1      47.389   6.372  12.189  0.00  0.00    +0.000 A 
ATOM      6  C   UNL     1      47.130   5.881  13.458  0.00  0.00    +0.000 A 
ATOM      7  N   UNL     1      45.975   5.252  13.794  0.00  0.00    +0.000 NA
ATOM      8  C   UNL     1      45.059   5.116  12.791  0.00  0.00    +0.000 A 
BRANCH   6   9
ATOM      9  C   UNL     1      48.154   6.085  14.537  0.00  0.00    +0.000 C 
ATOM     10  N   UNL     1      47.779   5.699  15.795  0.00  0.00    +0.000 N 
ATOM     11  O   UNL     1      49.255   6.574  14.320  0.00  0.00    +0.000 OA
ATOM     12  H   UNL     1      46.851   5.329  15.955  0.00  0.00    +0.000 HD
ATOM     13  H   UNL     1      48.408   5.865  16.570  0.00  0.00    +0.000 HD
ENDBRANCH   6   9
ENDBRANCH   1   3
BRANCH   1  14
ATOM     14  C   UNL     1      43.789   4.057  10.028  0.00  0.00    +0.000 C 
ATOM     15  C   UNL     1      43.542   3.056  11.164  0.00  0.00    +0.000 C 
BRANCH  14  20
ATOM     16  C   UNL     1      47.715   2.097   6.234  0.00  0.00    +0.000 C 
ATOM     17  C   UNL     1      46.734   2.550   7.269  0.00  0.00    +0.000 A 
ATOM     18  C   UNL     1      46.177   1.674   8.198  0.00  0.00    +0.000 A 
ATOM     19  C   UNL     1      45.240   2.143   9.122  0.00  0.00    +0.000 A 
ATOM     20  C   UNL     1      44.875   3.491   9.100  0.00  0.00    +0.000 A 
ATOM     21  N   UNL     1      45.424   4.360   8.213  0.00  0.00    +0.000 NA
ATOM     22  C   UNL     1      46.322   3.876   7.324  0.00  0.00    +0.000 A 
ENDBRANCH  14  20
ENDBRANCH   1  14
TORSDOF 4
ENDMDL
MODEL 3
REMARK VINA RESULT:    -6.776      3.463      6.755
REMARK INTER + INTRA:          -8.939
REMARK INTER:                  -8.444
REMARK INTRA:                  -0.495
REMARK UNBOUND:                -0.579
REMARK  Name = 
REMARK  6 active torsions:
REMARK  status: ('A' for Active; 'I' for Inactive)
REMARK    1  A    between atoms: C_1  and  C_2
REMARK    2  A    between atoms: C_5  and  C_6
REMARK    3  A    between atoms: C_6  and  C_7
REMARK    4  A    between atoms: C_6  and  N_8
REMARK    5  A    between atoms: N_8  and  C_9
REMARK    6  A    between atoms: C_12  and  C_13
REMARK                            x       y       z     vdW  Elec       q    Type
REMARK                         _______ _______ _______ _____ _____    ______ ____
ROOT
ATOM      1  N   UNL     1      45.073   4.476  11.894  0.00  0.00    +0.000 N 
ATOM      2  H   UNL     1      46.011   4.100  11.752  0.00  0.00    +0.000 HD
ENDROOT
BRANCH   1   3
ATOM      3  C   UNL     1      45.148   5.874  12.054  0.00  0.00    +0.000 A 
ATOM      4  C   UNL     1      46.162   6.525  12.755  0.00  0.00    +0.000 A 
ATOM      5  C   UNL     1      46.221   7.923  12.812  0.00  0.00    +0.000 A 
ATOM      6  C   UNL     1      45.266   8.653  12.126  0.00  0.00    +0.000 A 
ATOM      7  N   UNL     1      44.274   8.085  11.392  0.00  0.00    +0.000 NA
ATOM      8  C   UNL     1      44.261   6.721  11.370  0.00  0.00    +0.000 A 
BRANCH   6   9
ATOM      9  C   UNL     1      45.343  10.153  12.153  0.00  0.00    +0.000 C 
ATOM     10  N   UNL     1      46.598  10.683  12.271  0.00  0.00    +0.000 N 
ATOM     11  O   UNL     1      44.351  10.868  12.085  0.00  0.00    +0.000 OA
ATOM     12  H   UNL     1      47.400  10.071  12.360  0.00  0.00    +0.000 HD
ATOM     13  H   UNL     1      46.704  11.686  12.351  0.00  0.00    +0.000 HD
ENDBRANCH   6   9
ENDBRANCH   1   3
BRANCH   1  14
ATOM     14  C   UNL     1      44.146   3.888  10.894  0.00  0.00    +0.000 C 
ATOM     15  C   UNL     1      43.376   2.683  11.449  0.00  0.00    +0.000 C 
BRANCH  14  20
ATOM     16  C   UNL     1      47.231   1.996   6.360  0.00  0.00    +0.000 C 
ATOM     17  C   UNL     1      46.404   2.544   7.480  0.00  0.00    +0.000 A 
ATOM     18  C   UNL     1      46.182   3.910   7.641  0.00  0.00    +0.000 A 
ATOM     19  C   UNL     1      45.430   4.371   8.724  0.00  0.00    +0.000 A 
ATOM     20  C   UNL     1      44.908   3.448   9.634  0.00  0.00    +0.000 A 
ATOM     21  N   UNL     1      45.099   2.113   9.480  0.00  0.00    +0.000 NA
ATOM     22  C   UNL     1      45.840   1.696   8.426  0.00  0.00    +0.000 A 
ENDBRANCH  14  20
ENDBRANCH   1  14
TORSDOF 4
ENDMDL
MODEL 4
REMARK VINA RESULT:    -6.747      3.112      6.667
REMARK INTER + INTRA:          -8.904
REMARK INTER:                  -8.365
REMARK INTRA:                  -0.539
REMARK UNBOUND:                -0.579
REMARK  Name = 
REMARK  6 active torsions:
REMARK  status: ('A' for Active; 'I' for Inactive)
REMARK    1  A    between atoms: C_1  and  C_2
REMARK    2  A    between atoms: C_5  and  C_6
REMARK    3  A    between atoms: C_6  and  C_7
REMARK    4  A    between atoms: C_6  and  N_8
REMARK    5  A    between atoms: N_8  and  C_9
REMARK    6  A    between atoms: C_12  and  C_13
REMARK                            x       y       z     vdW  Elec       q    Type
REMARK                         _______ _______ _______ _____ _____    ______ ____
ROOT
ATOM      1  N   UNL     1      45.378   3.867  12.360  0.00  0.00    +0.000 N 
ATOM      2  H   UNL     1      46.130   3.209  12.155  0.00  0.00    +0.000 HD
ENDROOT
BRANCH   1   3
ATOM      3  C   UNL     1      45.929   5.125  12.674  0.00  0.00    +0.000 A 
ATOM      4  C   UNL     1      45.283   6.339  12.446  0.00  0.00    +0.000 A 
ATOM      5  C   UNL     1      45.854   7.551  12.853  0.00  0.00    +0.000 A 
ATOM      6  C   UNL     1      47.066   7.520  13.520  0.00  0.00    +0.000 A 
ATOM      7  N   UNL     1      47.732   6.372  13.809  0.00  0.00    +0.000 NA
ATOM      8  C   UNL     1      47.133   5.219  13.392  0.00  0.00    +0.000 A 
BRANCH   6   9
ATOM      9  C   UNL     1      47.668   8.813  13.990  0.00  0.00    +0.000 C 
ATOM     10  N   UNL     1      47.557   9.071  15.329  0.00  0.00    +0.000 N 
ATOM     11  O   UNL     1      48.218   9.602  13.231  0.00  0.00    +0.000 OA
ATOM     12  H   UNL     1      47.068   8.420  15.931  0.00  0.00    +0.000 HD
ATOM     13  H   UNL     1      47.895   9.953  15.691  0.00  0.00    +0.000 HD
ENDBRANCH   6   9
ENDBRANCH   1   3
BRANCH   1  14
ATOM     14  C   UNL     1      44.320   3.753  11.323  0.00  0.00    +0.000 C 
ATOM     15  C   UNL     1      43.327   2.625  11.624  0.00  0.00    +0.000 C 
BRANCH  14  20
ATOM     16  C   UNL     1      46.881   2.574   6.254  0.00  0.00    +0.000 C 
ATOM     17  C   UNL     1      46.186   2.945   7.525  0.00  0.00    +0.000 A 
ATOM     18  C   UNL     1      45.994   4.271   7.909  0.00  0.00    +0.000 A 
ATOM     19  C   UNL     1      45.368   4.561   9.123  0.00  0.00    +0.000 A 
ATOM     20  C   UNL     1      44.938   3.510   9.938  0.00  0.00    +0.000 A 
ATOM     21  N   UNL     1      45.101   2.213   9.568  0.00  0.00    +0.000 NA
ATOM     22  C   UNL     1      45.719   1.962   8.391  0.00  0.00    +0.000 A 
ENDBRANCH  14  20
ENDBRANCH   1  14
TORSDOF 4
ENDMDL
MODEL 5
REMARK VINA RESULT:    -5.941      3.901      6.122
REMARK INTER + INTRA:          -7.909
REMARK INTER:                  -7.443
REMARK INTRA:                  -0.467
REMARK UNBOUND:                -0.579
REMARK  Name = 
REMARK  6 active torsions:
REMARK  status: ('A' for Active; 'I' for Inactive)
REMARK    1  A    between atoms: C_1  and  C_2
REMARK    2  A    between atoms: C_5  and  C_6
REMARK    3  A    between atoms: C_6  and  C_7
REMARK    4  A    between atoms: C_6  and  N_8
REMARK    5  A    between atoms: N_8  and  C_9
REMARK    6  A    between atoms: C_12  and  C_13
REMARK                            x       y       z     vdW  Elec       q    Type
REMARK                         _______ _______ _______ _____ _____    ______ ____
ROOT
ATOM      1  N   UNL     1      47.572   5.158  15.401  0.00  0.00    +0.000 N 
ATOM      2  H   UNL     1      48.536   5.236  15.075  0.00  0.00    +0.000 HD
ENDROOT
BRANCH   1   3
ATOM      3  C   UNL     1      46.733   4.860  14.309  0.00  0.00    +0.000 A 
ATOM      4  C   UNL     1      46.103   5.825  13.523  0.00  0.00    +0.000 A 
ATOM      5  C   UNL     1      45.343   5.464  12.405  0.00  0.00    +0.000 A 
ATOM      6  C   UNL     1      45.254   4.123  12.070  0.00  0.00    +0.000 A 
ATOM      7  N   UNL     1      45.872   3.136  12.767  0.00  0.00    +0.000 NA
ATOM      8  C   UNL     1      46.600   3.540  13.848  0.00  0.00    +0.000 A 
BRANCH   6   9
ATOM      9  C   UNL     1      44.469   3.731  10.851  0.00  0.00    +0.000 C 
ATOM     10  N   UNL     1      44.402   2.390  10.591  0.00  0.00    +0.000 N 
ATOM     11  O   UNL     1      43.926   4.551  10.121  0.00  0.00    +0.000 OA
ATOM     12  H   UNL     1      44.887   1.734  11.190  0.00  0.00    +0.000 HD
ATOM     13  H   UNL     1      43.934   2.073   9.752  0.00  0.00    +0.000 HD
ENDBRANCH   6   9
ENDBRANCH   1   3
BRANCH   1  14
ATOM     14  C   UNL     1      47.528   4.322  16.627  0.00  0.00    +0.000 C 
ATOM     15  C   UNL     1      47.113   5.124  17.867  0.00  0.00    +0.000 C 
BRANCH  14  20
ATOM     16  C   UNL     1      52.500   1.556  17.757  0.00  0.00    +0.000 C 
ATOM     17  C   UNL     1      51.262   2.339  17.456  0.00  0.00    +0.000 A 
ATOM     18  C   UNL     1      51.091   3.655  17.884  0.00  0.00    +0.000 A 
ATOM     19  C   UNL     1      49.901   4.329  17.605  0.00  0.00    +0.000 A 
ATOM     20  C   UNL     1      48.894   3.671  16.895  0.00  0.00    +0.000 A 
ATOM     21  N   UNL     1      49.053   2.397  16.455  0.00  0.00    +0.000 NA
ATOM     22  C   UNL     1      50.213   1.765  16.748  0.00  0.00    +0.000 A 
ENDBRANCH  14  20
ENDBRANCH   1  14
TORSDOF 4
ENDMDL
MODEL 6
REMARK VINA RESULT:    -5.915      3.417      7.041
REMARK INTER + INTRA:          -7.878
REMARK INTER:                  -7.445
REMARK INTRA:                  -0.432
REMARK UNBOUND:                -0.579
REMARK  Name = 
REMARK  6 active torsions:
REMARK  status: ('A' for Active; 'I' for Inactive)
REMARK    1  A    between atoms: C_1  and  C_2
REMARK    2  A    between atoms: C_5  and  C_6
REMARK    3  A    between atoms: C_6  and  C_7
REMARK    4  A    between atoms: C_6  and  N_8
REMARK    5  A    between atoms: N_8  and  C_9
REMARK    6  A    between atoms: C_12  and  C_13
REMARK                            x       y       z     vdW  Elec       q    Type
REMARK                         _______ _______ _______ _____ _____    ______ ____
ROOT
ATOM      1  N   UNL     1      45.913   3.628  13.239  0.00  0.00    +0.000 N 
ATOM      2  H   UNL     1      46.502   3.070  12.620  0.00  0.00    +0.000 HD
ENDROOT
BRANCH   1   3
ATOM      3  C   UNL     1      46.729   4.393  14.096  0.00  0.00    +0.000 A 
ATOM      4  C   UNL     1      47.013   4.048  15.417  0.00  0.00    +0.000 A 
ATOM      5  C   UNL     1      47.895   4.811  16.192  0.00  0.00    +0.000 A 
ATOM      6  C   UNL     1      48.511   5.905  15.608  0.00  0.00    +0.000 A 
ATOM      7  N   UNL     1      48.310   6.276  14.317  0.00  0.00    +0.000 NA
ATOM      8  C   UNL     1      47.442   5.500  13.606  0.00  0.00    +0.000 A 
BRANCH   6   9
ATOM      9  C   UNL     1      49.484   6.708  16.422  0.00  0.00    +0.000 C 
ATOM     10  N   UNL     1      48.933   7.626  17.275  0.00  0.00    +0.000 N 
ATOM     11  O   UNL     1      50.697   6.568  16.331  0.00  0.00    +0.000 OA
ATOM     12  H   UNL     1      47.929   7.747  17.308  0.00  0.00    +0.000 HD
ATOM     13  H   UNL     1      49.543   8.234  17.806  0.00  0.00    +0.000 HD
ENDBRANCH   6   9
ENDBRANCH   1   3
BRANCH   1  14
ATOM     14  C   UNL     1      44.841   4.284  12.448  0.00  0.00    +0.000 C 
ATOM     15  C   UNL     1      43.448   3.742  12.791  0.00  0.00    +0.000 C 
BRANCH  14  20
ATOM     16  C   UNL     1      45.962   3.281   6.845  0.00  0.00    +0.000 C 
ATOM     17  C   UNL     1      45.644   3.615   8.268  0.00  0.00    +0.000 A 
ATOM     18  C   UNL     1      45.801   4.900   8.784  0.00  0.00    +0.000 A 
ATOM     19  C   UNL     1      45.522   5.150  10.129  0.00  0.00    +0.000 A 
ATOM     20  C   UNL     1      45.084   4.101  10.942  0.00  0.00    +0.000 A 
ATOM     21  N   UNL     1      44.908   2.848  10.449  0.00  0.00    +0.000 NA
ATOM     22  C   UNL     1      45.195   2.633   9.144  0.00  0.00    +0.000 A 
ENDBRANCH  14  20
ENDBRANCH   1  14
TORSDOF 4
ENDMDL
MODEL 7
REMARK VINA RESULT:    -5.759      3.484      6.647
REMARK INTER + INTRA:          -7.685
REMARK INTER:                  -7.161
REMARK INTRA:                  -0.524
REMARK UNBOUND:                -0.579
REMARK  Name = 
REMARK  6 active torsions:
REMARK  status: ('A' for Active; 'I' for Inactive)
REMARK    1  A    between atoms: C_1  and  C_2
REMARK    2  A    between atoms: C_5  and  C_6
REMARK    3  A    between atoms: C_6  and  C_7
REMARK    4  A    between atoms: C_6  and  N_8
REMARK    5  A    between atoms: N_8  and  C_9
REMARK    6  A    between atoms: C_12  and  C_13
REMARK                            x       y       z     vdW  Elec       q    Type
REMARK                         _______ _______ _______ _____ _____    ______ ____
ROOT
ATOM      1  N   UNL     1      45.237   5.018  12.289  0.00  0.00    +0.000 N 
ATOM      2  H   UNL     1      45.720   4.124  12.379  0.00  0.00    +0.000 HD
ENDROOT
BRANCH   1   3
ATOM      3  C   UNL     1      46.159   6.069  12.462  0.00  0.00    +0.000 A 
ATOM      4  C   UNL     1      47.476   5.890  12.883  0.00  0.00    +0.000 A 
ATOM      5  C   UNL     1      48.365   6.969  12.962  0.00  0.00    +0.000 A 
ATOM      6  C   UNL     1      47.918   8.222  12.579  0.00  0.00    +0.000 A 
ATOM      7  N   UNL     1      46.661   8.462  12.124  0.00  0.00    +0.000 NA
ATOM      8  C   UNL     1      45.835   7.377  12.067  0.00  0.00    +0.000 A 
BRANCH   6   9
ATOM      9  C   UNL     1      48.875   9.378  12.627  0.00  0.00    +0.000 C 
ATOM     10  N   UNL     1      50.112   9.151  12.088  0.00  0.00    +0.000 N 
ATOM     11  O   UNL     1      48.584  10.459  13.124  0.00  0.00    +0.000 OA
ATOM     12  H   UNL     1      50.341   8.239  11.714  0.00  0.00    +0.000 HD
ATOM     13  H   UNL     1      50.815   9.876  12.145  0.00  0.00    +0.000 HD
ENDBRANCH   6   9
ENDBRANCH   1   3
BRANCH   1  14
ATOM     14  C   UNL     1      44.356   4.988  11.093  0.00  0.00    +0.000 C 
ATOM     15  C   UNL     1      42.999   4.334  11.384  0.00  0.00    +0.000 C 
BRANCH  14  20
ATOM     16  C   UNL     1      46.741   2.386   6.490  0.00  0.00    +0.000 C 
ATOM     17  C   UNL     1      46.149   2.991   7.723  0.00  0.00    +0.000 A 
ATOM     18  C   UNL     1      45.519   2.223   8.700  0.00  0.00    +0.000 A 
ATOM     19  C   UNL     1      44.953   2.843   9.816  0.00  0.00    +0.000 A 
ATOM     20  C   UNL     1      45.030   4.232   9.937  0.00  0.00    +0.000 A 
ATOM     21  N   UNL     1      45.658   4.993   9.003  0.00  0.00    +0.000 NA
ATOM     22  C   UNL     1      46.188   4.365   7.928  0.00  0.00    +0.000 A 
ENDBRANCH  14  20
ENDBRANCH   1  14
TORSDOF 4
ENDMDL
MODEL 8
REMARK VINA RESULT:    -5.578      3.479      5.448
REMARK INTER + INTRA:          -7.461
REMARK INTER:                  -6.948
REMARK INTRA:                  -0.513
REMARK UNBOUND:                -0.579
REMARK  Name = 
REMARK  6 active torsions:
REMARK  status: ('A' for Active; 'I' for Inactive)
REMARK    1  A    between atoms: C_1  and  C_2
REMARK    2  A    between atoms: C_5  and  C_6
REMARK    3  A    between atoms: C_6  and  C_7
REMARK    4  A    between atoms: C_6  and  N_8
REMARK    5  A    between atoms: N_8  and  C_9
REMARK    6  A    between atoms: C_12  and  C_13
REMARK                            x       y       z     vdW  Elec       q    Type
REMARK                         _______ _______ _______ _____ _____    ______ ____
ROOT
ATOM      1  N   UNL     1      47.067   6.875  13.887  0.00  0.00    +0.000 N 
ATOM      2  H   UNL     1      46.687   7.814  13.764  0.00  0.00    +0.000 HD
ENDROOT
BRANCH   1   3
ATOM      3  C   UNL     1      46.286   5.955  13.161  0.00  0.00    +0.000 A 
ATOM      4  C   UNL     1      45.829   6.173  11.862  0.00  0.00    +0.000 A 
ATOM      5  C   UNL     1      45.122   5.185  11.167  0.00  0.00    +0.000 A 
ATOM      6  C   UNL     1      44.910   3.964  11.786  0.00  0.00    +0.000 A 
ATOM      7  N   UNL     1      45.359   3.671  13.033  0.00  0.00    +0.000 NA
ATOM      8  C   UNL     1      46.042   4.667  13.667  0.00  0.00    +0.000 A 
BRANCH   6   9
ATOM      9  C   UNL     1      44.182   2.887  11.034  0.00  0.00    +0.000 C 
ATOM     10  N   UNL     1      44.847   2.354   9.964  0.00  0.00    +0.000 N 
ATOM     11  O   UNL     1      43.059   2.508  11.342  0.00  0.00    +0.000 OA
ATOM     12  H   UNL     1      45.761   2.707   9.708  0.00  0.00    +0.000 HD
ATOM     13  H   UNL     1      44.382   1.665   9.388  0.00  0.00    +0.000 HD
ENDBRANCH   6   9
ENDBRANCH   1   3
BRANCH   1  14
ATOM     14  C   UNL     1      48.541   6.908  13.709  0.00  0.00    +0.000 C 
ATOM     15  C   UNL     1      49.287   7.073  15.039  0.00  0.00    +0.000 C 
BRANCH  14  20
ATOM     16  C   UNL     1      50.424  11.240  10.343  0.00  0.00    +0.000 C 
ATOM     17  C   UNL     1      49.863  10.134  11.178  0.00  0.00    +0.000 A 
ATOM     18  C   UNL     1      48.578  10.186  11.714  0.00  0.00    +0.000 A 
ATOM     19  C   UNL     1      48.115   9.140  12.516  0.00  0.00    +0.000 A 
ATOM     20  C   UNL     1      48.952   8.051  12.767  0.00  0.00    +0.000 A 
ATOM     21  N   UNL     1      50.200   7.977  12.236  0.00  0.00    +0.000 NA
ATOM     22  C   UNL     1      50.625   9.009  11.471  0.00  0.00    +0.000 A 
ENDBRANCH  14  20
ENDBRANCH   1  14
TORSDOF 4
ENDMDL
MODEL 9
REMARK VINA RESULT:    -5.469      3.555      5.845
REMARK INTER + INTRA:          -7.327
REMARK INTER:                  -6.871
REMARK INTRA:                  -0.456
REMARK UNBOUND:                -0.579
REMARK  Name = 
REMARK  6 active torsions:
REMARK  status: ('A' for Active; 'I' for Inactive)
REMARK    1  A    between atoms: C_1  and  C_2
REMARK    2  A    between atoms: C_5  and  C_6
REMARK    3  A    between atoms: C_6  and  C_7
REMARK    4  A    between atoms: C_6  and  N_8
REMARK    5  A    between atoms: N_8  and  C_9
REMARK    6  A    between atoms: C_12  and  C_13
REMARK                            x       y       z     vdW  Elec       q    Type
REMARK                         _______ _______ _______ _____ _____    ______ ____
ROOT
ATOM      1  N   UNL     1      48.324   6.439  13.459  0.00  0.00    +0.000 N 
ATOM      2  H   UNL     1      49.114   5.794  13.431  0.00  0.00    +0.000 HD
ENDROOT
BRANCH   1   3
ATOM      3  C   UNL     1      47.154   5.762  13.060  0.00  0.00    +0.000 A 
ATOM      4  C   UNL     1      46.327   6.181  12.018  0.00  0.00    +0.000 A 
ATOM      5  C   UNL     1      45.221   5.421  11.621  0.00  0.00    +0.000 A 
ATOM      6  C   UNL     1      44.979   4.219  12.265  0.00  0.00    +0.000 A 
ATOM      7  N   UNL     1      45.764   3.733  13.260  0.00  0.00    +0.000 NA
ATOM      8  C   UNL     1      46.829   4.511  13.609  0.00  0.00    +0.000 A 
BRANCH   6   9
ATOM      9  C   UNL     1      43.814   3.382  11.821  0.00  0.00    +0.000 C 
ATOM     10  N   UNL     1      43.671   2.177  12.454  0.00  0.00    +0.000 N 
ATOM     11  O   UNL     1      43.039   3.738  10.942  0.00  0.00    +0.000 OA
ATOM     12  H   UNL     1      44.344   1.889  13.153  0.00  0.00    +0.000 HD
ATOM     13  H   UNL     1      42.938   1.547  12.155  0.00  0.00    +0.000 HD
ENDBRANCH   6   9
ENDBRANCH   1   3
BRANCH   1  14
ATOM     14  C   UNL     1      48.348   7.201  14.733  0.00  0.00    +0.000 C 
ATOM     15  C   UNL     1      48.945   8.603  14.564  0.00  0.00    +0.000 C 
BRANCH  14  20
ATOM     16  C   UNL     1      51.645   4.280  18.508  0.00  0.00    +0.000 C 
ATOM     17  C   UNL     1      50.735   5.034  17.592  0.00  0.00    +0.000 A 
ATOM     18  C   UNL     1      49.361   4.802  17.552  0.00  0.00    +0.000 A 
ATOM     19  C   UNL     1      48.560   5.510  16.654  0.00  0.00    +0.000 A 
ATOM     20  C   UNL     1      49.153   6.448  15.804  0.00  0.00    +0.000 A 
ATOM     21  N   UNL     1      50.487   6.699  15.845  0.00  0.00    +0.000 NA
ATOM     22  C   UNL     1      51.239   5.991  16.719  0.00  0.00    +0.000 A 
ENDBRANCH  14  20
ENDBRANCH   1  14
TORSDOF 4
ENDMDL
