MODEL 1
REMARK VINA RESULT:    -8.043      0.000      0.000
REMARK INTER + INTRA:         -12.593
REMARK INTER:                 -11.804
REMARK INTRA:                  -0.789
REMARK UNBOUND:                -0.789
REMARK  Name = 
REMARK  9 active torsions:
REMARK  status: ('A' for Active; 'I' for Inactive)
REMARK    1  A    between atoms: C_1  and  C_2
REMARK    2  A    between atoms: C_2  and  N_3
REMARK    3  A    between atoms: C_2  and  C_19
REMARK    4  A    between atoms: N_3  and  C_4
REMARK    5  A    between atoms: C_4  and  C_5
REMARK    6  A    between atoms: C_8  and  C_9
REMARK    7  A    between atoms: C_9  and  N_10
REMARK    8  A    between atoms: N_10  and  C_11
REMARK    9  A    between atoms: C_11  and  C_12
REMARK                            x       y       z     vdW  Elec       q    Type
REMARK                         _______ _______ _______ _____ _____    ______ ____
ROOT
ATOM      1  C   UNL     1      48.048   5.750  14.451  0.00  0.00    +0.000 C 
ENDROOT
BRANCH   1   2
ATOM      2  C   UNL     1      46.866   5.095  13.795  0.00  0.00    +0.000 A 
ATOM      3  C   UNL     1      45.785   5.840  13.327  0.00  0.00    +0.000 A 
ATOM      4  C   UNL     1      44.749   5.201  12.659  0.00  0.00    +0.000 A 
ATOM      5  C   UNL     1      44.818   3.823  12.462  0.00  0.00    +0.000 A 
ATOM      6  N   UNL     1      45.861   3.076  12.901  0.00  0.00    +0.000 NA
ATOM      7  C   UNL     1      46.844   3.721  13.565  0.00  0.00    +0.000 A 
BRANCH   5   8
ATOM      8  C   UNL     1      43.690   3.111  11.746  0.00  0.00    +0.000 C 
BRANCH   8   9
ATOM      9  N   UNL     1      44.019   2.542  10.453  0.00  0.00    +0.000 NA
ATOM     10  H   UNL     1      43.260   1.961  10.086  0.00  0.00    +0.000 HD
BRANCH   9  11
ATOM     11  C   UNL     1      44.257   3.548   9.399  0.00  0.00    +0.000 C 
BRANCH  11  12
ATOM     12  C   UNL     1      45.395   3.172   8.505  0.00  0.00    +0.000 C 
ATOM     13  N   UNL     1      45.974   4.013   7.610  0.00  0.00    +0.000 NA
ATOM     14  C   UNL     1      46.864   3.277   6.915  0.00  0.00    +0.000 C 
ATOM     15  C   UNL     1      46.857   1.997   7.424  0.00  0.00    +0.000 C 
ATOM     16  N   UNL     1      45.968   1.947   8.437  0.00  0.00    +0.000 NA
ENDBRANCH  11  12
ENDBRANCH   9  11
ENDBRANCH   8   9
ENDBRANCH   5   8
ENDBRANCH   1   2
BRANCH   1  17
ATOM     17  N   UNL     1      47.903   5.856  15.901  0.00  0.00    +0.000 NA
ATOM     18  H   UNL     1      48.622   6.485  16.258  0.00  0.00    +0.000 HD
BRANCH  17  20
ATOM     19  C   UNL     1      46.948   4.313  17.619  0.00  0.00    +0.000 C 
ATOM     20  C   UNL     1      48.049   4.564  16.580  0.00  0.00    +0.000 C 
BRANCH  20  21
ATOM     21  C   UNL     1      49.417   4.566  17.237  0.00  0.00    +0.000 A 
ATOM     22  C   UNL     1      49.983   5.675  17.851  0.00  0.00    +0.000 A 
ATOM     23  S   UNL     1      51.505   5.359  18.552  0.00  0.00    +0.000 S 
ATOM     24  C   UNL     1      51.477   3.740  18.031  0.00  0.00    +0.000 A 
ATOM     25  N   UNL     1      52.505   2.893  18.307  0.00  0.00    +0.000 NA
ATOM     26  C   UNL     1      52.355   1.703  17.828  0.00  0.00    +0.000 A 
ATOM     27  N   UNL     1      51.270   1.280  17.104  0.00  0.00    +0.000 N 
ATOM     28  C   UNL     1      50.199   2.094  16.804  0.00  0.00    +0.000 A 
ATOM     29  O   UNL     1      49.248   1.677  16.154  0.00  0.00    +0.000 OA
ATOM     30  C   UNL     1      50.322   3.445  17.326  0.00  0.00    +0.000 A 
ATOM     31  H   UNL     1      51.218   0.338  16.751  0.00  0.00    +0.000 HD
ENDBRANCH  20  21
ENDBRANCH  17  20
ENDBRANCH   1  17
TORSDOF 8
ENDMDL
MODEL 2
REMARK VINA RESULT:    -7.327      1.585      1.926
REMARK INTER + INTRA:         -11.543
REMARK INTER:                 -10.710
REMARK INTRA:                  -0.833
REMARK UNBOUND:                -0.789
REMARK  Name = 
REMARK  9 active torsions:
REMARK  status: ('A' for Active; 'I' for Inactive)
REMARK    1  A    between atoms: C_1  and  C_2
REMARK    2  A    between atoms: C_2  and  N_3
REMARK    3  A    between atoms: C_2  and  C_19
REMARK    4  A    between atoms: N_3  and  C_4
REMARK    5  A    between atoms: C_4  and  C_5
REMARK    6  A    between atoms: C_8  and  C_9
REMARK    7  A    between atoms: C_9  and  N_10
REMARK    8  A    between atoms: N_10  and  C_11
REMARK    9  A    between atoms: C_11  and  C_12
REMARK                            x       y       z     vdW  Elec       q    Type
REMARK                         _______ _______ _______ _____ _____    ______ ____
ROOT
ATOM      1  C   UNL     1      47.808   6.440  13.843  0.00  0.00    +0.000 C 
ENDROOT
BRANCH   1   2
ATOM      2  C   UNL     1      46.734   5.648  13.152  0.00  0.00    +0.000 A 
ATOM      3  C   UNL     1      46.076   6.137  12.024  0.00  0.00    +0.000 A 
ATOM      4  C   UNL     1      45.146   5.340  11.372  0.00  0.00    +0.000 A 
ATOM      5  C   UNL     1      44.895   4.057  11.856  0.00  0.00    +0.000 A 
ATOM      6  N   UNL     1      45.526   3.554  12.946  0.00  0.00    +0.000 NA
ATOM      7  C   UNL     1      46.411   4.360  13.571  0.00  0.00    +0.000 A 
BRANCH   5   8
ATOM      8  C   UNL     1      43.874   3.181  11.162  0.00  0.00    +0.000 C 
BRANCH   8   9
ATOM      9  N   UNL     1      44.387   2.317  10.116  0.00  0.00    +0.000 NA
ATOM     10  H   UNL     1      43.690   1.633   9.809  0.00  0.00    +0.000 HD
BRANCH   9  11
ATOM     11  C   UNL     1      44.771   3.033   8.883  0.00  0.00    +0.000 C 
BRANCH  11  12
ATOM     12  C   UNL     1      45.911   2.373   8.177  0.00  0.00    +0.000 C 
ATOM     13  N   UNL     1      46.758   3.012   7.330  0.00  0.00    +0.000 NA
ATOM     14  C   UNL     1      47.560   2.063   6.805  0.00  0.00    +0.000 C 
ATOM     15  C   UNL     1      47.228   0.853   7.374  0.00  0.00    +0.000 C 
ATOM     16  N   UNL     1      46.227   1.058   8.253  0.00  0.00    +0.000 NA
ENDBRANCH  11  12
ENDBRANCH   9  11
ENDBRANCH   8   9
ENDBRANCH   5   8
ENDBRANCH   1   2
BRANCH   1  17
ATOM     17  N   UNL     1      48.227   5.840  15.108  0.00  0.00    +0.000 NA
ATOM     18  H   UNL     1      47.427   5.365  15.526  0.00  0.00    +0.000 HD
BRANCH  17  20
ATOM     19  C   UNL     1      48.542   8.273  15.575  0.00  0.00    +0.000 C 
ATOM     20  C   UNL     1      48.723   6.831  16.068  0.00  0.00    +0.000 C 
BRANCH  20  21
ATOM     21  C   UNL     1      50.190   6.523  16.299  0.00  0.00    +0.000 A 
ATOM     22  C   UNL     1      51.234   7.279  15.783  0.00  0.00    +0.000 A 
ATOM     23  S   UNL     1      52.775   6.722  16.259  0.00  0.00    +0.000 S 
ATOM     24  C   UNL     1      52.103   5.433  17.141  0.00  0.00    +0.000 A 
ATOM     25  N   UNL     1      52.892   4.551  17.812  0.00  0.00    +0.000 NA
ATOM     26  C   UNL     1      52.244   3.612  18.417  0.00  0.00    +0.000 A 
ATOM     27  N   UNL     1      50.879   3.477  18.420  0.00  0.00    +0.000 N 
ATOM     28  C   UNL     1      50.034   4.347  17.765  0.00  0.00    +0.000 A 
ATOM     29  O   UNL     1      48.819   4.191  17.792  0.00  0.00    +0.000 OA
ATOM     30  C   UNL     1      50.720   5.424  17.070  0.00  0.00    +0.000 A 
ATOM     31  H   UNL     1      50.435   2.715  18.906  0.00  0.00    +0.000 HD
ENDBRANCH  20  21
ENDBRANCH  17  20
ENDBRANCH   1  17
TORSDOF 8
ENDMDL
MODEL 3
REMARK VINA RESULT:    -7.225      2.758      3.637
REMARK INTER + INTRA:         -11.392
REMARK INTER:                 -10.615
REMARK INTRA:                  -0.777
REMARK UNBOUND:                -0.789
REMARK  Name = 
REMARK  9 active torsions:
REMARK  status: ('A' for Active; 'I' for Inactive)
REMARK    1  A    between atoms: C_1  and  C_2
REMARK    2  A    between atoms: C_2  and  N_3
REMARK    3  A    between atoms: C_2  and  C_19
REMARK    4  A    between atoms: N_3  and  C_4
REMARK    5  A    between atoms: C_4  and  C_5
REMARK    6  A    between atoms: C_8  and  C_9
REMARK    7  A    between atoms: C_9  and  N_10
REMARK    8  A    between atoms: N_10  and  C_11
REMARK    9  A    between atoms: C_11  and  C_12
REMARK                            x       y       z     vdW  Elec       q    Type
REMARK                         _______ _______ _______ _____ _____    ______ ____
ROOT
ATOM      1  C   UNL     1      47.898   6.618  13.621  0.00  0.00    +0.000 C 
ENDROOT
BRANCH   1   2
ATOM      2  C   UNL     1      46.773   6.097  12.773  0.00  0.00    +0.000 A 
ATOM      3  C   UNL     1      46.644   6.454  11.431  0.00  0.00    +0.000 A 
ATOM      4  C   UNL     1      45.634   5.889  10.665  0.00  0.00    +0.000 A 
ATOM      5  C   UNL     1      44.772   4.965  11.254  0.00  0.00    +0.000 A 
ATOM      6  N   UNL     1      44.880   4.595  12.554  0.00  0.00    +0.000 NA
ATOM      7  C   UNL     1      45.859   5.177  13.280  0.00  0.00    +0.000 A 
BRANCH   5   8
ATOM      8  C   UNL     1      43.659   4.350  10.434  0.00  0.00    +0.000 C 
BRANCH   8   9
ATOM      9  N   UNL     1      44.057   3.745   9.176  0.00  0.00    +0.000 NA
ATOM     10  H   UNL     1      44.796   4.280   8.712  0.00  0.00    +0.000 HD
BRANCH   9  11
ATOM     11  C   UNL     1      44.615   2.386   9.315  0.00  0.00    +0.000 C 
BRANCH  11  12
ATOM     12  C   UNL     1      45.787   2.160   8.416  0.00  0.00    +0.000 C 
ATOM     13  N   UNL     1      46.417   3.142   7.720  0.00  0.00    +0.000 NA
ATOM     14  C   UNL     1      47.328   2.530   6.937  0.00  0.00    +0.000 C 
ATOM     15  C   UNL     1      47.283   1.178   7.197  0.00  0.00    +0.000 C 
ATOM     16  N   UNL     1      46.348   0.958   8.144  0.00  0.00    +0.000 NA
ENDBRANCH  11  12
ENDBRANCH   9  11
ENDBRANCH   8   9
ENDBRANCH   5   8
ENDBRANCH   1   2
BRANCH   1  17
ATOM     17  N   UNL     1      48.024   5.907  14.892  0.00  0.00    +0.000 NA
ATOM     18  H   UNL     1      47.091   5.672  15.230  0.00  0.00    +0.000 HD
BRANCH  17  20
ATOM     19  C   UNL     1      50.162   7.001  15.578  0.00  0.00    +0.000 C 
ATOM     20  C   UNL     1      48.697   6.704  15.922  0.00  0.00    +0.000 C 
BRANCH  20  21
ATOM     21  C   UNL     1      48.598   5.920  17.218  0.00  0.00    +0.000 A 
ATOM     22  C   UNL     1      48.869   4.563  17.327  0.00  0.00    +0.000 A 
ATOM     23  S   UNL     1      48.728   3.971  18.921  0.00  0.00    +0.000 S 
ATOM     24  C   UNL     1      48.269   5.497  19.513  0.00  0.00    +0.000 A 
ATOM     25  N   UNL     1      47.995   5.688  20.832  0.00  0.00    +0.000 NA
ATOM     26  C   UNL     1      47.637   6.893  21.130  0.00  0.00    +0.000 A 
ATOM     27  N   UNL     1      47.533   7.925  20.234  0.00  0.00    +0.000 N 
ATOM     28  C   UNL     1      47.808   7.788  18.890  0.00  0.00    +0.000 A 
ATOM     29  O   UNL     1      47.703   8.736  18.121  0.00  0.00    +0.000 OA
ATOM     30  C   UNL     1      48.218   6.448  18.507  0.00  0.00    +0.000 A 
ATOM     31  H   UNL     1      47.241   8.842  20.531  0.00  0.00    +0.000 HD
ENDBRANCH  20  21
ENDBRANCH  17  20
ENDBRANCH   1  17
TORSDOF 8
ENDMDL
MODEL 4
REMARK VINA RESULT:    -7.015      3.076      8.568
REMARK INTER + INTRA:         -11.084
REMARK INTER:                 -10.442
REMARK INTRA:                  -0.642
REMARK UNBOUND:                -0.789
REMARK  Name = 
REMARK  9 active torsions:
REMARK  status: ('A' for Active; 'I' for Inactive)
REMARK    1  A    between atoms: C_1  and  C_2
REMARK    2  A    between atoms: C_2  and  N_3
REMARK    3  A    between atoms: C_2  and  C_19
REMARK    4  A    between atoms: N_3  and  C_4
REMARK    5  A    between atoms: C_4  and  C_5
REMARK    6  A    between atoms: C_8  and  C_9
REMARK    7  A    between atoms: C_9  and  N_10
REMARK    8  A    between atoms: N_10  and  C_11
REMARK    9  A    between atoms: C_11  and  C_12
REMARK                            x       y       z     vdW  Elec       q    Type
REMARK                         _______ _______ _______ _____ _____    ______ ____
ROOT
ATOM      1  C   UNL     1      47.174   6.145  12.457  0.00  0.00    +0.000 C 
ENDROOT
BRANCH   1   2
ATOM      2  C   UNL     1      47.460   5.644  13.844  0.00  0.00    +0.000 A 
ATOM      3  C   UNL     1      48.293   6.344  14.716  0.00  0.00    +0.000 A 
ATOM      4  C   UNL     1      48.469   5.885  16.014  0.00  0.00    +0.000 A 
ATOM      5  C   UNL     1      47.799   4.734  16.423  0.00  0.00    +0.000 A 
ATOM      6  N   UNL     1      46.978   4.038  15.597  0.00  0.00    +0.000 NA
ATOM      7  C   UNL     1      46.842   4.497  14.334  0.00  0.00    +0.000 A 
BRANCH   5   8
ATOM      8  C   UNL     1      47.991   4.215  17.831  0.00  0.00    +0.000 C 
BRANCH   8   9
ATOM      9  N   UNL     1      48.403   2.829  17.946  0.00  0.00    +0.000 NA
ATOM     10  H   UNL     1      47.606   2.188  17.904  0.00  0.00    +0.000 HD
BRANCH   9  11
ATOM     11  C   UNL     1      49.298   2.379  16.862  0.00  0.00    +0.000 C 
BRANCH  11  12
ATOM     12  C   UNL     1      50.704   2.191  17.331  0.00  0.00    +0.000 C 
ATOM     13  N   UNL     1      51.500   3.194  17.784  0.00  0.00    +0.000 NA
ATOM     14  C   UNL     1      52.718   2.653  17.988  0.00  0.00    +0.000 C 
ATOM     15  C   UNL     1      52.646   1.307  17.704  0.00  0.00    +0.000 C 
ATOM     16  N   UNL     1      51.382   1.018  17.331  0.00  0.00    +0.000 NA
ENDBRANCH  11  12
ENDBRANCH   9  11
ENDBRANCH   8   9
ENDBRANCH   5   8
ENDBRANCH   1   2
BRANCH   1  17
ATOM     17  N   UNL     1      46.144   7.182  12.432  0.00  0.00    +0.000 NA
ATOM     18  H   UNL     1      45.585   7.109  13.281  0.00  0.00    +0.000 HD
BRANCH  17  20
ATOM     19  C   UNL     1      44.148   8.131  11.267  0.00  0.00    +0.000 C 
ATOM     20  C   UNL     1      45.244   7.057  11.280  0.00  0.00    +0.000 C 
BRANCH  20  21
ATOM     21  C   UNL     1      44.636   5.669  11.347  0.00  0.00    +0.000 A 
ATOM     22  C   UNL     1      43.853   5.213  12.400  0.00  0.00    +0.000 A 
ATOM     23  S   UNL     1      43.262   3.630  12.168  0.00  0.00    +0.000 S 
ATOM     24  C   UNL     1      44.056   3.487  10.671  0.00  0.00    +0.000 A 
ATOM     25  N   UNL     1      43.961   2.351   9.929  0.00  0.00    +0.000 NA
ATOM     26  C   UNL     1      44.636   2.378   8.828  0.00  0.00    +0.000 A 
ATOM     27  N   UNL     1      45.392   3.438   8.397  0.00  0.00    +0.000 N 
ATOM     28  C   UNL     1      45.515   4.614   9.106  0.00  0.00    +0.000 A 
ATOM     29  O   UNL     1      46.201   5.538   8.686  0.00  0.00    +0.000 OA
ATOM     30  C   UNL     1      44.769   4.631  10.353  0.00  0.00    +0.000 A 
ATOM     31  H   UNL     1      45.902   3.392   7.530  0.00  0.00    +0.000 HD
ENDBRANCH  20  21
ENDBRANCH  17  20
ENDBRANCH   1  17
TORSDOF 8
ENDMDL
MODEL 5
REMARK VINA RESULT:    -6.940      2.249      2.972
REMARK INTER + INTRA:         -10.974
REMARK INTER:                 -10.364
REMARK INTRA:                  -0.610
REMARK UNBOUND:                -0.789
REMARK  Name = 
REMARK  9 active torsions:
REMARK  status: ('A' for Active; 'I' for Inactive)
REMARK    1  A    between atoms: C_1  and  C_2
REMARK    2  A    between atoms: C_2  and  N_3
REMARK    3  A    between atoms: C_2  and  C_19
REMARK    4  A    between atoms: N_3  and  C_4
REMARK    5  A    between atoms: C_4  and  C_5
REMARK    6  A    between atoms: C_8  and  C_9
REMARK    7  A    between atoms: C_9  and  N_10
REMARK    8  A    between atoms: N_10  and  C_11
REMARK    9  A    between atoms: C_11  and  C_12
REMARK                            x       y       z     vdW  Elec       q    Type
REMARK                         _______ _______ _______ _____ _____    ______ ____
ROOT
ATOM      1  C   UNL     1      47.667   5.328  14.746  0.00  0.00    +0.000 C 
ENDROOT
BRANCH   1   2
ATOM      2  C   UNL     1      46.649   5.290  13.642  0.00  0.00    +0.000 A 
ATOM      3  C   UNL     1      46.741   6.132  12.534  0.00  0.00    +0.000 A 
ATOM      4  C   UNL     1      45.822   6.009  11.501  0.00  0.00    +0.000 A 
ATOM      5  C   UNL     1      44.829   5.036  11.589  0.00  0.00    +0.000 A 
ATOM      6  N   UNL     1      44.722   4.200  12.651  0.00  0.00    +0.000 NA
ATOM      7  C   UNL     1      45.617   4.355  13.650  0.00  0.00    +0.000 A 
BRANCH   5   8
ATOM      8  C   UNL     1      43.813   4.899  10.475  0.00  0.00    +0.000 C 
BRANCH   8   9
ATOM      9  N   UNL     1      44.321   4.395   9.213  0.00  0.00    +0.000 NA
ATOM     10  H   UNL     1      45.245   4.775   8.993  0.00  0.00    +0.000 HD
BRANCH   9  11
ATOM     11  C   UNL     1      44.505   2.931   9.183  0.00  0.00    +0.000 C 
BRANCH  11  12
ATOM     12  C   UNL     1      45.658   2.524   8.324  0.00  0.00    +0.000 C 
ATOM     13  N   UNL     1      46.241   3.326   7.396  0.00  0.00    +0.000 NA
ATOM     14  C   UNL     1      47.148   2.566   6.750  0.00  0.00    +0.000 C 
ATOM     15  C   UNL     1      47.148   1.312   7.322  0.00  0.00    +0.000 C 
ATOM     16  N   UNL     1      46.246   1.303   8.324  0.00  0.00    +0.000 NA
ENDBRANCH  11  12
ENDBRANCH   9  11
ENDBRANCH   8   9
ENDBRANCH   5   8
ENDBRANCH   1   2
BRANCH   1  17
ATOM     17  N   UNL     1      47.149   4.807  16.010  0.00  0.00    +0.000 NA
ATOM     18  H   UNL     1      46.999   5.587  16.649  0.00  0.00    +0.000 HD
BRANCH  17  20
ATOM     19  C   UNL     1      47.343   2.838  17.535  0.00  0.00    +0.000 C 
ATOM     20  C   UNL     1      48.068   3.860  16.650  0.00  0.00    +0.000 C 
BRANCH  20  21
ATOM     21  C   UNL     1      49.044   4.683  17.470  0.00  0.00    +0.000 A 
ATOM     22  C   UNL     1      50.424   4.627  17.321  0.00  0.00    +0.000 A 
ATOM     23  S   UNL     1      51.260   5.709  18.341  0.00  0.00    +0.000 S 
ATOM     24  C   UNL     1      49.812   6.265  19.040  0.00  0.00    +0.000 A 
ATOM     25  N   UNL     1      49.818   7.221  20.007  0.00  0.00    +0.000 NA
ATOM     26  C   UNL     1      48.648   7.526  20.460  0.00  0.00    +0.000 A 
ATOM     27  N   UNL     1      47.471   6.968  20.030  0.00  0.00    +0.000 N 
ATOM     28  C   UNL     1      47.408   6.003  19.047  0.00  0.00    +0.000 A 
ATOM     29  O   UNL     1      46.335   5.530  18.691  0.00  0.00    +0.000 OA
ATOM     30  C   UNL     1      48.703   5.629  18.505  0.00  0.00    +0.000 A 
ATOM     31  H   UNL     1      46.589   7.245  20.430  0.00  0.00    +0.000 HD
ENDBRANCH  20  21
ENDBRANCH  17  20
ENDBRANCH   1  17
TORSDOF 8
ENDMDL
MODEL 6
REMARK VINA RESULT:    -6.923      1.984      2.935
REMARK INTER + INTRA:         -10.949
REMARK INTER:                 -10.125
REMARK INTRA:                  -0.824
REMARK UNBOUND:                -0.789
REMARK  Name = 
REMARK  9 active torsions:
REMARK  status: ('A' for Active; 'I' for Inactive)
REMARK    1  A    between atoms: C_1  and  C_2
REMARK    2  A    between atoms: C_2  and  N_3
REMARK    3  A    between atoms: C_2  and  C_19
REMARK    4  A    between atoms: N_3  and  C_4
REMARK    5  A    between atoms: C_4  and  C_5
REMARK    6  A    between atoms: C_8  and  C_9
REMARK    7  A    between atoms: C_9  and  N_10
REMARK    8  A    between atoms: N_10  and  C_11
REMARK    9  A    between atoms: C_11  and  C_12
REMARK                            x       y       z     vdW  Elec       q    Type
REMARK                         _______ _______ _______ _____ _____    ______ ____
ROOT
ATOM      1  C   UNL     1      49.123   6.616  15.326  0.00  0.00    +0.000 C 
ENDROOT
BRANCH   1   2
ATOM      2  C   UNL     1      48.096   6.659  14.230  0.00  0.00    +0.000 A 
ATOM      3  C   UNL     1      47.513   5.496  13.729  0.00  0.00    +0.000 A 
ATOM      4  C   UNL     1      46.513   5.588  12.770  0.00  0.00    +0.000 A 
ATOM      5  C   UNL     1      46.106   6.847  12.334  0.00  0.00    +0.000 A 
ATOM      6  N   UNL     1      46.651   7.994  12.809  0.00  0.00    +0.000 NA
ATOM      7  C   UNL     1      47.636   7.873  13.726  0.00  0.00    +0.000 A 
BRANCH   5   8
ATOM      8  C   UNL     1      45.026   6.962  11.280  0.00  0.00    +0.000 C 
BRANCH   8   9
ATOM      9  N   UNL     1      43.678   7.175  11.773  0.00  0.00    +0.000 NA
ATOM     10  H   UNL     1      43.302   8.081  11.482  0.00  0.00    +0.000 HD
BRANCH   9  11
ATOM     11  C   UNL     1      42.696   6.190  11.278  0.00  0.00    +0.000 C 
BRANCH  11  12
ATOM     12  C   UNL     1      43.193   4.785  11.401  0.00  0.00    +0.000 C 
ATOM     13  N   UNL     1      43.694   4.058  10.370  0.00  0.00    +0.000 NA
ATOM     14  C   UNL     1      43.910   2.816  10.848  0.00  0.00    +0.000 C 
ATOM     15  C   UNL     1      43.584   2.805  12.186  0.00  0.00    +0.000 C 
ATOM     16  N   UNL     1      43.173   4.042  12.534  0.00  0.00    +0.000 NA
ENDBRANCH  11  12
ENDBRANCH   9  11
ENDBRANCH   8   9
ENDBRANCH   5   8
ENDBRANCH   1   2
BRANCH   1  17
ATOM     17  N   UNL     1      48.552   6.247  16.620  0.00  0.00    +0.000 NA
ATOM     18  H   UNL     1      49.090   6.702  17.357  0.00  0.00    +0.000 HD
BRANCH  17  20
ATOM     19  C   UNL     1      47.401   4.315  17.708  0.00  0.00    +0.000 C 
ATOM     20  C   UNL     1      48.583   4.800  16.859  0.00  0.00    +0.000 C 
BRANCH  20  21
ATOM     21  C   UNL     1      49.901   4.497  17.548  0.00  0.00    +0.000 A 
ATOM     22  C   UNL     1      50.604   5.414  18.317  0.00  0.00    +0.000 A 
ATOM     23  S   UNL     1      52.022   4.769  19.013  0.00  0.00    +0.000 S 
ATOM     24  C   UNL     1      51.763   3.254  18.283  0.00  0.00    +0.000 A 
ATOM     25  N   UNL     1      52.630   2.223  18.475  0.00  0.00    +0.000 NA
ATOM     26  C   UNL     1      52.317   1.143  17.840  0.00  0.00    +0.000 A 
ATOM     27  N   UNL     1      51.215   0.995  17.037  0.00  0.00    +0.000 N 
ATOM     28  C   UNL     1      50.302   2.005  16.817  0.00  0.00    +0.000 A 
ATOM     29  O   UNL     1      49.329   1.832  16.092  0.00  0.00    +0.000 OA
ATOM     30  C   UNL     1      50.611   3.241  17.514  0.00  0.00    +0.000 A 
ATOM     31  H   UNL     1      51.032   0.126  16.563  0.00  0.00    +0.000 HD
ENDBRANCH  20  21
ENDBRANCH  17  20
ENDBRANCH   1  17
TORSDOF 8
ENDMDL
MODEL 7
REMARK VINA RESULT:    -6.779      2.617      3.599
REMARK INTER + INTRA:         -10.738
REMARK INTER:                  -9.762
REMARK INTRA:                  -0.976
REMARK UNBOUND:                -0.789
REMARK  Name = 
REMARK  9 active torsions:
REMARK  status: ('A' for Active; 'I' for Inactive)
REMARK    1  A    between atoms: C_1  and  C_2
REMARK    2  A    between atoms: C_2  and  N_3
REMARK    3  A    between atoms: C_2  and  C_19
REMARK    4  A    between atoms: N_3  and  C_4
REMARK    5  A    between atoms: C_4  and  C_5
REMARK    6  A    between atoms: C_8  and  C_9
REMARK    7  A    between atoms: C_9  and  N_10
REMARK    8  A    between atoms: N_10  and  C_11
REMARK    9  A    between atoms: C_11  and  C_12
REMARK                            x       y       z     vdW  Elec       q    Type
REMARK                         _______ _______ _______ _____ _____    ______ ____
ROOT
ATOM      1  C   UNL     1      48.767   7.445  13.388  0.00  0.00    +0.000 C 
ENDROOT
BRANCH   1   2
ATOM      2  C   UNL     1      47.688   6.467  13.018  0.00  0.00    +0.000 A 
ATOM      3  C   UNL     1      47.301   5.444  13.883  0.00  0.00    +0.000 A 
ATOM      4  C   UNL     1      46.248   4.611  13.532  0.00  0.00    +0.000 A 
ATOM      5  C   UNL     1      45.591   4.821  12.321  0.00  0.00    +0.000 A 
ATOM      6  N   UNL     1      45.943   5.812  11.465  0.00  0.00    +0.000 NA
ATOM      7  C   UNL     1      46.984   6.594  11.823  0.00  0.00    +0.000 A 
BRANCH   5   8
ATOM      8  C   UNL     1      44.449   3.912  11.920  0.00  0.00    +0.000 C 
BRANCH   8   9
ATOM      9  N   UNL     1      44.805   2.772  11.097  0.00  0.00    +0.000 NA
ATOM     10  H   UNL     1      44.443   1.895  11.480  0.00  0.00    +0.000 HD
BRANCH   9  11
ATOM     11  C   UNL     1      44.261   2.830   9.726  0.00  0.00    +0.000 C 
BRANCH  11  12
ATOM     12  C   UNL     1      45.338   2.887   8.691  0.00  0.00    +0.000 C 
ATOM     13  N   UNL     1      45.636   3.990   7.956  0.00  0.00    +0.000 NA
ATOM     14  C   UNL     1      46.565   3.610   7.057  0.00  0.00    +0.000 C 
ATOM     15  C   UNL     1      46.867   2.284   7.281  0.00  0.00    +0.000 C 
ATOM     16  N   UNL     1      46.128   1.850   8.322  0.00  0.00    +0.000 NA
ENDBRANCH  11  12
ENDBRANCH   9  11
ENDBRANCH   8   9
ENDBRANCH   5   8
ENDBRANCH   1   2
BRANCH   1  17
ATOM     17  N   UNL     1      49.763   6.872  14.291  0.00  0.00    +0.000 NA
ATOM     18  H   UNL     1      49.293   6.245  14.943  0.00  0.00    +0.000 HD
BRANCH  17  20
ATOM     19  C   UNL     1      51.830   7.403  15.590  0.00  0.00    +0.000 C 
ATOM     20  C   UNL     1      50.472   7.893  15.070  0.00  0.00    +0.000 C 
BRANCH  20  21
ATOM     21  C   UNL     1      49.562   8.276  16.223  0.00  0.00    +0.000 A 
ATOM     22  C   UNL     1      49.209   9.582  16.533  0.00  0.00    +0.000 A 
ATOM     23  S   UNL     1      48.127   9.698  17.847  0.00  0.00    +0.000 S 
ATOM     24  C   UNL     1      48.120   8.012  18.068  0.00  0.00    +0.000 A 
ATOM     25  N   UNL     1      47.377   7.433  19.050  0.00  0.00    +0.000 NA
ATOM     26  C   UNL     1      47.489   6.148  19.112  0.00  0.00    +0.000 A 
ATOM     27  N   UNL     1      48.268   5.387  18.280  0.00  0.00    +0.000 N 
ATOM     28  C   UNL     1      49.032   5.922  17.264  0.00  0.00    +0.000 A 
ATOM     29  O   UNL     1      49.716   5.206  16.542  0.00  0.00    +0.000 OA
ATOM     30  C   UNL     1      48.937   7.367  17.154  0.00  0.00    +0.000 A 
ATOM     31  H   UNL     1      48.317   4.387  18.386  0.00  0.00    +0.000 HD
ENDBRANCH  20  21
ENDBRANCH  17  20
ENDBRANCH   1  17
TORSDOF 8
ENDMDL
MODEL 8
REMARK VINA RESULT:    -6.482      3.494      9.034
REMARK INTER + INTRA:         -10.302
REMARK INTER:                  -9.213
REMARK INTRA:                  -1.089
REMARK UNBOUND:                -0.789
REMARK  Name = 
REMARK  9 active torsions:
REMARK  status: ('A' for Active; 'I' for Inactive)
REMARK    1  A    between atoms: C_1  and  C_2
REMARK    2  A    between atoms: C_2  and  N_3
REMARK    3  A    between atoms: C_2  and  C_19
REMARK    4  A    between atoms: N_3  and  C_4
REMARK    5  A    between atoms: C_4  and  C_5
REMARK    6  A    between atoms: C_8  and  C_9
REMARK    7  A    between atoms: C_9  and  N_10
REMARK    8  A    between atoms: N_10  and  C_11
REMARK    9  A    between atoms: C_11  and  C_12
REMARK                            x       y       z     vdW  Elec       q    Type
REMARK                         _______ _______ _______ _____ _____    ______ ____
ROOT
ATOM      1  C   UNL     1      47.670   7.552  12.653  0.00  0.00    +0.000 C 
ENDROOT
BRANCH   1   2
ATOM      2  C   UNL     1      47.956   6.763  13.899  0.00  0.00    +0.000 A 
ATOM      3  C   UNL     1      48.694   7.302  14.952  0.00  0.00    +0.000 A 
ATOM      4  C   UNL     1      48.869   6.564  16.115  0.00  0.00    +0.000 A 
ATOM      5  C   UNL     1      48.294   5.299  16.208  0.00  0.00    +0.000 A 
ATOM      6  N   UNL     1      47.567   4.754  15.202  0.00  0.00    +0.000 NA
ATOM      7  C   UNL     1      47.430   5.486  14.075  0.00  0.00    +0.000 A 
BRANCH   5   8
ATOM      8  C   UNL     1      48.487   4.478  17.465  0.00  0.00    +0.000 C 
BRANCH   8   9
ATOM      9  N   UNL     1      47.509   4.688  18.516  0.00  0.00    +0.000 NA
ATOM     10  H   UNL     1      47.097   3.808  18.836  0.00  0.00    +0.000 HD
BRANCH   9  11
ATOM     11  C   UNL     1      48.065   5.304  19.737  0.00  0.00    +0.000 C 
BRANCH  11  12
ATOM     12  C   UNL     1      48.240   6.781  19.597  0.00  0.00    +0.000 C 
ATOM     13  N   UNL     1      49.390   7.445  19.879  0.00  0.00    +0.000 NA
ATOM     14  C   UNL     1      49.114   8.759  19.751  0.00  0.00    +0.000 C 
ATOM     15  C   UNL     1      47.804   8.887  19.344  0.00  0.00    +0.000 C 
ATOM     16  N   UNL     1      47.276   7.653  19.214  0.00  0.00    +0.000 NA
ENDBRANCH  11  12
ENDBRANCH   9  11
ENDBRANCH   8   9
ENDBRANCH   5   8
ENDBRANCH   1   2
BRANCH   1  17
ATOM     17  N   UNL     1      47.093   6.736  11.587  0.00  0.00    +0.000 NA
ATOM     18  H   UNL     1      47.578   6.945  10.715  0.00  0.00    +0.000 HD
BRANCH  17  20
ATOM     19  C   UNL     1      45.096   7.999  12.399  0.00  0.00    +0.000 C 
ATOM     20  C   UNL     1      45.663   6.994  11.388  0.00  0.00    +0.000 C 
BRANCH  20  21
ATOM     21  C   UNL     1      44.955   5.657  11.506  0.00  0.00    +0.000 A 
ATOM     22  C   UNL     1      44.240   5.252  12.625  0.00  0.00    +0.000 A 
ATOM     23  S   UNL     1      43.506   3.722  12.443  0.00  0.00    +0.000 S 
ATOM     24  C   UNL     1      44.144   3.535  10.878  0.00  0.00    +0.000 A 
ATOM     25  N   UNL     1      43.891   2.418  10.143  0.00  0.00    +0.000 NA
ATOM     26  C   UNL     1      44.460   2.405   8.984  0.00  0.00    +0.000 A 
ATOM     27  N   UNL     1      45.254   3.407   8.489  0.00  0.00    +0.000 N 
ATOM     28  C   UNL     1      45.535   4.562   9.188  0.00  0.00    +0.000 A 
ATOM     29  O   UNL     1      46.250   5.434   8.709  0.00  0.00    +0.000 OA
ATOM     30  C   UNL     1      44.913   4.623  10.499  0.00  0.00    +0.000 A 
ATOM     31  H   UNL     1      45.676   3.332   7.578  0.00  0.00    +0.000 HD
ENDBRANCH  20  21
ENDBRANCH  17  20
ENDBRANCH   1  17
TORSDOF 8
ENDMDL
MODEL 9
REMARK VINA RESULT:    -6.383      3.488      8.334
REMARK INTER + INTRA:         -10.157
REMARK INTER:                  -8.946
REMARK INTRA:                  -1.210
REMARK UNBOUND:                -0.789
REMARK  Name = 
REMARK  9 active torsions:
REMARK  status: ('A' for Active; 'I' for Inactive)
REMARK    1  A    between atoms: C_1  and  C_2
REMARK    2  A    between atoms: C_2  and  N_3
REMARK    3  A    between atoms: C_2  and  C_19
REMARK    4  A    between atoms: N_3  and  C_4
REMARK    5  A    between atoms: C_4  and  C_5
REMARK    6  A    between atoms: C_8  and  C_9
REMARK    7  A    between atoms: C_9  and  N_10
REMARK    8  A    between atoms: N_10  and  C_11
REMARK    9  A    between atoms: C_11  and  C_12
REMARK                            x       y       z     vdW  Elec       q    Type
REMARK                         _______ _______ _______ _____ _____    ______ ____
ROOT
ATOM      1  C   UNL     1      47.845   8.762  13.785  0.00  0.00    +0.000 C 
ENDROOT
BRANCH   1   2
ATOM      2  C   UNL     1      48.741   8.345  14.918  0.00  0.00    +0.000 A 
ATOM      3  C   UNL     1      48.387   8.565  16.248  0.00  0.00    +0.000 A 
ATOM      4  C   UNL     1      49.208   8.095  17.263  0.00  0.00    +0.000 A 
ATOM      5  C   UNL     1      50.370   7.401  16.929  0.00  0.00    +0.000 A 
ATOM      6  N   UNL     1      50.734   7.168  15.644  0.00  0.00    +0.000 NA
ATOM      7  C   UNL     1      49.926   7.654  14.677  0.00  0.00    +0.000 A 
BRANCH   5   8
ATOM      8  C   UNL     1      51.281   6.894  18.026  0.00  0.00    +0.000 C 
BRANCH   8   9
ATOM      9  N   UNL     1      50.765   5.797  18.822  0.00  0.00    +0.000 NA
ATOM     10  H   UNL     1      49.769   5.910  19.029  0.00  0.00    +0.000 HD
BRANCH   9  11
ATOM     11  C   UNL     1      50.859   4.480  18.162  0.00  0.00    +0.000 C 
BRANCH  11  12
ATOM     12  C   UNL     1      49.532   3.996  17.674  0.00  0.00    +0.000 C 
ATOM     13  N   UNL     1      49.364   2.929  16.850  0.00  0.00    +0.000 NA
ATOM     14  C   UNL     1      48.053   2.890  16.540  0.00  0.00    +0.000 C 
ATOM     15  C   UNL     1      47.418   3.908  17.217  0.00  0.00    +0.000 C 
ATOM     16  N   UNL     1      48.337   4.569  17.950  0.00  0.00    +0.000 NA
ENDBRANCH  11  12
ENDBRANCH   9  11
ENDBRANCH   8   9
ENDBRANCH   5   8
ENDBRANCH   1   2
BRANCH   1  17
ATOM     17  N   UNL     1      46.645   7.934  13.680  0.00  0.00    +0.000 NA
ATOM     18  H   UNL     1      46.369   7.636  14.615  0.00  0.00    +0.000 HD
BRANCH  17  20
ATOM     19  C   UNL     1      47.872   6.957  11.736  0.00  0.00    +0.000 C 
ATOM     20  C   UNL     1      46.855   6.735  12.862  0.00  0.00    +0.000 C 
BRANCH  20  21
ATOM     21  C   UNL     1      45.502   6.348  12.295  0.00  0.00    +0.000 A 
ATOM     22  C   UNL     1      44.607   7.250  11.736  0.00  0.00    +0.000 A 
ATOM     23  S   UNL     1      43.192   6.514  11.131  0.00  0.00    +0.000 S 
ATOM     24  C   UNL     1      43.710   4.971  11.624  0.00  0.00    +0.000 A 
ATOM     25  N   UNL     1      42.947   3.867  11.402  0.00  0.00    +0.000 NA
ATOM     26  C   UNL     1      43.458   2.770  11.852  0.00  0.00    +0.000 A 
ATOM     27  N   UNL     1      44.664   2.672  12.498  0.00  0.00    +0.000 N 
ATOM     28  C   UNL     1      45.479   3.758  12.740  0.00  0.00    +0.000 A 
ATOM     29  O   UNL     1      46.551   3.628  13.321  0.00  0.00    +0.000 OA
ATOM     30  C   UNL     1      44.946   5.017  12.248  0.00  0.00    +0.000 A 
ATOM     31  H   UNL     1      45.003   1.785  12.832  0.00  0.00    +0.000 HD
ENDBRANCH  20  21
ENDBRANCH  17  20
ENDBRANCH   1  17
TORSDOF 8
ENDMDL
