MODEL 1
REMARK VINA RESULT:    -7.638      0.000      0.000
REMARK INTER + INTRA:         -10.079
REMARK INTER:                  -9.647
REMARK INTRA:                  -0.432
REMARK UNBOUND:                -0.432
REMARK  Name = 
REMARK  5 active torsions:
REMARK  status: ('A' for Active; 'I' for Inactive)
REMARK    1  A    between atoms: N_1  and  C_2
REMARK    2  A    between atoms: C_2  and  C_3
REMARK    3  A    between atoms: C_3  and  C_4
REMARK    4  A    between atoms: C_7  and  C_8
REMARK    5  A    between atoms: C_8  and  N_9
REMARK                            x       y       z     vdW  Elec       q    Type
REMARK                         _______ _______ _______ _____ _____    ______ ____
ROOT
ATOM      1  C   UNL     1      46.154   2.227   7.902  0.00  0.00    +0.000 A 
ATOM      2  C   UNL     1      45.296   1.641   8.839  0.00  0.00    +0.000 A 
ATOM      3  C   UNL     1      44.511   2.436   9.683  0.00  0.00    +0.000 A 
ATOM      4  C   UNL     1      44.567   3.833   9.598  0.00  0.00    +0.000 A 
ATOM      5  C   UNL     1      45.414   4.415   8.644  0.00  0.00    +0.000 A 
ATOM      6  C   UNL     1      46.196   3.621   7.801  0.00  0.00    +0.000 A 
ENDROOT
BRANCH   1   7
ATOM      7  C   UNL     1      47.025   1.370   7.013  0.00  0.00    +0.000 C 
BRANCH   7   8
ATOM      8  C   UNL     1      48.303   2.096   6.580  0.00  0.00    +0.000 C 
BRANCH   8   9
ATOM      9  N   UNL     1      48.369   2.220   5.124  0.00  0.00    +0.000 NA
ATOM     10  H   UNL     1      48.103   1.332   4.700  0.00  0.00    +0.000 HD
ATOM     11  H   UNL     1      49.331   2.394   4.838  0.00  0.00    +0.000 HD
ENDBRANCH   8   9
ENDBRANCH   7   8
ENDBRANCH   1   7
BRANCH   4  12
ATOM     12  C   UNL     1      43.763   4.706  10.533  0.00  0.00    +0.000 C 
BRANCH  12  13
ATOM     13  N   UNL     1      44.622   5.547  11.356  0.00  0.00    +0.000 N 
ATOM     14  C   UNL     1      44.738   6.913  11.242  0.00  0.00    +0.000 A 
ATOM     15  C   UNL     1      45.609   7.351  12.217  0.00  0.00    +0.000 A 
ATOM     16  C   UNL     1      46.055   6.211  12.939  0.00  0.00    +0.000 A 
ATOM     17  C   UNL     1      46.902   6.000  14.039  0.00  0.00    +0.000 A 
ATOM     18  C   UNL     1      47.076   4.688  14.459  0.00  0.00    +0.000 A 
ATOM     19  F   UNL     1      47.847   4.424  15.522  0.00  0.00    +0.000 F 
ATOM     20  C   UNL     1      46.444   3.657  13.781  0.00  0.00    +0.000 A 
ATOM     21  N   UNL     1      45.624   3.803  12.711  0.00  0.00    +0.000 NA
ATOM     22  C   UNL     1      45.454   5.095  12.354  0.00  0.00    +0.000 A 
ENDBRANCH  12  13
ENDBRANCH   4  12
TORSDOF 5
ENDMDL
MODEL 2
REMARK VINA RESULT:    -7.629      1.811      2.798
REMARK INTER + INTRA:         -10.068
REMARK INTER:                  -9.502
REMARK INTRA:                  -0.566
REMARK UNBOUND:                -0.432
REMARK  Name = 
REMARK  5 active torsions:
REMARK  status: ('A' for Active; 'I' for Inactive)
REMARK    1  A    between atoms: N_1  and  C_2
REMARK    2  A    between atoms: C_2  and  C_3
REMARK    3  A    between atoms: C_3  and  C_4
REMARK    4  A    between atoms: C_7  and  C_8
REMARK    5  A    between atoms: C_8  and  N_9
REMARK                            x       y       z     vdW  Elec       q    Type
REMARK                         _______ _______ _______ _____ _____    ______ ____
ROOT
ATOM      1  C   UNL     1      46.114   2.267   7.830  0.00  0.00    +0.000 A 
ATOM      2  C   UNL     1      45.315   1.615   8.776  0.00  0.00    +0.000 A 
ATOM      3  C   UNL     1      44.522   2.347   9.668  0.00  0.00    +0.000 A 
ATOM      4  C   UNL     1      44.509   3.747   9.623  0.00  0.00    +0.000 A 
ATOM      5  C   UNL     1      45.297   4.396   8.660  0.00  0.00    +0.000 A 
ATOM      6  C   UNL     1      46.086   3.665   7.769  0.00  0.00    +0.000 A 
ENDROOT
BRANCH   1   7
ATOM      7  C   UNL     1      46.994   1.479   6.888  0.00  0.00    +0.000 C 
BRANCH   7   8
ATOM      8  C   UNL     1      48.254   2.253   6.489  0.00  0.00    +0.000 C 
BRANCH   8   9
ATOM      9  N   UNL     1      48.269   2.525   5.051  0.00  0.00    +0.000 NA
ATOM     10  H   UNL     1      47.343   2.836   4.759  0.00  0.00    +0.000 HD
ATOM     11  H   UNL     1      48.452   1.662   4.541  0.00  0.00    +0.000 HD
ENDBRANCH   8   9
ENDBRANCH   7   8
ENDBRANCH   1   7
BRANCH   4  12
ATOM     12  C   UNL     1      43.697   4.553  10.609  0.00  0.00    +0.000 C 
BRANCH  12  13
ATOM     13  N   UNL     1      44.546   5.222  11.586  0.00  0.00    +0.000 N 
ATOM     14  C   UNL     1      45.333   4.587  12.519  0.00  0.00    +0.000 A 
ATOM     15  C   UNL     1      46.015   5.551  13.230  0.00  0.00    +0.000 A 
ATOM     16  C   UNL     1      45.618   6.819  12.727  0.00  0.00    +0.000 A 
ATOM     17  C   UNL     1      45.964   8.151  13.003  0.00  0.00    +0.000 A 
ATOM     18  C   UNL     1      45.332   9.137  12.256  0.00  0.00    +0.000 A 
ATOM     19  F   UNL     1      45.643  10.425  12.450  0.00  0.00    +0.000 F 
ATOM     20  C   UNL     1      44.386   8.781  11.307  0.00  0.00    +0.000 A 
ATOM     21  N   UNL     1      44.007   7.514  11.005  0.00  0.00    +0.000 NA
ATOM     22  C   UNL     1      44.669   6.584  11.729  0.00  0.00    +0.000 A 
ENDBRANCH  12  13
ENDBRANCH   4  12
TORSDOF 5
ENDMDL
MODEL 3
REMARK VINA RESULT:    -6.490      2.983      6.693
REMARK INTER + INTRA:          -8.629
REMARK INTER:                  -8.135
REMARK INTRA:                  -0.494
REMARK UNBOUND:                -0.432
REMARK  Name = 
REMARK  5 active torsions:
REMARK  status: ('A' for Active; 'I' for Inactive)
REMARK    1  A    between atoms: N_1  and  C_2
REMARK    2  A    between atoms: C_2  and  C_3
REMARK    3  A    between atoms: C_3  and  C_4
REMARK    4  A    between atoms: C_7  and  C_8
REMARK    5  A    between atoms: C_8  and  N_9
REMARK                            x       y       z     vdW  Elec       q    Type
REMARK                         _______ _______ _______ _____ _____    ______ ____
ROOT
ATOM      1  C   UNL     1      47.536   6.373  13.498  0.00  0.00    +0.000 A 
ATOM      2  C   UNL     1      46.589   5.396  13.824  0.00  0.00    +0.000 A 
ATOM      3  C   UNL     1      45.582   5.046  12.916  0.00  0.00    +0.000 A 
ATOM      4  C   UNL     1      45.510   5.666  11.661  0.00  0.00    +0.000 A 
ATOM      5  C   UNL     1      46.473   6.631  11.332  0.00  0.00    +0.000 A 
ATOM      6  C   UNL     1      47.479   6.977  12.237  0.00  0.00    +0.000 A 
ENDROOT
BRANCH   1   7
ATOM      7  C   UNL     1      48.603   6.773  14.489  0.00  0.00    +0.000 C 
BRANCH   7   8
ATOM      8  C   UNL     1      48.717   8.293  14.636  0.00  0.00    +0.000 C 
BRANCH   8   9
ATOM      9  N   UNL     1      47.484   8.862  15.181  0.00  0.00    +0.000 NA
ATOM     10  H   UNL     1      47.467   9.865  14.996  0.00  0.00    +0.000 HD
ATOM     11  H   UNL     1      47.478   8.761  16.195  0.00  0.00    +0.000 HD
ENDBRANCH   8   9
ENDBRANCH   7   8
ENDBRANCH   1   7
BRANCH   4  12
ATOM     12  C   UNL     1      44.402   5.336  10.688  0.00  0.00    +0.000 C 
BRANCH  12  13
ATOM     13  N   UNL     1      44.614   4.045  10.048  0.00  0.00    +0.000 N 
ATOM     14  C   UNL     1      44.062   2.855  10.461  0.00  0.00    +0.000 A 
ATOM     15  C   UNL     1      44.460   1.870   9.581  0.00  0.00    +0.000 A 
ATOM     16  C   UNL     1      45.299   2.477   8.609  0.00  0.00    +0.000 A 
ATOM     17  C   UNL     1      45.978   2.029   7.464  0.00  0.00    +0.000 A 
ATOM     18  C   UNL     1      46.711   2.972   6.755  0.00  0.00    +0.000 A 
ATOM     19  F   UNL     1      47.354   2.614   5.636  0.00  0.00    +0.000 F 
ATOM     20  C   UNL     1      46.766   4.282   7.205  0.00  0.00    +0.000 A 
ATOM     21  N   UNL     1      46.140   4.766   8.306  0.00  0.00    +0.000 NA
ATOM     22  C   UNL     1      45.411   3.827   8.948  0.00  0.00    +0.000 A 
ENDBRANCH  12  13
ENDBRANCH   4  12
TORSDOF 5
ENDMDL
MODEL 4
REMARK VINA RESULT:    -6.223      2.835      6.609
REMARK INTER + INTRA:          -8.292
REMARK INTER:                  -8.024
REMARK INTRA:                  -0.268
REMARK UNBOUND:                -0.432
REMARK  Name = 
REMARK  5 active torsions:
REMARK  status: ('A' for Active; 'I' for Inactive)
REMARK    1  A    between atoms: N_1  and  C_2
REMARK    2  A    between atoms: C_2  and  C_3
REMARK    3  A    between atoms: C_3  and  C_4
REMARK    4  A    between atoms: C_7  and  C_8
REMARK    5  A    between atoms: C_8  and  N_9
REMARK                            x       y       z     vdW  Elec       q    Type
REMARK                         _______ _______ _______ _____ _____    ______ ____
ROOT
ATOM      1  C   UNL     1      47.550   7.552  13.732  0.00  0.00    +0.000 A 
ATOM      2  C   UNL     1      46.662   8.532  13.274  0.00  0.00    +0.000 A 
ATOM      3  C   UNL     1      45.540   8.179  12.514  0.00  0.00    +0.000 A 
ATOM      4  C   UNL     1      45.284   6.837  12.206  0.00  0.00    +0.000 A 
ATOM      5  C   UNL     1      46.167   5.857  12.683  0.00  0.00    +0.000 A 
ATOM      6  C   UNL     1      47.285   6.209  13.443  0.00  0.00    +0.000 A 
ENDROOT
BRANCH   1   7
ATOM      7  C   UNL     1      48.779   7.935  14.524  0.00  0.00    +0.000 C 
BRANCH   7   8
ATOM      8  C   UNL     1      49.178   6.853  15.532  0.00  0.00    +0.000 C 
BRANCH   8   9
ATOM      9  N   UNL     1      50.623   6.625  15.512  0.00  0.00    +0.000 NA
ATOM     10  H   UNL     1      50.830   5.836  14.899  0.00  0.00    +0.000 HD
ATOM     11  H   UNL     1      50.940   6.352  16.442  0.00  0.00    +0.000 HD
ENDBRANCH   8   9
ENDBRANCH   7   8
ENDBRANCH   1   7
BRANCH   4  12
ATOM     12  C   UNL     1      44.105   6.443  11.347  0.00  0.00    +0.000 C 
BRANCH  12  13
ATOM     13  N   UNL     1      44.106   5.017  11.051  0.00  0.00    +0.000 N 
ATOM     14  C   UNL     1      43.464   4.053  11.794  0.00  0.00    +0.000 A 
ATOM     15  C   UNL     1      43.661   2.836  11.177  0.00  0.00    +0.000 A 
ATOM     16  C   UNL     1      44.466   3.062  10.028  0.00  0.00    +0.000 A 
ATOM     17  C   UNL     1      44.976   2.255   8.997  0.00  0.00    +0.000 A 
ATOM     18  C   UNL     1      45.739   2.884   8.022  0.00  0.00    +0.000 A 
ATOM     19  F   UNL     1      46.226   2.175   6.995  0.00  0.00    +0.000 F 
ATOM     20  C   UNL     1      45.986   4.245   8.112  0.00  0.00    +0.000 A 
ATOM     21  N   UNL     1      45.528   5.068   9.087  0.00  0.00    +0.000 NA
ATOM     22  C   UNL     1      44.763   4.426   9.997  0.00  0.00    +0.000 A 
ENDBRANCH  12  13
ENDBRANCH   4  12
TORSDOF 5
ENDMDL
MODEL 5
REMARK VINA RESULT:    -5.825      1.878      2.923
REMARK INTER + INTRA:          -7.790
REMARK INTER:                  -7.794
REMARK INTRA:                   0.005
REMARK UNBOUND:                -0.432
REMARK  Name = 
REMARK  5 active torsions:
REMARK  status: ('A' for Active; 'I' for Inactive)
REMARK    1  A    between atoms: N_1  and  C_2
REMARK    2  A    between atoms: C_2  and  C_3
REMARK    3  A    between atoms: C_3  and  C_4
REMARK    4  A    between atoms: C_7  and  C_8
REMARK    5  A    between atoms: C_8  and  N_9
REMARK                            x       y       z     vdW  Elec       q    Type
REMARK                         _______ _______ _______ _____ _____    ______ ____
ROOT
ATOM      1  C   UNL     1      45.056   3.692   9.180  0.00  0.00    +0.000 A 
ATOM      2  C   UNL     1      45.296   5.030   9.511  0.00  0.00    +0.000 A 
ATOM      3  C   UNL     1      45.296   5.446  10.848  0.00  0.00    +0.000 A 
ATOM      4  C   UNL     1      45.062   4.526  11.879  0.00  0.00    +0.000 A 
ATOM      5  C   UNL     1      44.841   3.183  11.543  0.00  0.00    +0.000 A 
ATOM      6  C   UNL     1      44.843   2.768  10.209  0.00  0.00    +0.000 A 
ENDROOT
BRANCH   1   7
ATOM      7  C   UNL     1      45.023   3.248   7.737  0.00  0.00    +0.000 C 
BRANCH   7   8
ATOM      8  C   UNL     1      46.423   2.944   7.193  0.00  0.00    +0.000 C 
BRANCH   8   9
ATOM      9  N   UNL     1      46.969   4.096   6.474  0.00  0.00    +0.000 NA
ATOM     10  H   UNL     1      47.110   3.844   5.496  0.00  0.00    +0.000 HD
ATOM     11  H   UNL     1      47.890   4.325   6.844  0.00  0.00    +0.000 HD
ENDBRANCH   8   9
ENDBRANCH   7   8
ENDBRANCH   1   7
BRANCH   4  12
ATOM     12  C   UNL     1      45.011   4.967  13.323  0.00  0.00    +0.000 C 
BRANCH  12  13
ATOM     13  N   UNL     1      46.285   5.520  13.763  0.00  0.00    +0.000 N 
ATOM     14  C   UNL     1      46.957   6.550  13.147  0.00  0.00    +0.000 A 
ATOM     15  C   UNL     1      48.095   6.815  13.879  0.00  0.00    +0.000 A 
ATOM     16  C   UNL     1      48.129   5.903  14.968  0.00  0.00    +0.000 A 
ATOM     17  C   UNL     1      48.988   5.687  16.057  0.00  0.00    +0.000 A 
ATOM     18  C   UNL     1      48.653   4.663  16.933  0.00  0.00    +0.000 A 
ATOM     19  F   UNL     1      49.415   4.428  18.009  0.00  0.00    +0.000 F 
ATOM     20  C   UNL     1      47.524   3.895  16.695  0.00  0.00    +0.000 A 
ATOM     21  N   UNL     1      46.665   4.054  15.658  0.00  0.00    +0.000 NA
ATOM     22  C   UNL     1      47.007   5.080  14.847  0.00  0.00    +0.000 A 
ENDBRANCH  12  13
ENDBRANCH   4  12
TORSDOF 5
ENDMDL
MODEL 6
REMARK VINA RESULT:    -5.709      4.499      7.974
REMARK INTER + INTRA:          -7.643
REMARK INTER:                  -7.468
REMARK INTRA:                  -0.175
REMARK UNBOUND:                -0.432
REMARK  Name = 
REMARK  5 active torsions:
REMARK  status: ('A' for Active; 'I' for Inactive)
REMARK    1  A    between atoms: N_1  and  C_2
REMARK    2  A    between atoms: C_2  and  C_3
REMARK    3  A    between atoms: C_3  and  C_4
REMARK    4  A    between atoms: C_7  and  C_8
REMARK    5  A    between atoms: C_8  and  N_9
REMARK                            x       y       z     vdW  Elec       q    Type
REMARK                         _______ _______ _______ _____ _____    ______ ____
ROOT
ATOM      1  C   UNL     1      51.303   2.591  17.696  0.00  0.00    +0.000 A 
ATOM      2  C   UNL     1      50.896   3.867  18.103  0.00  0.00    +0.000 A 
ATOM      3  C   UNL     1      49.636   4.362  17.745  0.00  0.00    +0.000 A 
ATOM      4  C   UNL     1      48.758   3.584  16.979  0.00  0.00    +0.000 A 
ATOM      5  C   UNL     1      49.164   2.299  16.589  0.00  0.00    +0.000 A 
ATOM      6  C   UNL     1      50.420   1.804  16.949  0.00  0.00    +0.000 A 
ENDROOT
BRANCH   1   7
ATOM      7  C   UNL     1      52.675   2.069  18.055  0.00  0.00    +0.000 C 
BRANCH   7   8
ATOM      8  C   UNL     1      52.971   0.718  17.397  0.00  0.00    +0.000 C 
BRANCH   8   9
ATOM      9  N   UNL     1      53.022  -0.352  18.394  0.00  0.00    +0.000 NA
ATOM     10  H   UNL     1      52.422  -1.120  18.093  0.00  0.00    +0.000 HD
ATOM     11  H   UNL     1      52.634  -0.018  19.275  0.00  0.00    +0.000 HD
ENDBRANCH   8   9
ENDBRANCH   7   8
ENDBRANCH   1   7
BRANCH   4  12
ATOM     12  C   UNL     1      47.415   4.121  16.543  0.00  0.00    +0.000 C 
BRANCH  12  13
ATOM     13  N   UNL     1      47.543   5.051  15.428  0.00  0.00    +0.000 N 
ATOM     14  C   UNL     1      48.399   6.127  15.388  0.00  0.00    +0.000 A 
ATOM     15  C   UNL     1      48.261   6.736  14.159  0.00  0.00    +0.000 A 
ATOM     16  C   UNL     1      47.273   6.020  13.432  0.00  0.00    +0.000 A 
ATOM     17  C   UNL     1      46.717   6.120  12.146  0.00  0.00    +0.000 A 
ATOM     18  C   UNL     1      45.747   5.187  11.802  0.00  0.00    +0.000 A 
ATOM     19  F   UNL     1      45.202   5.210  10.579  0.00  0.00    +0.000 F 
ATOM     20  C   UNL     1      45.354   4.231  12.726  0.00  0.00    +0.000 A 
ATOM     21  N   UNL     1      45.849   4.093  13.980  0.00  0.00    +0.000 NA
ATOM     22  C   UNL     1      46.813   4.997  14.264  0.00  0.00    +0.000 A 
ENDBRANCH  12  13
ENDBRANCH   4  12
TORSDOF 5
ENDMDL
MODEL 7
REMARK VINA RESULT:    -5.533      3.634      5.577
REMARK INTER + INTRA:          -7.421
REMARK INTER:                  -6.878
REMARK INTRA:                  -0.543
REMARK UNBOUND:                -0.432
REMARK  Name = 
REMARK  5 active torsions:
REMARK  status: ('A' for Active; 'I' for Inactive)
REMARK    1  A    between atoms: N_1  and  C_2
REMARK    2  A    between atoms: C_2  and  C_3
REMARK    3  A    between atoms: C_3  and  C_4
REMARK    4  A    between atoms: C_7  and  C_8
REMARK    5  A    between atoms: C_8  and  N_9
REMARK                            x       y       z     vdW  Elec       q    Type
REMARK                         _______ _______ _______ _____ _____    ______ ____
ROOT
ATOM      1  C   UNL     1      44.925   5.099  12.178  0.00  0.00    +0.000 A 
ATOM      2  C   UNL     1      45.463   6.177  11.464  0.00  0.00    +0.000 A 
ATOM      3  C   UNL     1      46.721   6.695  11.794  0.00  0.00    +0.000 A 
ATOM      4  C   UNL     1      47.466   6.138  12.842  0.00  0.00    +0.000 A 
ATOM      5  C   UNL     1      46.931   5.047  13.542  0.00  0.00    +0.000 A 
ATOM      6  C   UNL     1      45.677   4.529  13.211  0.00  0.00    +0.000 A 
ENDROOT
BRANCH   1   7
ATOM      7  C   UNL     1      43.554   4.560  11.843  0.00  0.00    +0.000 C 
BRANCH   7   8
ATOM      8  C   UNL     1      43.623   3.295  10.982  0.00  0.00    +0.000 C 
BRANCH   8   9
ATOM      9  N   UNL     1      43.032   2.153  11.679  0.00  0.00    +0.000 NA
ATOM     10  H   UNL     1      43.566   1.965  12.527  0.00  0.00    +0.000 HD
ATOM     11  H   UNL     1      43.116   1.317  11.101  0.00  0.00    +0.000 HD
ENDBRANCH   8   9
ENDBRANCH   7   8
ENDBRANCH   1   7
BRANCH   4  12
ATOM     12  C   UNL     1      48.803   6.716  13.243  0.00  0.00    +0.000 C 
BRANCH  12  13
ATOM     13  N   UNL     1      48.707   7.497  14.469  0.00  0.00    +0.000 N 
ATOM     14  C   UNL     1      48.285   8.804  14.545  0.00  0.00    +0.000 A 
ATOM     15  C   UNL     1      48.290   9.178  15.872  0.00  0.00    +0.000 A 
ATOM     16  C   UNL     1      48.750   8.068  16.630  0.00  0.00    +0.000 A 
ATOM     17  C   UNL     1      48.946   7.810  17.997  0.00  0.00    +0.000 A 
ATOM     18  C   UNL     1      49.418   6.550  18.340  0.00  0.00    +0.000 A 
ATOM     19  F   UNL     1      49.595   6.232  19.629  0.00  0.00    +0.000 F 
ATOM     20  C   UNL     1      49.695   5.623  17.347  0.00  0.00    +0.000 A 
ATOM     21  N   UNL     1      49.532   5.821  16.015  0.00  0.00    +0.000 NA
ATOM     22  C   UNL     1      49.041   7.046  15.724  0.00  0.00    +0.000 A 
ENDBRANCH  12  13
ENDBRANCH   4  12
TORSDOF 5
ENDMDL
MODEL 8
REMARK VINA RESULT:    -5.127      2.961      4.315
REMARK INTER + INTRA:          -6.907
REMARK INTER:                  -6.425
REMARK INTRA:                  -0.483
REMARK UNBOUND:                -0.432
REMARK  Name = 
REMARK  5 active torsions:
REMARK  status: ('A' for Active; 'I' for Inactive)
REMARK    1  A    between atoms: N_1  and  C_2
REMARK    2  A    between atoms: C_2  and  C_3
REMARK    3  A    between atoms: C_3  and  C_4
REMARK    4  A    between atoms: C_7  and  C_8
REMARK    5  A    between atoms: C_8  and  N_9
REMARK                            x       y       z     vdW  Elec       q    Type
REMARK                         _______ _______ _______ _____ _____    ______ ____
ROOT
ATOM      1  C   UNL     1      44.834   4.058  11.119  0.00  0.00    +0.000 A 
ATOM      2  C   UNL     1      45.276   5.120  10.323  0.00  0.00    +0.000 A 
ATOM      3  C   UNL     1      45.670   6.332  10.903  0.00  0.00    +0.000 A 
ATOM      4  C   UNL     1      45.635   6.498  12.294  0.00  0.00    +0.000 A 
ATOM      5  C   UNL     1      45.209   5.424  13.089  0.00  0.00    +0.000 A 
ATOM      6  C   UNL     1      44.818   4.214  12.509  0.00  0.00    +0.000 A 
ENDROOT
BRANCH   1   7
ATOM      7  C   UNL     1      44.378   2.761  10.491  0.00  0.00    +0.000 C 
BRANCH   7   8
ATOM      8  C   UNL     1      44.829   2.634   9.033  0.00  0.00    +0.000 C 
BRANCH   8   9
ATOM      9  N   UNL     1      45.639   1.432   8.837  0.00  0.00    +0.000 NA
ATOM     10  H   UNL     1      45.053   0.691   8.454  0.00  0.00    +0.000 HD
ATOM     11  H   UNL     1      45.972   1.092   9.739  0.00  0.00    +0.000 HD
ENDBRANCH   8   9
ENDBRANCH   7   8
ENDBRANCH   1   7
BRANCH   4  12
ATOM     12  C   UNL     1      46.010   7.814  12.934  0.00  0.00    +0.000 C 
BRANCH  12  13
ATOM     13  N   UNL     1      47.439   8.077  12.827  0.00  0.00    +0.000 N 
ATOM     14  C   UNL     1      48.047   8.749  11.792  0.00  0.00    +0.000 A 
ATOM     15  C   UNL     1      49.394   8.833  12.070  0.00  0.00    +0.000 A 
ATOM     16  C   UNL     1      49.620   8.173  13.308  0.00  0.00    +0.000 A 
ATOM     17  C   UNL     1      50.741   7.945  14.123  0.00  0.00    +0.000 A 
ATOM     18  C   UNL     1      50.533   7.239  15.300  0.00  0.00    +0.000 A 
ATOM     19  F   UNL     1      51.556   7.018  16.136  0.00  0.00    +0.000 F 
ATOM     20  C   UNL     1      49.264   6.773  15.609  0.00  0.00    +0.000 A 
ATOM     21  N   UNL     1      48.151   6.956  14.857  0.00  0.00    +0.000 NA
ATOM     22  C   UNL     1      48.388   7.675  13.738  0.00  0.00    +0.000 A 
ENDBRANCH  12  13
ENDBRANCH   4  12
TORSDOF 5
ENDMDL
MODEL 9
REMARK VINA RESULT:    -5.046      3.884      5.853
REMARK INTER + INTRA:          -6.806
REMARK INTER:                  -6.339
REMARK INTRA:                  -0.466
REMARK UNBOUND:                -0.432
REMARK  Name = 
REMARK  5 active torsions:
REMARK  status: ('A' for Active; 'I' for Inactive)
REMARK    1  A    between atoms: N_1  and  C_2
REMARK    2  A    between atoms: C_2  and  C_3
REMARK    3  A    between atoms: C_3  and  C_4
REMARK    4  A    between atoms: C_7  and  C_8
REMARK    5  A    between atoms: C_8  and  N_9
REMARK                            x       y       z     vdW  Elec       q    Type
REMARK                         _______ _______ _______ _____ _____    ______ ____
ROOT
ATOM      1  C   UNL     1      45.284   4.915  11.582  0.00  0.00    +0.000 A 
ATOM      2  C   UNL     1      44.869   6.122  11.009  0.00  0.00    +0.000 A 
ATOM      3  C   UNL     1      45.262   7.347  11.562  0.00  0.00    +0.000 A 
ATOM      4  C   UNL     1      46.085   7.384  12.696  0.00  0.00    +0.000 A 
ATOM      5  C   UNL     1      46.513   6.171  13.255  0.00  0.00    +0.000 A 
ATOM      6  C   UNL     1      46.122   4.949  12.702  0.00  0.00    +0.000 A 
ENDROOT
BRANCH   1   7
ATOM      7  C   UNL     1      44.834   3.593  11.005  0.00  0.00    +0.000 C 
BRANCH   7   8
ATOM      8  C   UNL     1      43.428   3.204  11.476  0.00  0.00    +0.000 C 
BRANCH   8   9
ATOM      9  N   UNL     1      43.482   2.095  12.428  0.00  0.00    +0.000 NA
ATOM     10  H   UNL     1      43.488   1.213  11.915  0.00  0.00    +0.000 HD
ATOM     11  H   UNL     1      42.633   2.087  12.993  0.00  0.00    +0.000 HD
ENDBRANCH   8   9
ENDBRANCH   7   8
ENDBRANCH   1   7
BRANCH   4  12
ATOM     12  C   UNL     1      46.479   8.695  13.333  0.00  0.00    +0.000 C 
BRANCH  12  13
ATOM     13  N   UNL     1      47.276   9.516  12.431  0.00  0.00    +0.000 N 
ATOM     14  C   UNL     1      46.808  10.599  11.724  0.00  0.00    +0.000 A 
ATOM     15  C   UNL     1      47.864  11.137  11.019  0.00  0.00    +0.000 A 
ATOM     16  C   UNL     1      49.011  10.343  11.289  0.00  0.00    +0.000 A 
ATOM     17  C   UNL     1      50.362  10.386  10.908  0.00  0.00    +0.000 A 
ATOM     18  C   UNL     1      51.192   9.394  11.413  0.00  0.00    +0.000 A 
ATOM     19  F   UNL     1      52.498   9.400  11.113  0.00  0.00    +0.000 F 
ATOM     20  C   UNL     1      50.668   8.408  12.234  0.00  0.00    +0.000 A 
ATOM     21  N   UNL     1      49.373   8.313  12.626  0.00  0.00    +0.000 NA
ATOM     22  C   UNL     1      48.605   9.314  12.141  0.00  0.00    +0.000 A 
ENDBRANCH  12  13
ENDBRANCH   4  12
TORSDOF 5
ENDMDL
