MODEL 1
REMARK VINA RESULT:    -7.581      0.000      0.000
REMARK INTER + INTRA:         -11.517
REMARK INTER:                 -10.240
REMARK INTRA:                  -1.277
REMARK UNBOUND:                -1.277
REMARK  Name = 
REMARK  6 active torsions:
REMARK  status: ('A' for Active; 'I' for Inactive)
REMARK    1  A    between atoms: C_2  and  C_3
REMARK    2  A    between atoms: N_7  and  C_8
REMARK    3  A    between atoms: C_8  and  C_9
REMARK    4  A    between atoms: C_14  and  C_15
REMARK    5  A    between atoms: C_19  and  O_20
REMARK    6  A    between atoms: O_20  and  C_21
REMARK                            x       y       z     vdW  Elec       q    Type
REMARK                         _______ _______ _______ _____ _____    ______ ____
ROOT
ATOM      1  C   UNL     1      47.492   7.626  12.502  0.00  0.00    +0.000 A 
ATOM      2  C   UNL     1      46.570   8.648  12.768  0.00  0.00    +0.000 A 
ATOM      3  C   UNL     1      45.253   8.543  12.340  0.00  0.00    +0.000 A 
ATOM      4  C   UNL     1      44.837   7.395  11.669  0.00  0.00    +0.000 A 
ATOM      5  F   UNL     1      43.581   7.379  11.199  0.00  0.00    +0.000 F 
ATOM      6  C   UNL     1      45.691   6.299  11.459  0.00  0.00    +0.000 A 
ATOM      7  C   UNL     1      47.013   6.433  11.920  0.00  0.00    +0.000 A 
ENDROOT
BRANCH   6   8
ATOM      8  C   UNL     1      45.270   5.095  10.708  0.00  0.00    +0.000 A 
ATOM      9  C   UNL     1      44.556   4.064  11.328  0.00  0.00    +0.000 A 
ATOM     10  N   UNL     1      44.112   2.943  10.713  0.00  0.00    +0.000 NA
ATOM     11  C   UNL     1      44.385   2.831   9.397  0.00  0.00    +0.000 A 
ATOM     12  C   UNL     1      45.054   3.794   8.656  0.00  0.00    +0.000 A 
ATOM     13  C   UNL     1      45.519   4.927   9.330  0.00  0.00    +0.000 A 
BRANCH  12  14
ATOM     14  O   UNL     1      45.220   3.518   7.332  0.00  0.00    +0.000 OA
BRANCH  14  15
ATOM     15  C   UNL     1      46.562   3.459   6.882  0.00  0.00    +0.000 C 
ATOM     16  F   UNL     1      47.221   2.521   7.603  0.00  0.00    +0.000 F 
ATOM     17  F   UNL     1      46.537   3.022   5.597  0.00  0.00    +0.000 F 
ENDBRANCH  14  15
ENDBRANCH  12  14
ENDBRANCH   6   8
BRANCH   1  18
ATOM     18  C   UNL     1      48.979   7.873  12.721  0.00  0.00    +0.000 C 
ATOM     19  C   UNL     1      49.893   8.008  11.505  0.00  0.00    +0.000 C 
ATOM     20  C   UNL     1      49.449   9.231  12.226  0.00  0.00    +0.000 C 
BRANCH  18  25
ATOM     21  C   UNL     1      49.556   7.354  17.948  0.00  0.00    +0.000 A 
ATOM     22  C   UNL     1      48.761   8.260  17.253  0.00  0.00    +0.000 A 
ATOM     23  C   UNL     1      48.692   8.191  15.858  0.00  0.00    +0.000 A 
ATOM     24  C   UNL     1      49.438   7.233  15.184  0.00  0.00    +0.000 A 
ATOM     25  N   UNL     1      49.523   7.088  13.814  0.00  0.00    +0.000 N 
ATOM     26  N   UNL     1      50.190   6.332  15.859  0.00  0.00    +0.000 NA
ATOM     27  C   UNL     1      50.237   6.404  17.208  0.00  0.00    +0.000 A 
ATOM     28  H   UNL     1      50.106   6.282  13.605  0.00  0.00    +0.000 HD
BRANCH  21  30
ATOM     29  N   UNL     1      49.785   7.420  20.524  0.00  0.00    +0.000 NA
ATOM     30  C   UNL     1      49.684   7.394  19.368  0.00  0.00    +0.000 C 
ENDBRANCH  21  30
ENDBRANCH  18  25
ENDBRANCH   1  18
TORSDOF 6
ENDMDL
MODEL 2
REMARK VINA RESULT:    -7.372      3.759      8.569
REMARK INTER + INTRA:         -11.235
REMARK INTER:                 -10.493
REMARK INTRA:                  -0.743
REMARK UNBOUND:                -1.277
REMARK  Name = 
REMARK  6 active torsions:
REMARK  status: ('A' for Active; 'I' for Inactive)
REMARK    1  A    between atoms: C_2  and  C_3
REMARK    2  A    between atoms: N_7  and  C_8
REMARK    3  A    between atoms: C_8  and  C_9
REMARK    4  A    between atoms: C_14  and  C_15
REMARK    5  A    between atoms: C_19  and  O_20
REMARK    6  A    between atoms: O_20  and  C_21
REMARK                            x       y       z     vdW  Elec       q    Type
REMARK                         _______ _______ _______ _____ _____    ______ ____
ROOT
ATOM      1  C   UNL     1      45.132   5.754  12.083  0.00  0.00    +0.000 A 
ATOM      2  C   UNL     1      45.100   7.041  11.527  0.00  0.00    +0.000 A 
ATOM      3  C   UNL     1      45.937   8.041  12.006  0.00  0.00    +0.000 A 
ATOM      4  C   UNL     1      46.840   7.751  13.027  0.00  0.00    +0.000 A 
ATOM      5  F   UNL     1      47.564   8.770  13.514  0.00  0.00    +0.000 F 
ATOM      6  C   UNL     1      46.984   6.457  13.556  0.00  0.00    +0.000 A 
ATOM      7  C   UNL     1      46.132   5.467  13.035  0.00  0.00    +0.000 A 
ENDROOT
BRANCH   6   8
ATOM      8  C   UNL     1      47.909   6.152  14.670  0.00  0.00    +0.000 A 
ATOM      9  C   UNL     1      49.180   6.730  14.738  0.00  0.00    +0.000 A 
ATOM     10  N   UNL     1      50.078   6.526  15.731  0.00  0.00    +0.000 NA
ATOM     11  C   UNL     1      49.696   5.700  16.727  0.00  0.00    +0.000 A 
ATOM     12  C   UNL     1      48.453   5.090  16.797  0.00  0.00    +0.000 A 
ATOM     13  C   UNL     1      47.561   5.304  15.742  0.00  0.00    +0.000 A 
BRANCH  12  14
ATOM     14  O   UNL     1      48.235   4.305  17.890  0.00  0.00    +0.000 OA
BRANCH  14  15
ATOM     15  C   UNL     1      48.128   2.915  17.635  0.00  0.00    +0.000 C 
ATOM     16  F   UNL     1      46.816   2.594  17.531  0.00  0.00    +0.000 F 
ATOM     17  F   UNL     1      48.688   2.684  16.421  0.00  0.00    +0.000 F 
ENDBRANCH  14  15
ENDBRANCH  12  14
ENDBRANCH   6   8
BRANCH   1  18
ATOM     18  C   UNL     1      44.027   4.760  11.751  0.00  0.00    +0.000 C 
ATOM     19  C   UNL     1      42.978   4.438  12.813  0.00  0.00    +0.000 C 
ATOM     20  C   UNL     1      42.640   5.381  11.712  0.00  0.00    +0.000 C 
BRANCH  18  25
ATOM     21  C   UNL     1      46.388   3.021   7.355  0.00  0.00    +0.000 A 
ATOM     22  C   UNL     1      46.232   4.334   7.789  0.00  0.00    +0.000 A 
ATOM     23  C   UNL     1      45.632   4.585   9.027  0.00  0.00    +0.000 A 
ATOM     24  C   UNL     1      45.179   3.521   9.795  0.00  0.00    +0.000 A 
ATOM     25  N   UNL     1      44.511   3.616  11.000  0.00  0.00    +0.000 N 
ATOM     26  N   UNL     1      45.355   2.241   9.388  0.00  0.00    +0.000 NA
ATOM     27  C   UNL     1      45.948   2.014   8.194  0.00  0.00    +0.000 A 
ATOM     28  H   UNL     1      44.338   2.679  11.353  0.00  0.00    +0.000 HD
BRANCH  21  30
ATOM     29  N   UNL     1      47.449   2.456   5.063  0.00  0.00    +0.000 NA
ATOM     30  C   UNL     1      46.969   2.708   6.090  0.00  0.00    +0.000 C 
ENDBRANCH  21  30
ENDBRANCH  18  25
ENDBRANCH   1  18
TORSDOF 6
ENDMDL
MODEL 3
REMARK VINA RESULT:    -7.273      3.480      4.794
REMARK INTER + INTRA:         -11.102
REMARK INTER:                 -10.154
REMARK INTRA:                  -0.947
REMARK UNBOUND:                -1.277
REMARK  Name = 
REMARK  6 active torsions:
REMARK  status: ('A' for Active; 'I' for Inactive)
REMARK    1  A    between atoms: C_2  and  C_3
REMARK    2  A    between atoms: N_7  and  C_8
REMARK    3  A    between atoms: C_8  and  C_9
REMARK    4  A    between atoms: C_14  and  C_15
REMARK    5  A    between atoms: C_19  and  O_20
REMARK    6  A    between atoms: O_20  and  C_21
REMARK                            x       y       z     vdW  Elec       q    Type
REMARK                         _______ _______ _______ _____ _____    ______ ____
ROOT
ATOM      1  C   UNL     1      47.766   5.168  15.648  0.00  0.00    +0.000 A 
ATOM      2  C   UNL     1      48.642   6.112  15.094  0.00  0.00    +0.000 A 
ATOM      3  C   UNL     1      48.448   6.588  13.803  0.00  0.00    +0.000 A 
ATOM      4  C   UNL     1      47.352   6.144  13.065  0.00  0.00    +0.000 A 
ATOM      5  F   UNL     1      47.257   6.564  11.795  0.00  0.00    +0.000 F 
ATOM      6  C   UNL     1      46.389   5.273  13.602  0.00  0.00    +0.000 A 
ATOM      7  C   UNL     1      46.609   4.826  14.917  0.00  0.00    +0.000 A 
ENDROOT
BRANCH   6   8
ATOM      8  C   UNL     1      45.247   4.763  12.810  0.00  0.00    +0.000 A 
ATOM      9  C   UNL     1      43.980   5.346  12.905  0.00  0.00    +0.000 A 
ATOM     10  N   UNL     1      42.889   4.961  12.201  0.00  0.00    +0.000 NA
ATOM     11  C   UNL     1      43.059   3.935  11.342  0.00  0.00    +0.000 A 
ATOM     12  C   UNL     1      44.270   3.293  11.129  0.00  0.00    +0.000 A 
ATOM     13  C   UNL     1      45.368   3.701  11.891  0.00  0.00    +0.000 A 
BRANCH  12  14
ATOM     14  O   UNL     1      44.257   2.290  10.205  0.00  0.00    +0.000 OA
BRANCH  14  15
ATOM     15  C   UNL     1      45.168   2.435   9.130  0.00  0.00    +0.000 C 
ATOM     16  F   UNL     1      45.517   1.203   8.688  0.00  0.00    +0.000 F 
ATOM     17  F   UNL     1      44.501   3.042   8.116  0.00  0.00    +0.000 F 
ENDBRANCH  14  15
ENDBRANCH  12  14
ENDBRANCH   6   8
BRANCH   1  18
ATOM     18  C   UNL     1      48.145   4.450  16.937  0.00  0.00    +0.000 C 
ATOM     19  C   UNL     1      47.240   4.597  18.159  0.00  0.00    +0.000 C 
ATOM     20  C   UNL     1      47.166   3.359  17.337  0.00  0.00    +0.000 C 
BRANCH  18  25
ATOM     21  C   UNL     1      52.613   1.772  17.822  0.00  0.00    +0.000 A 
ATOM     22  C   UNL     1      51.379   1.279  17.412  0.00  0.00    +0.000 A 
ATOM     23  C   UNL     1      50.327   2.168  17.164  0.00  0.00    +0.000 A 
ATOM     24  C   UNL     1      50.525   3.529  17.355  0.00  0.00    +0.000 A 
ATOM     25  N   UNL     1      49.568   4.515  17.217  0.00  0.00    +0.000 N 
ATOM     26  N   UNL     1      51.733   4.014  17.727  0.00  0.00    +0.000 NA
ATOM     27  C   UNL     1      52.743   3.143  17.950  0.00  0.00    +0.000 A 
ATOM     28  H   UNL     1      50.003   5.419  17.378  0.00  0.00    +0.000 HD
BRANCH  21  30
ATOM     29  N   UNL     1      54.610   0.210  18.342  0.00  0.00    +0.000 NA
ATOM     30  C   UNL     1      53.713   0.910  18.113  0.00  0.00    +0.000 C 
ENDBRANCH  21  30
ENDBRANCH  18  25
ENDBRANCH   1  18
TORSDOF 6
ENDMDL
MODEL 4
REMARK VINA RESULT:    -6.408      3.729      5.590
REMARK INTER + INTRA:          -9.933
REMARK INTER:                  -8.913
REMARK INTRA:                  -1.020
REMARK UNBOUND:                -1.277
REMARK  Name = 
REMARK  6 active torsions:
REMARK  status: ('A' for Active; 'I' for Inactive)
REMARK    1  A    between atoms: C_2  and  C_3
REMARK    2  A    between atoms: N_7  and  C_8
REMARK    3  A    between atoms: C_8  and  C_9
REMARK    4  A    between atoms: C_14  and  C_15
REMARK    5  A    between atoms: C_19  and  O_20
REMARK    6  A    between atoms: O_20  and  C_21
REMARK                            x       y       z     vdW  Elec       q    Type
REMARK                         _______ _______ _______ _____ _____    ______ ____
ROOT
ATOM      1  C   UNL     1      48.942   6.082  16.245  0.00  0.00    +0.000 A 
ATOM      2  C   UNL     1      50.031   6.877  15.859  0.00  0.00    +0.000 A 
ATOM      3  C   UNL     1      50.110   7.395  14.573  0.00  0.00    +0.000 A 
ATOM      4  C   UNL     1      49.081   7.148  13.668  0.00  0.00    +0.000 A 
ATOM      5  F   UNL     1      49.245   7.595  12.413  0.00  0.00    +0.000 F 
ATOM      6  C   UNL     1      47.921   6.440  14.026  0.00  0.00    +0.000 A 
ATOM      7  C   UNL     1      47.867   5.945  15.341  0.00  0.00    +0.000 A 
ENDROOT
BRANCH   6   8
ATOM      8  C   UNL     1      46.843   6.136  13.058  0.00  0.00    +0.000 A 
ATOM      9  C   UNL     1      46.295   7.132  12.244  0.00  0.00    +0.000 A 
ATOM     10  N   UNL     1      45.327   6.938  11.318  0.00  0.00    +0.000 NA
ATOM     11  C   UNL     1      44.872   5.676  11.179  0.00  0.00    +0.000 A 
ATOM     12  C   UNL     1      45.353   4.593  11.898  0.00  0.00    +0.000 A 
ATOM     13  C   UNL     1      46.335   4.835  12.863  0.00  0.00    +0.000 A 
BRANCH  12  14
ATOM     14  O   UNL     1      44.788   3.387  11.608  0.00  0.00    +0.000 OA
BRANCH  14  15
ATOM     15  C   UNL     1      43.379   3.321  11.743  0.00  0.00    +0.000 C 
ATOM     16  F   UNL     1      42.989   2.032  11.598  0.00  0.00    +0.000 F 
ATOM     17  F   UNL     1      43.080   3.683  13.016  0.00  0.00    +0.000 F 
ENDBRANCH  14  15
ENDBRANCH  12  14
ENDBRANCH   6   8
BRANCH   1  18
ATOM     18  C   UNL     1      49.004   5.294  17.547  0.00  0.00    +0.000 C 
ATOM     19  C   UNL     1      48.113   5.722  18.712  0.00  0.00    +0.000 C 
ATOM     20  C   UNL     1      47.715   4.558  17.875  0.00  0.00    +0.000 C 
BRANCH  18  25
ATOM     21  C   UNL     1      52.604   1.442  17.890  0.00  0.00    +0.000 A 
ATOM     22  C   UNL     1      51.350   1.401  17.288  0.00  0.00    +0.000 A 
ATOM     23  C   UNL     1      50.567   2.558  17.243  0.00  0.00    +0.000 A 
ATOM     24  C   UNL     1      51.042   3.727  17.822  0.00  0.00    +0.000 A 
ATOM     25  N   UNL     1      50.358   4.923  17.914  0.00  0.00    +0.000 N 
ATOM     26  N   UNL     1      52.273   3.778  18.383  0.00  0.00    +0.000 NA
ATOM     27  C   UNL     1      53.024   2.654  18.408  0.00  0.00    +0.000 A 
ATOM     28  H   UNL     1      50.963   5.614  18.348  0.00  0.00    +0.000 HD
BRANCH  21  30
ATOM     29  N   UNL     1      54.107  -0.657  18.060  0.00  0.00    +0.000 NA
ATOM     30  C   UNL     1      53.435   0.286  17.987  0.00  0.00    +0.000 C 
ENDBRANCH  21  30
ENDBRANCH  18  25
ENDBRANCH   1  18
TORSDOF 6
ENDMDL
MODEL 5
REMARK VINA RESULT:    -5.999      2.872      4.872
REMARK INTER + INTRA:          -9.380
REMARK INTER:                  -8.742
REMARK INTRA:                  -0.639
REMARK UNBOUND:                -1.277
REMARK  Name = 
REMARK  6 active torsions:
REMARK  status: ('A' for Active; 'I' for Inactive)
REMARK    1  A    between atoms: C_2  and  C_3
REMARK    2  A    between atoms: N_7  and  C_8
REMARK    3  A    between atoms: C_8  and  C_9
REMARK    4  A    between atoms: C_14  and  C_15
REMARK    5  A    between atoms: C_19  and  O_20
REMARK    6  A    between atoms: O_20  and  C_21
REMARK                            x       y       z     vdW  Elec       q    Type
REMARK                         _______ _______ _______ _____ _____    ______ ____
ROOT
ATOM      1  C   UNL     1      48.512   7.891  12.983  0.00  0.00    +0.000 A 
ATOM      2  C   UNL     1      48.990   7.260  14.141  0.00  0.00    +0.000 A 
ATOM      3  C   UNL     1      48.327   6.163  14.676  0.00  0.00    +0.000 A 
ATOM      4  C   UNL     1      47.194   5.666  14.036  0.00  0.00    +0.000 A 
ATOM      5  F   UNL     1      46.539   4.661  14.639  0.00  0.00    +0.000 F 
ATOM      6  C   UNL     1      46.724   6.196  12.822  0.00  0.00    +0.000 A 
ATOM      7  C   UNL     1      47.430   7.295  12.301  0.00  0.00    +0.000 A 
ENDROOT
BRANCH   6   8
ATOM      8  C   UNL     1      45.496   5.702  12.160  0.00  0.00    +0.000 A 
ATOM      9  C   UNL     1      44.251   5.773  12.794  0.00  0.00    +0.000 A 
ATOM     10  N   UNL     1      43.077   5.368  12.254  0.00  0.00    +0.000 NA
ATOM     11  C   UNL     1      43.132   4.865  11.004  0.00  0.00    +0.000 A 
ATOM     12  C   UNL     1      44.295   4.771  10.254  0.00  0.00    +0.000 A 
ATOM     13  C   UNL     1      45.491   5.175  10.852  0.00  0.00    +0.000 A 
BRANCH  12  14
ATOM     14  O   UNL     1      44.154   4.255   9.000  0.00  0.00    +0.000 OA
BRANCH  14  15
ATOM     15  C   UNL     1      45.008   3.170   8.684  0.00  0.00    +0.000 C 
ATOM     16  F   UNL     1      44.303   2.018   8.791  0.00  0.00    +0.000 F 
ATOM     17  F   UNL     1      45.356   3.298   7.378  0.00  0.00    +0.000 F 
ENDBRANCH  14  15
ENDBRANCH  12  14
ENDBRANCH   6   8
BRANCH   1  18
ATOM     18  C   UNL     1      49.073   9.247  12.574  0.00  0.00    +0.000 C 
ATOM     19  C   UNL     1      48.390  10.020  11.448  0.00  0.00    +0.000 C 
ATOM     20  C   UNL     1      48.133  10.406  12.861  0.00  0.00    +0.000 C 
BRANCH  18  25
ATOM     21  C   UNL     1      53.479   7.239  10.459  0.00  0.00    +0.000 A 
ATOM     22  C   UNL     1      52.161   7.026  10.070  0.00  0.00    +0.000 A 
ATOM     23  C   UNL     1      51.129   7.711  10.720  0.00  0.00    +0.000 A 
ATOM     24  C   UNL     1      51.435   8.575  11.763  0.00  0.00    +0.000 A 
ATOM     25  N   UNL     1      50.524   9.265  12.539  0.00  0.00    +0.000 N 
ATOM     26  N   UNL     1      52.719   8.806  12.125  0.00  0.00    +0.000 NA
ATOM     27  C   UNL     1      53.706   8.147  11.478  0.00  0.00    +0.000 A 
ATOM     28  H   UNL     1      51.030   9.851  13.196  0.00  0.00    +0.000 HD
BRANCH  21  30
ATOM     29  N   UNL     1      55.450   5.984   9.348  0.00  0.00    +0.000 NA
ATOM     30  C   UNL     1      54.569   6.550   9.848  0.00  0.00    +0.000 C 
ENDBRANCH  21  30
ENDBRANCH  18  25
ENDBRANCH   1  18
TORSDOF 6
ENDMDL
MODEL 6
REMARK VINA RESULT:    -5.688      1.933      2.488
REMARK INTER + INTRA:          -8.961
REMARK INTER:                  -8.512
REMARK INTRA:                  -0.450
REMARK UNBOUND:                -1.277
REMARK  Name = 
REMARK  6 active torsions:
REMARK  status: ('A' for Active; 'I' for Inactive)
REMARK    1  A    between atoms: C_2  and  C_3
REMARK    2  A    between atoms: N_7  and  C_8
REMARK    3  A    between atoms: C_8  and  C_9
REMARK    4  A    between atoms: C_14  and  C_15
REMARK    5  A    between atoms: C_19  and  O_20
REMARK    6  A    between atoms: O_20  and  C_21
REMARK                            x       y       z     vdW  Elec       q    Type
REMARK                         _______ _______ _______ _____ _____    ______ ____
ROOT
ATOM      1  C   UNL     1      45.491   6.396  12.563  0.00  0.00    +0.000 A 
ATOM      2  C   UNL     1      44.223   6.342  13.160  0.00  0.00    +0.000 A 
ATOM      3  C   UNL     1      43.250   5.476  12.680  0.00  0.00    +0.000 A 
ATOM      4  C   UNL     1      43.548   4.629  11.614  0.00  0.00    +0.000 A 
ATOM      5  F   UNL     1      42.550   3.875  11.130  0.00  0.00    +0.000 F 
ATOM      6  C   UNL     1      44.829   4.570  11.039  0.00  0.00    +0.000 A 
ATOM      7  C   UNL     1      45.794   5.450  11.562  0.00  0.00    +0.000 A 
ENDROOT
BRANCH   6   8
ATOM      8  C   UNL     1      45.142   3.706   9.879  0.00  0.00    +0.000 A 
ATOM      9  C   UNL     1      44.786   2.354   9.864  0.00  0.00    +0.000 A 
ATOM     10  N   UNL     1      45.011   1.499   8.838  0.00  0.00    +0.000 NA
ATOM     11  C   UNL     1      45.622   2.012   7.751  0.00  0.00    +0.000 A 
ATOM     12  C   UNL     1      45.995   3.342   7.624  0.00  0.00    +0.000 A 
ATOM     13  C   UNL     1      45.770   4.189   8.713  0.00  0.00    +0.000 A 
BRANCH  12  14
ATOM     14  O   UNL     1      46.583   3.686   6.443  0.00  0.00    +0.000 OA
BRANCH  14  15
ATOM     15  C   UNL     1      46.963   2.605   5.610  0.00  0.00    +0.000 C 
ATOM     16  F   UNL     1      46.276   2.693   4.445  0.00  0.00    +0.000 F 
ATOM     17  F   UNL     1      48.275   2.772   5.306  0.00  0.00    +0.000 F 
ENDBRANCH  14  15
ENDBRANCH  12  14
ENDBRANCH   6   8
BRANCH   1  18
ATOM     18  C   UNL     1      46.441   7.535  12.909  0.00  0.00    +0.000 C 
ATOM     19  C   UNL     1      46.562   8.715  11.947  0.00  0.00    +0.000 C 
ATOM     20  C   UNL     1      45.737   8.855  13.177  0.00  0.00    +0.000 C 
BRANCH  18  25
ATOM     21  C   UNL     1      50.417   8.457  16.265  0.00  0.00    +0.000 A 
ATOM     22  C   UNL     1      49.221   9.156  16.131  0.00  0.00    +0.000 A 
ATOM     23  C   UNL     1      48.257   8.708  15.222  0.00  0.00    +0.000 A 
ATOM     24  C   UNL     1      48.519   7.585  14.448  0.00  0.00    +0.000 A 
ATOM     25  N   UNL     1      47.697   7.067  13.466  0.00  0.00    +0.000 N 
ATOM     26  N   UNL     1      49.669   6.887  14.597  0.00  0.00    +0.000 NA
ATOM     27  C   UNL     1      50.586   7.325  15.489  0.00  0.00    +0.000 A 
ATOM     28  H   UNL     1      48.122   6.222  13.096  0.00  0.00    +0.000 HD
BRANCH  21  30
ATOM     29  N   UNL     1      52.278   9.236  17.885  0.00  0.00    +0.000 NA
ATOM     30  C   UNL     1      51.445   8.883  17.159  0.00  0.00    +0.000 C 
ENDBRANCH  21  30
ENDBRANCH  18  25
ENDBRANCH   1  18
TORSDOF 6
ENDMDL
MODEL 7
REMARK VINA RESULT:    -5.475      3.833      7.067
REMARK INTER + INTRA:          -8.673
REMARK INTER:                  -7.423
REMARK INTRA:                  -1.251
REMARK UNBOUND:                -1.277
REMARK  Name = 
REMARK  6 active torsions:
REMARK  status: ('A' for Active; 'I' for Inactive)
REMARK    1  A    between atoms: C_2  and  C_3
REMARK    2  A    between atoms: N_7  and  C_8
REMARK    3  A    between atoms: C_8  and  C_9
REMARK    4  A    between atoms: C_14  and  C_15
REMARK    5  A    between atoms: C_19  and  O_20
REMARK    6  A    between atoms: O_20  and  C_21
REMARK                            x       y       z     vdW  Elec       q    Type
REMARK                         _______ _______ _______ _____ _____    ______ ____
ROOT
ATOM      1  C   UNL     1      49.169   8.376  13.009  0.00  0.00    +0.000 A 
ATOM      2  C   UNL     1      48.655   9.562  12.465  0.00  0.00    +0.000 A 
ATOM      3  C   UNL     1      49.335  10.232  11.456  0.00  0.00    +0.000 A 
ATOM      4  C   UNL     1      50.524   9.703  10.959  0.00  0.00    +0.000 A 
ATOM      5  F   UNL     1      51.188  10.431  10.049  0.00  0.00    +0.000 F 
ATOM      6  C   UNL     1      51.037   8.470  11.398  0.00  0.00    +0.000 A 
ATOM      7  C   UNL     1      50.313   7.811  12.407  0.00  0.00    +0.000 A 
ENDROOT
BRANCH   6   8
ATOM      8  C   UNL     1      52.322   7.923  10.907  0.00  0.00    +0.000 A 
ATOM      9  C   UNL     1      53.526   8.195  11.564  0.00  0.00    +0.000 A 
ATOM     10  N   UNL     1      54.739   7.717  11.199  0.00  0.00    +0.000 NA
ATOM     11  C   UNL     1      54.768   6.913  10.116  0.00  0.00    +0.000 A 
ATOM     12  C   UNL     1      53.644   6.538   9.396  0.00  0.00    +0.000 A 
ATOM     13  C   UNL     1      52.412   7.070   9.787  0.00  0.00    +0.000 A 
BRANCH  12  14
ATOM     14  O   UNL     1      53.863   5.701   8.343  0.00  0.00    +0.000 OA
BRANCH  14  15
ATOM     15  C   UNL     1      53.044   5.916   7.207  0.00  0.00    +0.000 C 
ATOM     16  F   UNL     1      53.830   6.299   6.173  0.00  0.00    +0.000 F 
ATOM     17  F   UNL     1      52.503   4.719   6.868  0.00  0.00    +0.000 F 
ENDBRANCH  14  15
ENDBRANCH  12  14
ENDBRANCH   6   8
BRANCH   1  18
ATOM     18  C   UNL     1      48.571   7.810  14.290  0.00  0.00    +0.000 C 
ATOM     19  C   UNL     1      49.191   8.202  15.631  0.00  0.00    +0.000 C 
ATOM     20  C   UNL     1      47.937   8.865  15.183  0.00  0.00    +0.000 C 
BRANCH  18  25
ATOM     21  C   UNL     1      45.298   4.256  12.153  0.00  0.00    +0.000 A 
ATOM     22  C   UNL     1      45.404   5.613  11.867  0.00  0.00    +0.000 A 
ATOM     23  C   UNL     1      46.390   6.378  12.498  0.00  0.00    +0.000 A 
ATOM     24  C   UNL     1      47.235   5.775  13.421  0.00  0.00    +0.000 A 
ATOM     25  N   UNL     1      48.206   6.411  14.169  0.00  0.00    +0.000 N 
ATOM     26  N   UNL     1      47.153   4.448  13.680  0.00  0.00    +0.000 NA
ATOM     27  C   UNL     1      46.203   3.720  13.052  0.00  0.00    +0.000 A 
ATOM     28  H   UNL     1      48.695   5.718  14.728  0.00  0.00    +0.000 HD
BRANCH  21  30
ATOM     29  N   UNL     1      43.475   2.766  11.080  0.00  0.00    +0.000 NA
ATOM     30  C   UNL     1      44.296   3.433  11.558  0.00  0.00    +0.000 C 
ENDBRANCH  21  30
ENDBRANCH  18  25
ENDBRANCH   1  18
TORSDOF 6
ENDMDL
MODEL 8
REMARK VINA RESULT:    -5.282      4.778      7.220
REMARK INTER + INTRA:          -8.412
REMARK INTER:                  -7.295
REMARK INTRA:                  -1.117
REMARK UNBOUND:                -1.277
REMARK  Name = 
REMARK  6 active torsions:
REMARK  status: ('A' for Active; 'I' for Inactive)
REMARK    1  A    between atoms: C_2  and  C_3
REMARK    2  A    between atoms: N_7  and  C_8
REMARK    3  A    between atoms: C_8  and  C_9
REMARK    4  A    between atoms: C_14  and  C_15
REMARK    5  A    between atoms: C_19  and  O_20
REMARK    6  A    between atoms: O_20  and  C_21
REMARK                            x       y       z     vdW  Elec       q    Type
REMARK                         _______ _______ _______ _____ _____    ______ ____
ROOT
ATOM      1  C   UNL     1      51.351   8.649  11.431  0.00  0.00    +0.000 A 
ATOM      2  C   UNL     1      51.366   9.907  10.812  0.00  0.00    +0.000 A 
ATOM      3  C   UNL     1      52.114  10.123   9.662  0.00  0.00    +0.000 A 
ATOM      4  C   UNL     1      52.830   9.069   9.100  0.00  0.00    +0.000 A 
ATOM      5  F   UNL     1      53.606   9.348   8.041  0.00  0.00    +0.000 F 
ATOM      6  C   UNL     1      52.777   7.764   9.620  0.00  0.00    +0.000 A 
ATOM      7  C   UNL     1      51.996   7.579  10.775  0.00  0.00    +0.000 A 
ENDROOT
BRANCH   6   8
ATOM      8  C   UNL     1      53.569   6.649   9.055  0.00  0.00    +0.000 A 
ATOM      9  C   UNL     1      54.650   6.100   9.752  0.00  0.00    +0.000 A 
ATOM     10  N   UNL     1      55.412   5.066   9.323  0.00  0.00    +0.000 NA
ATOM     11  C   UNL     1      55.084   4.534   8.127  0.00  0.00    +0.000 A 
ATOM     12  C   UNL     1      54.017   4.962   7.352  0.00  0.00    +0.000 A 
ATOM     13  C   UNL     1      53.268   6.047   7.816  0.00  0.00    +0.000 A 
BRANCH  12  14
ATOM     14  O   UNL     1      53.824   4.290   6.182  0.00  0.00    +0.000 OA
BRANCH  14  15
ATOM     15  C   UNL     1      54.457   3.026   6.088  0.00  0.00    +0.000 C 
ATOM     16  F   UNL     1      53.566   2.068   6.439  0.00  0.00    +0.000 F 
ATOM     17  F   UNL     1      54.759   2.823   4.781  0.00  0.00    +0.000 F 
ENDBRANCH  14  15
ENDBRANCH  12  14
ENDBRANCH   6   8
BRANCH   1  18
ATOM     18  C   UNL     1      50.767   8.500  12.829  0.00  0.00    +0.000 C 
ATOM     19  C   UNL     1      51.623   8.886  14.034  0.00  0.00    +0.000 C 
ATOM     20  C   UNL     1      50.574   9.824  13.552  0.00  0.00    +0.000 C 
BRANCH  18  25
ATOM     21  C   UNL     1      45.983   6.260  12.957  0.00  0.00    +0.000 A 
ATOM     22  C   UNL     1      46.317   7.562  12.596  0.00  0.00    +0.000 A 
ATOM     23  C   UNL     1      47.661   7.946  12.561  0.00  0.00    +0.000 A 
ATOM     24  C   UNL     1      48.643   7.028  12.911  0.00  0.00    +0.000 A 
ATOM     25  N   UNL     1      49.998   7.280  12.989  0.00  0.00    +0.000 N 
ATOM     26  N   UNL     1      48.322   5.753  13.236  0.00  0.00    +0.000 NA
ATOM     27  C   UNL     1      47.019   5.393  13.252  0.00  0.00    +0.000 A 
ATOM     28  H   UNL     1      50.478   6.417  13.228  0.00  0.00    +0.000 HD
BRANCH  21  30
ATOM     29  N   UNL     1      43.527   5.460  13.103  0.00  0.00    +0.000 NA
ATOM     30  C   UNL     1      44.627   5.821  13.034  0.00  0.00    +0.000 C 
ENDBRANCH  21  30
ENDBRANCH  18  25
ENDBRANCH   1  18
TORSDOF 6
ENDMDL
MODEL 9
REMARK VINA RESULT:    -4.997      2.726      4.979
REMARK INTER + INTRA:          -8.027
REMARK INTER:                  -7.502
REMARK INTRA:                  -0.524
REMARK UNBOUND:                -1.277
REMARK  Name = 
REMARK  6 active torsions:
REMARK  status: ('A' for Active; 'I' for Inactive)
REMARK    1  A    between atoms: C_2  and  C_3
REMARK    2  A    between atoms: N_7  and  C_8
REMARK    3  A    between atoms: C_8  and  C_9
REMARK    4  A    between atoms: C_14  and  C_15
REMARK    5  A    between atoms: C_19  and  O_20
REMARK    6  A    between atoms: O_20  and  C_21
REMARK                            x       y       z     vdW  Elec       q    Type
REMARK                         _______ _______ _______ _____ _____    ______ ____
ROOT
ATOM      1  C   UNL     1      48.730   6.937  15.344  0.00  0.00    +0.000 A 
ATOM      2  C   UNL     1      48.836   5.942  16.327  0.00  0.00    +0.000 A 
ATOM      3  C   UNL     1      48.053   4.796  16.263  0.00  0.00    +0.000 A 
ATOM      4  C   UNL     1      47.178   4.620  15.193  0.00  0.00    +0.000 A 
ATOM      5  F   UNL     1      46.381   3.541  15.223  0.00  0.00    +0.000 F 
ATOM      6  C   UNL     1      47.098   5.536  14.131  0.00  0.00    +0.000 A 
ATOM      7  C   UNL     1      47.917   6.676  14.220  0.00  0.00    +0.000 A 
ENDROOT
BRANCH   6   8
ATOM      8  C   UNL     1      46.139   5.378  13.014  0.00  0.00    +0.000 A 
ATOM      9  C   UNL     1      45.477   6.481  12.464  0.00  0.00    +0.000 A 
ATOM     10  N   UNL     1      44.606   6.430  11.429  0.00  0.00    +0.000 NA
ATOM     11  C   UNL     1      44.374   5.213  10.896  0.00  0.00    +0.000 A 
ATOM     12  C   UNL     1      44.990   4.047  11.325  0.00  0.00    +0.000 A 
ATOM     13  C   UNL     1      45.865   4.133  12.412  0.00  0.00    +0.000 A 
BRANCH  12  14
ATOM     14  O   UNL     1      44.649   2.911  10.653  0.00  0.00    +0.000 OA
BRANCH  14  15
ATOM     15  C   UNL     1      45.182   2.789   9.346  0.00  0.00    +0.000 C 
ATOM     16  F   UNL     1      45.506   1.491   9.129  0.00  0.00    +0.000 F 
ATOM     17  F   UNL     1      44.188   3.097   8.475  0.00  0.00    +0.000 F 
ENDBRANCH  14  15
ENDBRANCH  12  14
ENDBRANCH   6   8
BRANCH   1  18
ATOM     18  C   UNL     1      49.374   8.298  15.573  0.00  0.00    +0.000 C 
ATOM     19  C   UNL     1      48.507   9.552  15.475  0.00  0.00    +0.000 C 
ATOM     20  C   UNL     1      48.864   9.011  16.814  0.00  0.00    +0.000 C 
BRANCH  18  25
ATOM     21  C   UNL     1      52.178   8.350  11.095  0.00  0.00    +0.000 A 
ATOM     22  C   UNL     1      50.795   8.372  11.247  0.00  0.00    +0.000 A 
ATOM     23  C   UNL     1      50.242   8.423  12.531  0.00  0.00    +0.000 A 
ATOM     24  C   UNL     1      51.083   8.427  13.636  0.00  0.00    +0.000 A 
ATOM     25  N   UNL     1      50.684   8.408  14.958  0.00  0.00    +0.000 N 
ATOM     26  N   UNL     1      52.429   8.435  13.490  0.00  0.00    +0.000 NA
ATOM     27  C   UNL     1      52.948   8.398  12.242  0.00  0.00    +0.000 A 
ATOM     28  H   UNL     1      51.509   8.457  15.550  0.00  0.00    +0.000 HD
BRANCH  21  30
ATOM     29  N   UNL     1      53.304   8.215   8.769  0.00  0.00    +0.000 NA
ATOM     30  C   UNL     1      52.796   8.273   9.811  0.00  0.00    +0.000 C 
ENDBRANCH  21  30
ENDBRANCH  18  25
ENDBRANCH   1  18
TORSDOF 6
ENDMDL
