MODEL 1
REMARK VINA RESULT:    -7.815      0.000      0.000
REMARK INTER + INTRA:         -10.791
REMARK INTER:                 -10.099
REMARK INTRA:                  -0.692
REMARK UNBOUND:                -0.692
REMARK  Name = 
REMARK  5 active torsions:
REMARK  status: ('A' for Active; 'I' for Inactive)
REMARK    1  A    between atoms: C_2  and  C_3
REMARK    2  A    between atoms: C_6  and  C_7
REMARK    3  A    between atoms: C_7  and  N_8
REMARK    4  A    between atoms: N_8  and  C_9
REMARK    5  A    between atoms: C_12  and  C_13
REMARK                            x       y       z     vdW  Elec       q    Type
REMARK                         _______ _______ _______ _____ _____    ______ ____
ROOT
ATOM      1  N   UNL     1      43.857   3.781  10.632  0.00  0.00    +0.000 N 
ATOM      2  H   UNL     1      43.089   3.131  10.759  0.00  0.00    +0.000 HD
ENDROOT
BRANCH   1   3
ATOM      3  C   UNL     1      44.717   3.466   9.572  0.00  0.00    +0.000 A 
ATOM      4  C   UNL     1      45.246   4.391   8.675  0.00  0.00    +0.000 A 
ATOM      5  C   UNL     1      46.098   3.966   7.649  0.00  0.00    +0.000 A 
ATOM      6  C   UNL     1      46.415   2.616   7.565  0.00  0.00    +0.000 A 
ATOM      7  N   UNL     1      45.954   1.679   8.434  0.00  0.00    +0.000 NA
ATOM      8  C   UNL     1      45.132   2.138   9.405  0.00  0.00    +0.000 A 
BRANCH   6   9
ATOM      9  C   UNL     1      47.311   2.116   6.474  0.00  0.00    +0.000 C 
ATOM     10  N   UNL     1      47.429   2.947   5.391  0.00  0.00    +0.000 N 
ATOM     11  O   UNL     1      47.900   1.045   6.536  0.00  0.00    +0.000 OA
ATOM     12  H   UNL     1      46.924   3.827   5.383  0.00  0.00    +0.000 HD
ATOM     13  H   UNL     1      48.016   2.682   4.615  0.00  0.00    +0.000 HD
ENDBRANCH   6   9
ENDBRANCH   1   3
BRANCH   1  14
ATOM     14  C   UNL     1      43.846   4.988  11.459  0.00  0.00    +0.000 C 
ATOM     15  C   UNL     1      42.794   6.076  11.359  0.00  0.00    +0.000 C 
ATOM     16  C   UNL     1      42.654   5.048  12.426  0.00  0.00    +0.000 C 
BRANCH  14  20
ATOM     17  C   UNL     1      47.634   6.208  13.242  0.00  0.00    +0.000 A 
ATOM     18  C   UNL     1      47.097   6.944  12.184  0.00  0.00    +0.000 A 
ATOM     19  C   UNL     1      45.897   6.535  11.583  0.00  0.00    +0.000 A 
ATOM     20  C   UNL     1      45.220   5.381  12.016  0.00  0.00    +0.000 A 
ATOM     21  C   UNL     1      45.829   4.617  13.018  0.00  0.00    +0.000 A 
ATOM     22  C   UNL     1      47.009   5.030  13.645  0.00  0.00    +0.000 A 
BRANCH  17  24
ATOM     23  N   UNL     1      49.769   7.016  14.475  0.00  0.00    +0.000 NA
ATOM     24  C   UNL     1      48.811   6.663  13.914  0.00  0.00    +0.000 C 
ENDBRANCH  17  24
ENDBRANCH  14  20
ENDBRANCH   1  14
TORSDOF 5
ENDMDL
MODEL 2
REMARK VINA RESULT:    -7.216      2.990      6.836
REMARK INTER + INTRA:         -10.016
REMARK INTER:                  -9.473
REMARK INTRA:                  -0.543
REMARK UNBOUND:                -0.692
REMARK  Name = 
REMARK  5 active torsions:
REMARK  status: ('A' for Active; 'I' for Inactive)
REMARK    1  A    between atoms: C_2  and  C_3
REMARK    2  A    between atoms: C_6  and  C_7
REMARK    3  A    between atoms: C_7  and  N_8
REMARK    4  A    between atoms: N_8  and  C_9
REMARK    5  A    between atoms: C_12  and  C_13
REMARK                            x       y       z     vdW  Elec       q    Type
REMARK                         _______ _______ _______ _____ _____    ______ ____
ROOT
ATOM      1  N   UNL     1      44.579   5.914  10.939  0.00  0.00    +0.000 N 
ATOM      2  H   UNL     1      43.892   6.492  10.467  0.00  0.00    +0.000 HD
ENDROOT
BRANCH   1   3
ATOM      3  C   UNL     1      45.487   6.622  11.737  0.00  0.00    +0.000 A 
ATOM      4  C   UNL     1      46.771   6.189  12.056  0.00  0.00    +0.000 A 
ATOM      5  C   UNL     1      47.597   6.978  12.866  0.00  0.00    +0.000 A 
ATOM      6  C   UNL     1      47.114   8.200  13.317  0.00  0.00    +0.000 A 
ATOM      7  N   UNL     1      45.883   8.684  13.006  0.00  0.00    +0.000 NA
ATOM      8  C   UNL     1      45.121   7.884  12.226  0.00  0.00    +0.000 A 
BRANCH   6   9
ATOM      9  C   UNL     1      47.958   9.069  14.197  0.00  0.00    +0.000 C 
ATOM     10  N   UNL     1      47.525   9.183  15.492  0.00  0.00    +0.000 N 
ATOM     11  O   UNL     1      48.966   9.639  13.798  0.00  0.00    +0.000 OA
ATOM     12  H   UNL     1      46.685   8.691  15.779  0.00  0.00    +0.000 HD
ATOM     13  H   UNL     1      48.040   9.750  16.147  0.00  0.00    +0.000 HD
ENDBRANCH   6   9
ENDBRANCH   1   3
BRANCH   1  14
ATOM     14  C   UNL     1      44.411   4.464  10.829  0.00  0.00    +0.000 C 
ATOM     15  C   UNL     1      44.100   3.554  12.001  0.00  0.00    +0.000 C 
ATOM     16  C   UNL     1      42.979   3.997  11.127  0.00  0.00    +0.000 C 
BRANCH  14  20
ATOM     17  C   UNL     1      46.610   2.656   7.526  0.00  0.00    +0.000 A 
ATOM     18  C   UNL     1      46.469   4.042   7.587  0.00  0.00    +0.000 A 
ATOM     19  C   UNL     1      45.731   4.628   8.627  0.00  0.00    +0.000 A 
ATOM     20  C   UNL     1      45.113   3.841   9.616  0.00  0.00    +0.000 A 
ATOM     21  C   UNL     1      45.198   2.451   9.477  0.00  0.00    +0.000 A 
ATOM     22  C   UNL     1      45.955   1.857   8.462  0.00  0.00    +0.000 A 
BRANCH  17  24
ATOM     23  N   UNL     1      48.079   1.574   5.681  0.00  0.00    +0.000 NA
ATOM     24  C   UNL     1      47.428   2.056   6.517  0.00  0.00    +0.000 C 
ENDBRANCH  17  24
ENDBRANCH  14  20
ENDBRANCH   1  14
TORSDOF 5
ENDMDL
MODEL 3
REMARK VINA RESULT:    -7.176      2.823      6.695
REMARK INTER + INTRA:          -9.965
REMARK INTER:                  -9.686
REMARK INTRA:                  -0.279
REMARK UNBOUND:                -0.692
REMARK  Name = 
REMARK  5 active torsions:
REMARK  status: ('A' for Active; 'I' for Inactive)
REMARK    1  A    between atoms: C_2  and  C_3
REMARK    2  A    between atoms: C_6  and  C_7
REMARK    3  A    between atoms: C_7  and  N_8
REMARK    4  A    between atoms: N_8  and  C_9
REMARK    5  A    between atoms: C_12  and  C_13
REMARK                            x       y       z     vdW  Elec       q    Type
REMARK                         _______ _______ _______ _____ _____    ______ ____
ROOT
ATOM      1  N   UNL     1      45.283   5.575  11.490  0.00  0.00    +0.000 N 
ATOM      2  H   UNL     1      45.197   6.517  11.124  0.00  0.00    +0.000 HD
ENDROOT
BRANCH   1   3
ATOM      3  C   UNL     1      46.048   5.472  12.659  0.00  0.00    +0.000 A 
ATOM      4  C   UNL     1      47.044   6.367  13.040  0.00  0.00    +0.000 A 
ATOM      5  C   UNL     1      47.750   6.167  14.232  0.00  0.00    +0.000 A 
ATOM      6  C   UNL     1      47.417   5.077  15.027  0.00  0.00    +0.000 A 
ATOM      7  N   UNL     1      46.430   4.195  14.719  0.00  0.00    +0.000 NA
ATOM      8  C   UNL     1      45.781   4.428  13.555  0.00  0.00    +0.000 A 
BRANCH   6   9
ATOM      9  C   UNL     1      48.156   4.818  16.303  0.00  0.00    +0.000 C 
ATOM     10  N   UNL     1      48.016   5.784  17.264  0.00  0.00    +0.000 N 
ATOM     11  O   UNL     1      48.837   3.817  16.484  0.00  0.00    +0.000 OA
ATOM     12  H   UNL     1      47.438   6.596  17.070  0.00  0.00    +0.000 HD
ATOM     13  H   UNL     1      48.481   5.682  18.152  0.00  0.00    +0.000 HD
ENDBRANCH   6   9
ENDBRANCH   1   3
BRANCH   1  14
ATOM     14  C   UNL     1      44.485   4.536  10.837  0.00  0.00    +0.000 C 
ATOM     15  C   UNL     1      43.395   3.741  11.530  0.00  0.00    +0.000 C 
ATOM     16  C   UNL     1      43.002   4.910  10.697  0.00  0.00    +0.000 C 
BRANCH  14  20
ATOM     17  C   UNL     1      46.618   2.669   7.524  0.00  0.00    +0.000 A 
ATOM     18  C   UNL     1      46.515   4.059   7.585  0.00  0.00    +0.000 A 
ATOM     19  C   UNL     1      45.798   4.664   8.630  0.00  0.00    +0.000 A 
ATOM     20  C   UNL     1      45.163   3.894   9.621  0.00  0.00    +0.000 A 
ATOM     21  C   UNL     1      45.210   2.502   9.481  0.00  0.00    +0.000 A 
ATOM     22  C   UNL     1      45.945   1.888   8.462  0.00  0.00    +0.000 A 
BRANCH  17  24
ATOM     23  N   UNL     1      48.054   1.555   5.672  0.00  0.00    +0.000 NA
ATOM     24  C   UNL     1      47.414   2.047   6.511  0.00  0.00    +0.000 C 
ENDBRANCH  17  24
ENDBRANCH  14  20
ENDBRANCH   1  14
TORSDOF 5
ENDMDL
MODEL 4
REMARK VINA RESULT:    -6.293      2.450      6.242
REMARK INTER + INTRA:          -8.824
REMARK INTER:                  -8.533
REMARK INTRA:                  -0.291
REMARK UNBOUND:                -0.692
REMARK  Name = 
REMARK  5 active torsions:
REMARK  status: ('A' for Active; 'I' for Inactive)
REMARK    1  A    between atoms: C_2  and  C_3
REMARK    2  A    between atoms: C_6  and  C_7
REMARK    3  A    between atoms: C_7  and  N_8
REMARK    4  A    between atoms: N_8  and  C_9
REMARK    5  A    between atoms: C_12  and  C_13
REMARK                            x       y       z     vdW  Elec       q    Type
REMARK                         _______ _______ _______ _____ _____    ______ ____
ROOT
ATOM      1  N   UNL     1      45.021   5.166  12.707  0.00  0.00    +0.000 N 
ATOM      2  H   UNL     1      44.845   4.687  13.583  0.00  0.00    +0.000 HD
ENDROOT
BRANCH   1   3
ATOM      3  C   UNL     1      46.199   5.923  12.682  0.00  0.00    +0.000 A 
ATOM      4  C   UNL     1      46.306   7.213  12.168  0.00  0.00    +0.000 A 
ATOM      5  C   UNL     1      47.537   7.879  12.192  0.00  0.00    +0.000 A 
ATOM      6  C   UNL     1      48.630   7.235  12.759  0.00  0.00    +0.000 A 
ATOM      7  N   UNL     1      48.571   5.993  13.306  0.00  0.00    +0.000 NA
ATOM      8  C   UNL     1      47.362   5.388  13.254  0.00  0.00    +0.000 A 
BRANCH   6   9
ATOM      9  C   UNL     1      49.968   7.906  12.794  0.00  0.00    +0.000 C 
ATOM     10  N   UNL     1      50.733   7.622  13.894  0.00  0.00    +0.000 N 
ATOM     11  O   UNL     1      50.360   8.654  11.908  0.00  0.00    +0.000 OA
ATOM     12  H   UNL     1      50.369   6.994  14.604  0.00  0.00    +0.000 HD
ATOM     13  H   UNL     1      51.649   8.034  13.991  0.00  0.00    +0.000 HD
ENDBRANCH   6   9
ENDBRANCH   1   3
BRANCH   1  14
ATOM     14  C   UNL     1      44.115   4.867  11.596  0.00  0.00    +0.000 C 
ATOM     15  C   UNL     1      42.639   4.560  11.764  0.00  0.00    +0.000 C 
ATOM     16  C   UNL     1      43.039   5.943  11.387  0.00  0.00    +0.000 C 
BRANCH  14  20
ATOM     17  C   UNL     1      45.902   3.397   7.900  0.00  0.00    +0.000 A 
ATOM     18  C   UNL     1      45.292   2.501   8.779  0.00  0.00    +0.000 A 
ATOM     19  C   UNL     1      44.748   2.964   9.987  0.00  0.00    +0.000 A 
ATOM     20  C   UNL     1      44.813   4.322  10.344  0.00  0.00    +0.000 A 
ATOM     21  C   UNL     1      45.508   5.180   9.484  0.00  0.00    +0.000 A 
ATOM     22  C   UNL     1      46.029   4.737   8.264  0.00  0.00    +0.000 A 
BRANCH  17  24
ATOM     23  N   UNL     1      46.776   2.605   5.589  0.00  0.00    +0.000 NA
ATOM     24  C   UNL     1      46.385   2.949   6.631  0.00  0.00    +0.000 C 
ENDBRANCH  17  24
ENDBRANCH  14  20
ENDBRANCH   1  14
TORSDOF 5
ENDMDL
MODEL 5
REMARK VINA RESULT:    -5.466      3.082      5.416
REMARK INTER + INTRA:          -7.755
REMARK INTER:                  -7.466
REMARK INTRA:                  -0.289
REMARK UNBOUND:                -0.692
REMARK  Name = 
REMARK  5 active torsions:
REMARK  status: ('A' for Active; 'I' for Inactive)
REMARK    1  A    between atoms: C_2  and  C_3
REMARK    2  A    between atoms: C_6  and  C_7
REMARK    3  A    between atoms: C_7  and  N_8
REMARK    4  A    between atoms: N_8  and  C_9
REMARK    5  A    between atoms: C_12  and  C_13
REMARK                            x       y       z     vdW  Elec       q    Type
REMARK                         _______ _______ _______ _____ _____    ______ ____
ROOT
ATOM      1  N   UNL     1      46.945   6.953  13.756  0.00  0.00    +0.000 N 
ATOM      2  H   UNL     1      46.361   7.638  14.221  0.00  0.00    +0.000 HD
ENDROOT
BRANCH   1   3
ATOM      3  C   UNL     1      46.244   6.010  12.993  0.00  0.00    +0.000 A 
ATOM      4  C   UNL     1      45.928   6.154  11.645  0.00  0.00    +0.000 A 
ATOM      5  C   UNL     1      45.220   5.147  10.978  0.00  0.00    +0.000 A 
ATOM      6  C   UNL     1      44.868   4.003  11.684  0.00  0.00    +0.000 A 
ATOM      7  N   UNL     1      45.183   3.798  12.989  0.00  0.00    +0.000 NA
ATOM      8  C   UNL     1      45.863   4.801  13.591  0.00  0.00    +0.000 A 
BRANCH   6   9
ATOM      9  C   UNL     1      44.099   2.908  11.014  0.00  0.00    +0.000 C 
ATOM     10  N   UNL     1      44.727   2.325   9.944  0.00  0.00    +0.000 N 
ATOM     11  O   UNL     1      42.989   2.550  11.387  0.00  0.00    +0.000 OA
ATOM     12  H   UNL     1      45.648   2.652   9.671  0.00  0.00    +0.000 HD
ATOM     13  H   UNL     1      44.274   1.578   9.440  0.00  0.00    +0.000 HD
ENDBRANCH   6   9
ENDBRANCH   1   3
BRANCH   1  14
ATOM     14  C   UNL     1      48.393   7.154  13.837  0.00  0.00    +0.000 C 
ATOM     15  C   UNL     1      49.303   7.264  12.629  0.00  0.00    +0.000 C 
ATOM     16  C   UNL     1      48.845   8.516  13.290  0.00  0.00    +0.000 C 
BRANCH  14  20
ATOM     17  C   UNL     1      50.295   5.637  17.456  0.00  0.00    +0.000 A 
ATOM     18  C   UNL     1      48.955   5.340  17.201  0.00  0.00    +0.000 A 
ATOM     19  C   UNL     1      48.328   5.856  16.056  0.00  0.00    +0.000 A 
ATOM     20  C   UNL     1      49.020   6.685  15.155  0.00  0.00    +0.000 A 
ATOM     21  C   UNL     1      50.334   7.035  15.485  0.00  0.00    +0.000 A 
ATOM     22  C   UNL     1      50.980   6.504  16.606  0.00  0.00    +0.000 A 
BRANCH  17  24
ATOM     23  N   UNL     1      51.498   4.583  19.499  0.00  0.00    +0.000 NA
ATOM     24  C   UNL     1      50.965   5.049  18.574  0.00  0.00    +0.000 C 
ENDBRANCH  17  24
ENDBRANCH  14  20
ENDBRANCH   1  14
TORSDOF 5
ENDMDL
MODEL 6
REMARK VINA RESULT:    -5.440      3.473      5.180
REMARK INTER + INTRA:          -7.722
REMARK INTER:                  -7.234
REMARK INTRA:                  -0.488
REMARK UNBOUND:                -0.692
REMARK  Name = 
REMARK  5 active torsions:
REMARK  status: ('A' for Active; 'I' for Inactive)
REMARK    1  A    between atoms: C_2  and  C_3
REMARK    2  A    between atoms: C_6  and  C_7
REMARK    3  A    between atoms: C_7  and  N_8
REMARK    4  A    between atoms: N_8  and  C_9
REMARK    5  A    between atoms: C_12  and  C_13
REMARK                            x       y       z     vdW  Elec       q    Type
REMARK                         _______ _______ _______ _____ _____    ______ ____
ROOT
ATOM      1  N   UNL     1      47.514   6.567  13.264  0.00  0.00    +0.000 N 
ATOM      2  H   UNL     1      48.028   6.154  14.034  0.00  0.00    +0.000 HD
ENDROOT
BRANCH   1   3
ATOM      3  C   UNL     1      46.631   5.693  12.616  0.00  0.00    +0.000 A 
ATOM      4  C   UNL     1      46.075   5.912  11.359  0.00  0.00    +0.000 A 
ATOM      5  C   UNL     1      45.201   4.969  10.805  0.00  0.00    +0.000 A 
ATOM      6  C   UNL     1      44.926   3.813  11.525  0.00  0.00    +0.000 A 
ATOM      7  N   UNL     1      45.469   3.536  12.739  0.00  0.00    +0.000 NA
ATOM      8  C   UNL     1      46.304   4.478  13.234  0.00  0.00    +0.000 A 
BRANCH   6   9
ATOM      9  C   UNL     1      43.985   2.786  10.976  0.00  0.00    +0.000 C 
ATOM     10  N   UNL     1      44.411   2.157   9.835  0.00  0.00    +0.000 N 
ATOM     11  O   UNL     1      42.912   2.518  11.502  0.00  0.00    +0.000 OA
ATOM     12  H   UNL     1      45.309   2.409   9.435  0.00  0.00    +0.000 HD
ATOM     13  H   UNL     1      43.834   1.451   9.404  0.00  0.00    +0.000 HD
ENDBRANCH   6   9
ENDBRANCH   1   3
BRANCH   1  14
ATOM     14  C   UNL     1      47.666   8.010  13.065  0.00  0.00    +0.000 C 
ATOM     15  C   UNL     1      46.530   9.007  13.182  0.00  0.00    +0.000 C 
ATOM     16  C   UNL     1      47.438   8.824  14.347  0.00  0.00    +0.000 C 
BRANCH  14  20
ATOM     17  C   UNL     1      51.216   9.118  10.788  0.00  0.00    +0.000 A 
ATOM     18  C   UNL     1      50.273  10.092  11.117  0.00  0.00    +0.000 A 
ATOM     19  C   UNL     1      49.110   9.734  11.818  0.00  0.00    +0.000 A 
ATOM     20  C   UNL     1      48.864   8.401  12.191  0.00  0.00    +0.000 A 
ATOM     21  C   UNL     1      49.785   7.436  11.769  0.00  0.00    +0.000 A 
ATOM     22  C   UNL     1      50.961   7.783  11.096  0.00  0.00    +0.000 A 
BRANCH  17  24
ATOM     23  N   UNL     1      53.426   9.791   9.607  0.00  0.00    +0.000 NA
ATOM     24  C   UNL     1      52.441   9.486  10.147  0.00  0.00    +0.000 C 
ENDBRANCH  17  24
ENDBRANCH  14  20
ENDBRANCH   1  14
TORSDOF 5
ENDMDL
MODEL 7
REMARK VINA RESULT:    -5.111      3.377      5.301
REMARK INTER + INTRA:          -7.297
REMARK INTER:                  -6.709
REMARK INTRA:                  -0.587
REMARK UNBOUND:                -0.692
REMARK  Name = 
REMARK  5 active torsions:
REMARK  status: ('A' for Active; 'I' for Inactive)
REMARK    1  A    between atoms: C_2  and  C_3
REMARK    2  A    between atoms: C_6  and  C_7
REMARK    3  A    between atoms: C_7  and  N_8
REMARK    4  A    between atoms: N_8  and  C_9
REMARK    5  A    between atoms: C_12  and  C_13
REMARK                            x       y       z     vdW  Elec       q    Type
REMARK                         _______ _______ _______ _____ _____    ______ ____
ROOT
ATOM      1  N   UNL     1      46.576   7.834  12.593  0.00  0.00    +0.000 N 
ATOM      2  H   UNL     1      45.963   8.636  12.685  0.00  0.00    +0.000 HD
ENDROOT
BRANCH   1   3
ATOM      3  C   UNL     1      45.937   6.655  12.189  0.00  0.00    +0.000 A 
ATOM      4  C   UNL     1      45.682   6.301  10.867  0.00  0.00    +0.000 A 
ATOM      5  C   UNL     1      45.033   5.095  10.576  0.00  0.00    +0.000 A 
ATOM      6  C   UNL     1      44.678   4.260  11.628  0.00  0.00    +0.000 A 
ATOM      7  N   UNL     1      44.936   4.542  12.932  0.00  0.00    +0.000 NA
ATOM      8  C   UNL     1      45.559   5.720  13.163  0.00  0.00    +0.000 A 
BRANCH   6   9
ATOM      9  C   UNL     1      43.970   2.968  11.362  0.00  0.00    +0.000 C 
ATOM     10  N   UNL     1      43.614   2.258  12.479  0.00  0.00    +0.000 N 
ATOM     11  O   UNL     1      43.723   2.565  10.233  0.00  0.00    +0.000 OA
ATOM     12  H   UNL     1      43.838   2.631  13.396  0.00  0.00    +0.000 HD
ATOM     13  H   UNL     1      43.133   1.377  12.384  0.00  0.00    +0.000 HD
ENDBRANCH   6   9
ENDBRANCH   1   3
BRANCH   1  14
ATOM     14  C   UNL     1      48.012   8.078  12.745  0.00  0.00    +0.000 C 
ATOM     15  C   UNL     1      49.032   7.849  11.648  0.00  0.00    +0.000 C 
ATOM     16  C   UNL     1      48.525   9.231  11.870  0.00  0.00    +0.000 C 
BRANCH  14  20
ATOM     17  C   UNL     1      49.579   8.120  16.814  0.00  0.00    +0.000 A 
ATOM     18  C   UNL     1      50.010   7.142  15.916  0.00  0.00    +0.000 A 
ATOM     19  C   UNL     1      49.481   7.102  14.616  0.00  0.00    +0.000 A 
ATOM     20  C   UNL     1      48.508   8.026  14.195  0.00  0.00    +0.000 A 
ATOM     21  C   UNL     1      48.033   8.936  15.146  0.00  0.00    +0.000 A 
ATOM     22  C   UNL     1      48.572   9.006  16.434  0.00  0.00    +0.000 A 
BRANCH  17  24
ATOM     23  N   UNL     1      50.665   8.319  19.162  0.00  0.00    +0.000 NA
ATOM     24  C   UNL     1      50.172   8.220  18.112  0.00  0.00    +0.000 C 
ENDBRANCH  17  24
ENDBRANCH  14  20
ENDBRANCH   1  14
TORSDOF 5
ENDMDL
MODEL 8
REMARK VINA RESULT:    -4.931      4.088      6.318
REMARK INTER + INTRA:          -7.063
REMARK INTER:                  -6.589
REMARK INTRA:                  -0.474
REMARK UNBOUND:                -0.692
REMARK  Name = 
REMARK  5 active torsions:
REMARK  status: ('A' for Active; 'I' for Inactive)
REMARK    1  A    between atoms: C_2  and  C_3
REMARK    2  A    between atoms: C_6  and  C_7
REMARK    3  A    between atoms: C_7  and  N_8
REMARK    4  A    between atoms: N_8  and  C_9
REMARK    5  A    between atoms: C_12  and  C_13
REMARK                            x       y       z     vdW  Elec       q    Type
REMARK                         _______ _______ _______ _____ _____    ______ ____
ROOT
ATOM      1  N   UNL     1      48.018   4.782  15.338  0.00  0.00    +0.000 N 
ATOM      2  H   UNL     1      48.945   5.019  15.002  0.00  0.00    +0.000 HD
ENDROOT
BRANCH   1   3
ATOM      3  C   UNL     1      47.047   4.663  14.336  0.00  0.00    +0.000 A 
ATOM      4  C   UNL     1      46.353   5.729  13.770  0.00  0.00    +0.000 A 
ATOM      5  C   UNL     1      45.399   5.495  12.772  0.00  0.00    +0.000 A 
ATOM      6  C   UNL     1      45.185   4.189  12.350  0.00  0.00    +0.000 A 
ATOM      7  N   UNL     1      45.861   3.118  12.844  0.00  0.00    +0.000 NA
ATOM      8  C   UNL     1      46.768   3.394  13.809  0.00  0.00    +0.000 A 
BRANCH   6   9
ATOM      9  C   UNL     1      44.165   3.892  11.295  0.00  0.00    +0.000 C 
ATOM     10  N   UNL     1      42.973   3.400  11.759  0.00  0.00    +0.000 N 
ATOM     11  O   UNL     1      44.370   4.073  10.102  0.00  0.00    +0.000 OA
ATOM     12  H   UNL     1      42.846   3.268  12.757  0.00  0.00    +0.000 HD
ATOM     13  H   UNL     1      42.234   3.177  11.111  0.00  0.00    +0.000 HD
ENDBRANCH   6   9
ENDBRANCH   1   3
BRANCH   1  14
ATOM     14  C   UNL     1      47.892   4.463  16.762  0.00  0.00    +0.000 C 
ATOM     15  C   UNL     1      47.212   3.217  17.295  0.00  0.00    +0.000 C 
ATOM     16  C   UNL     1      48.696   3.222  17.177  0.00  0.00    +0.000 C 
BRANCH  14  20
ATOM     17  C   UNL     1      47.854   7.999  19.314  0.00  0.00    +0.000 A 
ATOM     18  C   UNL     1      48.579   8.013  18.122  0.00  0.00    +0.000 A 
ATOM     19  C   UNL     1      48.625   6.865  17.315  0.00  0.00    +0.000 A 
ATOM     20  C   UNL     1      47.960   5.684  17.688  0.00  0.00    +0.000 A 
ATOM     21  C   UNL     1      47.316   5.674  18.930  0.00  0.00    +0.000 A 
ATOM     22  C   UNL     1      47.238   6.819  19.729  0.00  0.00    +0.000 A 
BRANCH  17  24
ATOM     23  N   UNL     1      47.649  10.165  20.727  0.00  0.00    +0.000 NA
ATOM     24  C   UNL     1      47.734   9.187  20.101  0.00  0.00    +0.000 C 
ENDBRANCH  17  24
ENDBRANCH  14  20
ENDBRANCH   1  14
TORSDOF 5
ENDMDL
