MODEL 1
REMARK VINA RESULT:    -8.276      0.000      0.000
REMARK INTER + INTRA:         -12.326
REMARK INTER:                 -11.179
REMARK INTRA:                  -1.147
REMARK UNBOUND:                -1.147
REMARK  Name = 
REMARK  6 active torsions:
REMARK  status: ('A' for Active; 'I' for Inactive)
REMARK    1  A    between atoms: C_2  and  C_25
REMARK    2  A    between atoms: N_3  and  C_4
REMARK    3  A    between atoms: C_4  and  C_5
REMARK    4  A    between atoms: C_8  and  C_9
REMARK    5  A    between atoms: C_9  and  N_10
REMARK    6  A    between atoms: C_11  and  C_13
REMARK                            x       y       z     vdW  Elec       q    Type
REMARK                         _______ _______ _______ _____ _____    ______ ____
ROOT
ATOM      1  C   UNL     1      44.860   5.322  10.633  0.00  0.00    +0.000 A 
ATOM      2  C   UNL     1      44.305   5.591  11.892  0.00  0.00    +0.000 A 
ATOM      3  C   UNL     1      44.949   6.452  12.789  0.00  0.00    +0.000 A 
ATOM      4  C   UNL     1      46.151   7.081  12.439  0.00  0.00    +0.000 A 
ATOM      5  C   UNL     1      46.706   6.810  11.181  0.00  0.00    +0.000 A 
ATOM      6  C   UNL     1      46.062   5.950  10.283  0.00  0.00    +0.000 A 
ENDROOT
BRANCH   1   7
ATOM      7  C   UNL     1      44.181   4.362   9.689  0.00  0.00    +0.000 C 
BRANCH   7  10
ATOM      8  O   UNL     1      45.592   1.979   9.477  0.00  0.00    +0.000 OA
ATOM      9  C   UNL     1      45.674   2.786   8.554  0.00  0.00    +0.000 C 
ATOM     10  N   UNL     1      45.019   3.995   8.572  0.00  0.00    +0.000 N 
ATOM     11  H   UNL     1      44.969   4.549   7.727  0.00  0.00    +0.000 HD
BRANCH   9  12
ATOM     12  C   UNL     1      46.456   2.523   7.375  0.00  0.00    +0.000 A 
ATOM     13  C   UNL     1      46.566   3.161   6.153  0.00  0.00    +0.000 A 
ATOM     14  C   UNL     1      47.526   2.422   5.436  0.00  0.00    +0.000 A 
ATOM     15  N   UNL     1      47.993   1.387   6.134  0.00  0.00    +0.000 NA
ATOM     16  N   UNL     1      47.338   1.477   7.307  0.00  0.00    +0.000 N 
ATOM     17  H   UNL     1      47.534   0.792   8.032  0.00  0.00    +0.000 HD
ENDBRANCH   9  12
ENDBRANCH   7  10
ENDBRANCH   1   7
BRANCH   4  18
ATOM     18  C   UNL     1      46.847   8.017  13.396  0.00  0.00    +0.000 C 
BRANCH  18  19
ATOM     19  N   UNL     1      47.331   7.330  14.568  0.00  0.00    +0.000 N 
ATOM     20  C   UNL     1      48.604   6.815  14.606  0.00  0.00    +0.000 C 
ATOM     21  O   UNL     1      49.386   6.952  13.669  0.00  0.00    +0.000 OA
ATOM     22  H   UNL     1      46.639   7.000  15.234  0.00  0.00    +0.000 HD
BRANCH  20  23
ATOM     23  C   UNL     1      49.012   6.148  15.849  0.00  0.00    +0.000 A 
ATOM     24  C   UNL     1      50.119   6.614  16.548  0.00  0.00    +0.000 A 
ATOM     25  S   UNL     1      50.423   5.762  17.995  0.00  0.00    +0.000 S 
ATOM     26  C   UNL     1      49.119   4.706  17.711  0.00  0.00    +0.000 A 
ATOM     27  N   UNL     1      48.835   3.698  18.577  0.00  0.00    +0.000 NA
ATOM     28  C   UNL     1      47.842   2.953  18.222  0.00  0.00    +0.000 A 
ATOM     29  N   UNL     1      47.103   3.130  17.081  0.00  0.00    +0.000 N 
ATOM     30  C   UNL     1      47.334   4.153  16.191  0.00  0.00    +0.000 A 
ATOM     31  O   UNL     1      46.628   4.310  15.201  0.00  0.00    +0.000 OA
ATOM     32  C   UNL     1      48.450   5.011  16.539  0.00  0.00    +0.000 A 
ATOM     33  H   UNL     1      46.332   2.517  16.865  0.00  0.00    +0.000 HD
ENDBRANCH  20  23
ENDBRANCH  18  19
ENDBRANCH   4  18
TORSDOF 6
ENDMDL
MODEL 2
REMARK VINA RESULT:    -7.524      1.501      1.641
REMARK INTER + INTRA:         -11.309
REMARK INTER:                 -10.434
REMARK INTRA:                  -0.875
REMARK UNBOUND:                -1.147
REMARK  Name = 
REMARK  6 active torsions:
REMARK  status: ('A' for Active; 'I' for Inactive)
REMARK    1  A    between atoms: C_2  and  C_25
REMARK    2  A    between atoms: N_3  and  C_4
REMARK    3  A    between atoms: C_4  and  C_5
REMARK    4  A    between atoms: C_8  and  C_9
REMARK    5  A    between atoms: C_9  and  N_10
REMARK    6  A    between atoms: C_11  and  C_13
REMARK                            x       y       z     vdW  Elec       q    Type
REMARK                         _______ _______ _______ _____ _____    ______ ____
ROOT
ATOM      1  C   UNL     1      44.686   5.501  11.177  0.00  0.00    +0.000 A 
ATOM      2  C   UNL     1      44.556   6.896  11.204  0.00  0.00    +0.000 A 
ATOM      3  C   UNL     1      45.360   7.675  12.046  0.00  0.00    +0.000 A 
ATOM      4  C   UNL     1      46.327   7.077  12.863  0.00  0.00    +0.000 A 
ATOM      5  C   UNL     1      46.456   5.682  12.838  0.00  0.00    +0.000 A 
ATOM      6  C   UNL     1      45.654   4.903  11.995  0.00  0.00    +0.000 A 
ENDROOT
BRANCH   1   7
ATOM      7  C   UNL     1      43.790   4.667  10.298  0.00  0.00    +0.000 C 
BRANCH   7  10
ATOM      8  O   UNL     1      45.575   4.959   8.190  0.00  0.00    +0.000 OA
ATOM      9  C   UNL     1      45.367   3.826   8.621  0.00  0.00    +0.000 C 
ATOM     10  N   UNL     1      44.494   3.582   9.656  0.00  0.00    +0.000 N 
ATOM     11  H   UNL     1      44.484   2.672  10.096  0.00  0.00    +0.000 HD
BRANCH   9  12
ATOM     12  C   UNL     1      46.029   2.668   8.083  0.00  0.00    +0.000 A 
ATOM     13  C   UNL     1      46.991   2.500   7.105  0.00  0.00    +0.000 A 
ATOM     14  C   UNL     1      47.241   1.115   7.067  0.00  0.00    +0.000 A 
ATOM     15  N   UNL     1      46.497   0.442   7.944  0.00  0.00    +0.000 NA
ATOM     16  N   UNL     1      45.781   1.405   8.555  0.00  0.00    +0.000 N 
ATOM     17  H   UNL     1      45.132   1.142   9.291  0.00  0.00    +0.000 HD
ENDBRANCH   9  12
ENDBRANCH   7  10
ENDBRANCH   1   7
BRANCH   4  18
ATOM     18  C   UNL     1      47.204   7.909  13.767  0.00  0.00    +0.000 C 
BRANCH  18  19
ATOM     19  N   UNL     1      48.151   7.101  14.496  0.00  0.00    +0.000 N 
ATOM     20  C   UNL     1      48.709   7.555  15.666  0.00  0.00    +0.000 C 
ATOM     21  O   UNL     1      48.398   8.639  16.154  0.00  0.00    +0.000 OA
ATOM     22  H   UNL     1      48.593   6.336  13.995  0.00  0.00    +0.000 HD
BRANCH  20  23
ATOM     23  C   UNL     1      49.649   6.654  16.344  0.00  0.00    +0.000 A 
ATOM     24  C   UNL     1      50.937   7.092  16.630  0.00  0.00    +0.000 A 
ATOM     25  S   UNL     1      51.881   5.944  17.467  0.00  0.00    +0.000 S 
ATOM     26  C   UNL     1      50.622   4.800  17.427  0.00  0.00    +0.000 A 
ATOM     27  N   UNL     1      50.787   3.561  17.963  0.00  0.00    +0.000 NA
ATOM     28  C   UNL     1      49.764   2.784  17.834  0.00  0.00    +0.000 A 
ATOM     29  N   UNL     1      48.588   3.137  17.223  0.00  0.00    +0.000 N 
ATOM     30  C   UNL     1      48.365   4.387  16.695  0.00  0.00    +0.000 A 
ATOM     31  O   UNL     1      47.287   4.685  16.193  0.00  0.00    +0.000 OA
ATOM     32  C   UNL     1      49.491   5.294  16.802  0.00  0.00    +0.000 A 
ATOM     33  H   UNL     1      47.821   2.484  17.164  0.00  0.00    +0.000 HD
ENDBRANCH  20  23
ENDBRANCH  18  19
ENDBRANCH   4  18
TORSDOF 6
ENDMDL
MODEL 3
REMARK VINA RESULT:    -7.435      1.845      2.140
REMARK INTER + INTRA:         -11.190
REMARK INTER:                 -10.420
REMARK INTRA:                  -0.770
REMARK UNBOUND:                -1.147
REMARK  Name = 
REMARK  6 active torsions:
REMARK  status: ('A' for Active; 'I' for Inactive)
REMARK    1  A    between atoms: C_2  and  C_25
REMARK    2  A    between atoms: N_3  and  C_4
REMARK    3  A    between atoms: C_4  and  C_5
REMARK    4  A    between atoms: C_8  and  C_9
REMARK    5  A    between atoms: C_9  and  N_10
REMARK    6  A    between atoms: C_11  and  C_13
REMARK                            x       y       z     vdW  Elec       q    Type
REMARK                         _______ _______ _______ _____ _____    ______ ____
ROOT
ATOM      1  C   UNL     1      45.385   4.836  11.797  0.00  0.00    +0.000 A 
ATOM      2  C   UNL     1      45.567   6.119  11.261  0.00  0.00    +0.000 A 
ATOM      3  C   UNL     1      46.398   7.049  11.898  0.00  0.00    +0.000 A 
ATOM      4  C   UNL     1      47.083   6.711  13.072  0.00  0.00    +0.000 A 
ATOM      5  C   UNL     1      46.899   5.429  13.608  0.00  0.00    +0.000 A 
ATOM      6  C   UNL     1      46.069   4.498  12.972  0.00  0.00    +0.000 A 
ENDROOT
BRANCH   1   7
ATOM      7  C   UNL     1      44.458   3.854  11.128  0.00  0.00    +0.000 C 
BRANCH   7  10
ATOM      8  O   UNL     1      44.827   4.295   8.411  0.00  0.00    +0.000 OA
ATOM      9  C   UNL     1      45.290   3.266   8.899  0.00  0.00    +0.000 C 
ATOM     10  N   UNL     1      45.150   2.957  10.232  0.00  0.00    +0.000 N 
ATOM     11  H   UNL     1      45.690   2.200  10.629  0.00  0.00    +0.000 HD
BRANCH   9  12
ATOM     12  C   UNL     1      46.023   2.309   8.115  0.00  0.00    +0.000 A 
ATOM     13  C   UNL     1      46.863   2.427   7.024  0.00  0.00    +0.000 A 
ATOM     14  C   UNL     1      47.287   1.115   6.739  0.00  0.00    +0.000 A 
ATOM     15  N   UNL     1      46.758   0.221   7.574  0.00  0.00    +0.000 NA
ATOM     16  N   UNL     1      46.007   0.969   8.404  0.00  0.00    +0.000 N 
ATOM     17  H   UNL     1      45.500   0.510   9.155  0.00  0.00    +0.000 HD
ENDBRANCH   9  12
ENDBRANCH   7  10
ENDBRANCH   1   7
BRANCH   4  18
ATOM     18  C   UNL     1      47.987   7.704  13.759  0.00  0.00    +0.000 C 
BRANCH  18  19
ATOM     19  N   UNL     1      47.918   7.594  15.196  0.00  0.00    +0.000 N 
ATOM     20  C   UNL     1      48.963   7.062  15.911  0.00  0.00    +0.000 C 
ATOM     21  O   UNL     1      50.002   6.698  15.366  0.00  0.00    +0.000 OA
ATOM     22  H   UNL     1      46.999   7.656  15.624  0.00  0.00    +0.000 HD
BRANCH  20  23
ATOM     23  C   UNL     1      48.807   7.007  17.370  0.00  0.00    +0.000 A 
ATOM     24  C   UNL     1      48.610   8.182  18.085  0.00  0.00    +0.000 A 
ATOM     25  S   UNL     1      48.394   7.936  19.760  0.00  0.00    +0.000 S 
ATOM     26  C   UNL     1      48.612   6.257  19.596  0.00  0.00    +0.000 A 
ATOM     27  N   UNL     1      48.573   5.438  20.681  0.00  0.00    +0.000 NA
ATOM     28  C   UNL     1      48.787   4.192  20.417  0.00  0.00    +0.000 A 
ATOM     29  N   UNL     1      49.029   3.690  19.164  0.00  0.00    +0.000 N 
ATOM     30  C   UNL     1      49.048   4.475  18.035  0.00  0.00    +0.000 A 
ATOM     31  O   UNL     1      49.226   3.989  16.923  0.00  0.00    +0.000 OA
ATOM     32  C   UNL     1      48.826   5.887  18.280  0.00  0.00    +0.000 A 
ATOM     33  H   UNL     1      49.179   2.703  19.024  0.00  0.00    +0.000 HD
ENDBRANCH  20  23
ENDBRANCH  18  19
ENDBRANCH   4  18
TORSDOF 6
ENDMDL
MODEL 4
REMARK VINA RESULT:    -7.281      1.760      2.463
REMARK INTER + INTRA:         -10.982
REMARK INTER:                 -10.260
REMARK INTRA:                  -0.723
REMARK UNBOUND:                -1.147
REMARK  Name = 
REMARK  6 active torsions:
REMARK  status: ('A' for Active; 'I' for Inactive)
REMARK    1  A    between atoms: C_2  and  C_25
REMARK    2  A    between atoms: N_3  and  C_4
REMARK    3  A    between atoms: C_4  and  C_5
REMARK    4  A    between atoms: C_8  and  C_9
REMARK    5  A    between atoms: C_9  and  N_10
REMARK    6  A    between atoms: C_11  and  C_13
REMARK                            x       y       z     vdW  Elec       q    Type
REMARK                         _______ _______ _______ _____ _____    ______ ____
ROOT
ATOM      1  C   UNL     1      45.135   5.136  10.871  0.00  0.00    +0.000 A 
ATOM      2  C   UNL     1      44.984   4.765  12.214  0.00  0.00    +0.000 A 
ATOM      3  C   UNL     1      45.704   5.416  13.223  0.00  0.00    +0.000 A 
ATOM      4  C   UNL     1      46.576   6.468  12.914  0.00  0.00    +0.000 A 
ATOM      5  C   UNL     1      46.729   6.837  11.570  0.00  0.00    +0.000 A 
ATOM      6  C   UNL     1      46.008   6.188  10.562  0.00  0.00    +0.000 A 
ENDROOT
BRANCH   1   7
ATOM      7  C   UNL     1      44.386   4.404   9.787  0.00  0.00    +0.000 C 
BRANCH   7  10
ATOM      8  O   UNL     1      45.395   1.860   9.311  0.00  0.00    +0.000 OA
ATOM      9  C   UNL     1      45.677   2.754   8.516  0.00  0.00    +0.000 C 
ATOM     10  N   UNL     1      45.232   4.046   8.672  0.00  0.00    +0.000 N 
ATOM     11  H   UNL     1      45.335   4.706   7.913  0.00  0.00    +0.000 HD
BRANCH   9  12
ATOM     12  C   UNL     1      46.488   2.516   7.352  0.00  0.00    +0.000 A 
ATOM     13  C   UNL     1      46.612   3.166   6.138  0.00  0.00    +0.000 A 
ATOM     14  C   UNL     1      47.600   2.450   5.435  0.00  0.00    +0.000 A 
ATOM     15  N   UNL     1      48.071   1.418   6.134  0.00  0.00    +0.000 NA
ATOM     16  N   UNL     1      47.391   1.486   7.294  0.00  0.00    +0.000 N 
ATOM     17  H   UNL     1      47.584   0.798   8.017  0.00  0.00    +0.000 HD
ENDBRANCH   9  12
ENDBRANCH   7  10
ENDBRANCH   1   7
BRANCH   4  18
ATOM     18  C   UNL     1      47.350   7.181  13.995  0.00  0.00    +0.000 C 
BRANCH  18  19
ATOM     19  N   UNL     1      47.970   6.258  14.915  0.00  0.00    +0.000 N 
ATOM     20  C   UNL     1      48.626   6.713  16.032  0.00  0.00    +0.000 C 
ATOM     21  O   UNL     1      48.677   7.909  16.311  0.00  0.00    +0.000 OA
ATOM     22  H   UNL     1      48.147   5.316  14.580  0.00  0.00    +0.000 HD
BRANCH  20  23
ATOM     23  C   UNL     1      49.210   5.698  16.916  0.00  0.00    +0.000 A 
ATOM     24  C   UNL     1      48.376   4.867  17.655  0.00  0.00    +0.000 A 
ATOM     25  S   UNL     1      49.214   3.710  18.588  0.00  0.00    +0.000 S 
ATOM     26  C   UNL     1      50.722   4.314  18.082  0.00  0.00    +0.000 A 
ATOM     27  N   UNL     1      51.882   3.774  18.543  0.00  0.00    +0.000 NA
ATOM     28  C   UNL     1      52.950   4.350  18.103  0.00  0.00    +0.000 A 
ATOM     29  N   UNL     1      52.963   5.415  17.239  0.00  0.00    +0.000 N 
ATOM     30  C   UNL     1      51.818   5.975  16.724  0.00  0.00    +0.000 A 
ATOM     31  O   UNL     1      51.865   6.899  15.920  0.00  0.00    +0.000 OA
ATOM     32  C   UNL     1      50.588   5.370  17.198  0.00  0.00    +0.000 A 
ATOM     33  H   UNL     1      53.835   5.814  16.926  0.00  0.00    +0.000 HD
ENDBRANCH  20  23
ENDBRANCH  18  19
ENDBRANCH   4  18
TORSDOF 6
ENDMDL
MODEL 5
REMARK VINA RESULT:    -7.139      2.571      3.467
REMARK INTER + INTRA:         -10.790
REMARK INTER:                 -10.121
REMARK INTRA:                  -0.669
REMARK UNBOUND:                -1.147
REMARK  Name = 
REMARK  6 active torsions:
REMARK  status: ('A' for Active; 'I' for Inactive)
REMARK    1  A    between atoms: C_2  and  C_25
REMARK    2  A    between atoms: N_3  and  C_4
REMARK    3  A    between atoms: C_4  and  C_5
REMARK    4  A    between atoms: C_8  and  C_9
REMARK    5  A    between atoms: C_9  and  N_10
REMARK    6  A    between atoms: C_11  and  C_13
REMARK                            x       y       z     vdW  Elec       q    Type
REMARK                         _______ _______ _______ _____ _____    ______ ____
ROOT
ATOM      1  C   UNL     1      45.075   4.447  11.209  0.00  0.00    +0.000 A 
ATOM      2  C   UNL     1      45.289   3.307  11.995  0.00  0.00    +0.000 A 
ATOM      3  C   UNL     1      45.954   3.399  13.225  0.00  0.00    +0.000 A 
ATOM      4  C   UNL     1      46.399   4.637  13.705  0.00  0.00    +0.000 A 
ATOM      5  C   UNL     1      46.186   5.777  12.918  0.00  0.00    +0.000 A 
ATOM      6  C   UNL     1      45.521   5.685  11.690  0.00  0.00    +0.000 A 
ENDROOT
BRANCH   1   7
ATOM      7  C   UNL     1      44.394   4.334   9.869  0.00  0.00    +0.000 C 
BRANCH   7  10
ATOM      8  O   UNL     1      44.983   1.749   9.039  0.00  0.00    +0.000 OA
ATOM      9  C   UNL     1      45.534   2.684   8.461  0.00  0.00    +0.000 C 
ATOM     10  N   UNL     1      45.312   3.997   8.806  0.00  0.00    +0.000 N 
ATOM     11  H   UNL     1      45.641   4.736   8.199  0.00  0.00    +0.000 HD
BRANCH   9  12
ATOM     12  C   UNL     1      46.448   2.477   7.369  0.00  0.00    +0.000 A 
ATOM     13  C   UNL     1      46.676   3.157   6.187  0.00  0.00    +0.000 A 
ATOM     14  C   UNL     1      47.728   2.463   5.559  0.00  0.00    +0.000 A 
ATOM     15  N   UNL     1      48.140   1.415   6.272  0.00  0.00    +0.000 NA
ATOM     16  N   UNL     1      47.358   1.452   7.368  0.00  0.00    +0.000 N 
ATOM     17  H   UNL     1      47.489   0.748   8.088  0.00  0.00    +0.000 HD
ENDBRANCH   9  12
ENDBRANCH   7  10
ENDBRANCH   1   7
BRANCH   4  18
ATOM     18  C   UNL     1      47.108   4.747  15.033  0.00  0.00    +0.000 C 
BRANCH  18  19
ATOM     19  N   UNL     1      47.794   6.007  15.177  0.00  0.00    +0.000 N 
ATOM     20  C   UNL     1      48.880   6.125  16.009  0.00  0.00    +0.000 C 
ATOM     21  O   UNL     1      49.330   5.164  16.627  0.00  0.00    +0.000 OA
ATOM     22  H   UNL     1      47.301   6.843  14.878  0.00  0.00    +0.000 HD
BRANCH  20  23
ATOM     23  C   UNL     1      49.523   7.444  16.077  0.00  0.00    +0.000 A 
ATOM     24  C   UNL     1      50.456   7.805  15.111  0.00  0.00    +0.000 A 
ATOM     25  S   UNL     1      51.065   9.387  15.306  0.00  0.00    +0.000 S 
ATOM     26  C   UNL     1      50.146   9.625  16.718  0.00  0.00    +0.000 A 
ATOM     27  N   UNL     1      50.224  10.791  17.414  0.00  0.00    +0.000 NA
ATOM     28  C   UNL     1      49.500  10.824  18.483  0.00  0.00    +0.000 A 
ATOM     29  N   UNL     1      48.699   9.797  18.914  0.00  0.00    +0.000 N 
ATOM     30  C   UNL     1      48.566   8.613  18.228  0.00  0.00    +0.000 A 
ATOM     31  O   UNL     1      47.809   7.731  18.619  0.00  0.00    +0.000 OA
ATOM     32  C   UNL     1      49.371   8.521  17.026  0.00  0.00    +0.000 A 
ATOM     33  H   UNL     1      48.150   9.890  19.755  0.00  0.00    +0.000 HD
ENDBRANCH  20  23
ENDBRANCH  18  19
ENDBRANCH   4  18
TORSDOF 6
ENDMDL
MODEL 6
REMARK VINA RESULT:    -6.601      2.296      2.892
REMARK INTER + INTRA:         -10.063
REMARK INTER:                  -9.099
REMARK INTRA:                  -0.964
REMARK UNBOUND:                -1.147
REMARK  Name = 
REMARK  6 active torsions:
REMARK  status: ('A' for Active; 'I' for Inactive)
REMARK    1  A    between atoms: C_2  and  C_25
REMARK    2  A    between atoms: N_3  and  C_4
REMARK    3  A    between atoms: C_4  and  C_5
REMARK    4  A    between atoms: C_8  and  C_9
REMARK    5  A    between atoms: C_9  and  N_10
REMARK    6  A    between atoms: C_11  and  C_13
REMARK                            x       y       z     vdW  Elec       q    Type
REMARK                         _______ _______ _______ _____ _____    ______ ____
ROOT
ATOM      1  C   UNL     1      45.786   5.441  11.534  0.00  0.00    +0.000 A 
ATOM      2  C   UNL     1      45.027   4.515  12.264  0.00  0.00    +0.000 A 
ATOM      3  C   UNL     1      45.367   4.192  13.583  0.00  0.00    +0.000 A 
ATOM      4  C   UNL     1      46.460   4.803  14.210  0.00  0.00    +0.000 A 
ATOM      5  C   UNL     1      47.220   5.726  13.479  0.00  0.00    +0.000 A 
ATOM      6  C   UNL     1      46.880   6.051  12.161  0.00  0.00    +0.000 A 
ENDROOT
BRANCH   1   7
ATOM      7  C   UNL     1      45.437   5.754  10.101  0.00  0.00    +0.000 C 
BRANCH   7  10
ATOM      8  O   UNL     1      44.232   3.653   8.742  0.00  0.00    +0.000 OA
ATOM      9  C   UNL     1      45.423   3.873   8.532  0.00  0.00    +0.000 C 
ATOM     10  N   UNL     1      46.107   4.885   9.163  0.00  0.00    +0.000 N 
ATOM     11  H   UNL     1      47.028   5.145   8.836  0.00  0.00    +0.000 HD
BRANCH   9  12
ATOM     12  C   UNL     1      46.192   3.093   7.599  0.00  0.00    +0.000 A 
ATOM     13  C   UNL     1      46.692   3.354   6.337  0.00  0.00    +0.000 A 
ATOM     14  C   UNL     1      47.385   2.186   5.965  0.00  0.00    +0.000 A 
ATOM     15  N   UNL     1      47.331   1.245   6.907  0.00  0.00    +0.000 NA
ATOM     16  N   UNL     1      46.614   1.822   7.889  0.00  0.00    +0.000 N 
ATOM     17  H   UNL     1      46.441   1.298   8.743  0.00  0.00    +0.000 HD
ENDBRANCH   9  12
ENDBRANCH   7  10
ENDBRANCH   1   7
BRANCH   4  18
ATOM     18  C   UNL     1      46.829   4.466  15.633  0.00  0.00    +0.000 C 
BRANCH  18  19
ATOM     19  N   UNL     1      48.248   4.576  15.865  0.00  0.00    +0.000 N 
ATOM     20  C   UNL     1      48.736   5.362  16.881  0.00  0.00    +0.000 C 
ATOM     21  O   UNL     1      47.990   5.964  17.649  0.00  0.00    +0.000 OA
ATOM     22  H   UNL     1      48.867   4.295  15.111  0.00  0.00    +0.000 HD
BRANCH  20  23
ATOM     23  C   UNL     1      50.194   5.397  17.049  0.00  0.00    +0.000 A 
ATOM     24  C   UNL     1      50.883   6.584  16.832  0.00  0.00    +0.000 A 
ATOM     25  S   UNL     1      52.560   6.466  17.122  0.00  0.00    +0.000 S 
ATOM     26  C   UNL     1      52.434   4.810  17.494  0.00  0.00    +0.000 A 
ATOM     27  N   UNL     1      53.535   4.079  17.813  0.00  0.00    +0.000 NA
ATOM     28  C   UNL     1      53.300   2.830  18.039  0.00  0.00    +0.000 A 
ATOM     29  N   UNL     1      52.060   2.247  17.981  0.00  0.00    +0.000 N 
ATOM     30  C   UNL     1      50.915   2.952  17.693  0.00  0.00    +0.000 A 
ATOM     31  O   UNL     1      49.815   2.409  17.690  0.00  0.00    +0.000 OA
ATOM     32  C   UNL     1      51.128   4.359  17.417  0.00  0.00    +0.000 A 
ATOM     33  H   UNL     1      51.942   1.265  18.179  0.00  0.00    +0.000 HD
ENDBRANCH  20  23
ENDBRANCH  18  19
ENDBRANCH   4  18
TORSDOF 6
ENDMDL
MODEL 7
REMARK VINA RESULT:    -6.473      2.752      4.089
REMARK INTER + INTRA:          -9.890
REMARK INTER:                  -9.083
REMARK INTRA:                  -0.806
REMARK UNBOUND:                -1.147
REMARK  Name = 
REMARK  6 active torsions:
REMARK  status: ('A' for Active; 'I' for Inactive)
REMARK    1  A    between atoms: C_2  and  C_25
REMARK    2  A    between atoms: N_3  and  C_4
REMARK    3  A    between atoms: C_4  and  C_5
REMARK    4  A    between atoms: C_8  and  C_9
REMARK    5  A    between atoms: C_9  and  N_10
REMARK    6  A    between atoms: C_11  and  C_13
REMARK                            x       y       z     vdW  Elec       q    Type
REMARK                         _______ _______ _______ _____ _____    ______ ____
ROOT
ATOM      1  C   UNL     1      45.071   4.385  11.653  0.00  0.00    +0.000 A 
ATOM      2  C   UNL     1      45.634   3.296  12.333  0.00  0.00    +0.000 A 
ATOM      3  C   UNL     1      46.457   3.495  13.448  0.00  0.00    +0.000 A 
ATOM      4  C   UNL     1      46.717   4.787  13.922  0.00  0.00    +0.000 A 
ATOM      5  C   UNL     1      46.157   5.876  13.241  0.00  0.00    +0.000 A 
ATOM      6  C   UNL     1      45.333   5.677  12.126  0.00  0.00    +0.000 A 
ENDROOT
BRANCH   1   7
ATOM      7  C   UNL     1      44.219   4.164  10.429  0.00  0.00    +0.000 C 
BRANCH   7  10
ATOM      8  O   UNL     1      45.842   5.150   8.402  0.00  0.00    +0.000 OA
ATOM      9  C   UNL     1      45.671   3.934   8.469  0.00  0.00    +0.000 C 
ATOM     10  N   UNL     1      44.879   3.354   9.431  0.00  0.00    +0.000 N 
ATOM     11  H   UNL     1      44.904   2.352   9.563  0.00  0.00    +0.000 HD
BRANCH   9  12
ATOM     12  C   UNL     1      46.296   3.021   7.549  0.00  0.00    +0.000 A 
ATOM     13  C   UNL     1      46.768   3.157   6.257  0.00  0.00    +0.000 A 
ATOM     14  C   UNL     1      47.295   1.896   5.921  0.00  0.00    +0.000 A 
ATOM     15  N   UNL     1      47.168   1.014   6.912  0.00  0.00    +0.000 NA
ATOM     16  N   UNL     1      46.571   1.722   7.890  0.00  0.00    +0.000 N 
ATOM     17  H   UNL     1      46.373   1.265   8.776  0.00  0.00    +0.000 HD
ENDBRANCH   9  12
ENDBRANCH   7  10
ENDBRANCH   1   7
BRANCH   4  18
ATOM     18  C   UNL     1      47.596   5.011  15.128  0.00  0.00    +0.000 C 
BRANCH  18  19
ATOM     19  N   UNL     1      47.910   6.406  15.318  0.00  0.00    +0.000 N 
ATOM     20  C   UNL     1      48.665   6.817  16.388  0.00  0.00    +0.000 C 
ATOM     21  O   UNL     1      49.132   6.019  17.197  0.00  0.00    +0.000 OA
ATOM     22  H   UNL     1      47.342   7.083  14.817  0.00  0.00    +0.000 HD
BRANCH  20  23
ATOM     23  C   UNL     1      48.946   8.255  16.487  0.00  0.00    +0.000 A 
ATOM     24  C   UNL     1      48.065   9.082  17.174  0.00  0.00    +0.000 A 
ATOM     25  S   UNL     1      48.566  10.712  17.240  0.00  0.00    +0.000 S 
ATOM     26  C   UNL     1      49.949  10.380  16.306  0.00  0.00    +0.000 A 
ATOM     27  N   UNL     1      50.817  11.371  15.967  0.00  0.00    +0.000 NA
ATOM     28  C   UNL     1      51.804  10.986  15.229  0.00  0.00    +0.000 A 
ATOM     29  N   UNL     1      52.005   9.697  14.804  0.00  0.00    +0.000 N 
ATOM     30  C   UNL     1      51.171   8.658  15.147  0.00  0.00    +0.000 A 
ATOM     31  O   UNL     1      51.401   7.509  14.786  0.00  0.00    +0.000 OA
ATOM     32  C   UNL     1      50.038   9.042  15.966  0.00  0.00    +0.000 A 
ATOM     33  H   UNL     1      52.803   9.460  14.236  0.00  0.00    +0.000 HD
ENDBRANCH  20  23
ENDBRANCH  18  19
ENDBRANCH   4  18
TORSDOF 6
ENDMDL
MODEL 8
REMARK VINA RESULT:    -6.385      2.575      3.486
REMARK INTER + INTRA:          -9.771
REMARK INTER:                  -9.235
REMARK INTRA:                  -0.536
REMARK UNBOUND:                -1.147
REMARK  Name = 
REMARK  6 active torsions:
REMARK  status: ('A' for Active; 'I' for Inactive)
REMARK    1  A    between atoms: C_2  and  C_25
REMARK    2  A    between atoms: N_3  and  C_4
REMARK    3  A    between atoms: C_4  and  C_5
REMARK    4  A    between atoms: C_8  and  C_9
REMARK    5  A    between atoms: C_9  and  N_10
REMARK    6  A    between atoms: C_11  and  C_13
REMARK                            x       y       z     vdW  Elec       q    Type
REMARK                         _______ _______ _______ _____ _____    ______ ____
ROOT
ATOM      1  C   UNL     1      44.842   4.469  11.080  0.00  0.00    +0.000 A 
ATOM      2  C   UNL     1      44.821   3.389  11.973  0.00  0.00    +0.000 A 
ATOM      3  C   UNL     1      45.483   3.465  13.204  0.00  0.00    +0.000 A 
ATOM      4  C   UNL     1      46.163   4.630  13.580  0.00  0.00    +0.000 A 
ATOM      5  C   UNL     1      46.186   5.709  12.686  0.00  0.00    +0.000 A 
ATOM      6  C   UNL     1      45.523   5.635  11.455  0.00  0.00    +0.000 A 
ENDROOT
BRANCH   1   7
ATOM      7  C   UNL     1      44.160   4.366   9.739  0.00  0.00    +0.000 C 
BRANCH   7  10
ATOM      8  O   UNL     1      46.351   5.260   8.285  0.00  0.00    +0.000 OA
ATOM      9  C   UNL     1      45.985   4.097   8.127  0.00  0.00    +0.000 C 
ATOM     10  N   UNL     1      44.907   3.567   8.796  0.00  0.00    +0.000 N 
ATOM     11  H   UNL     1      44.746   2.569   8.775  0.00  0.00    +0.000 HD
BRANCH   9  12
ATOM     12  C   UNL     1      46.665   3.194   7.236  0.00  0.00    +0.000 A 
ATOM     13  C   UNL     1      47.045   1.870   7.343  0.00  0.00    +0.000 A 
ATOM     14  C   UNL     1      47.651   1.559   6.110  0.00  0.00    +0.000 A 
ATOM     15  N   UNL     1      47.667   2.599   5.278  0.00  0.00    +0.000 NA
ATOM     16  N   UNL     1      47.055   3.573   5.978  0.00  0.00    +0.000 N 
ATOM     17  H   UNL     1      46.930   4.484   5.545  0.00  0.00    +0.000 HD
ENDBRANCH   9  12
ENDBRANCH   7  10
ENDBRANCH   1   7
BRANCH   4  18
ATOM     18  C   UNL     1      46.873   4.723  14.908  0.00  0.00    +0.000 C 
BRANCH  18  19
ATOM     19  N   UNL     1      47.875   5.761  14.915  0.00  0.00    +0.000 N 
ATOM     20  C   UNL     1      48.524   6.104  16.075  0.00  0.00    +0.000 C 
ATOM     21  O   UNL     1      48.309   5.520  17.135  0.00  0.00    +0.000 OA
ATOM     22  H   UNL     1      47.886   6.403  14.128  0.00  0.00    +0.000 HD
BRANCH  20  23
ATOM     23  C   UNL     1      49.539   7.160  15.979  0.00  0.00    +0.000 A 
ATOM     24  C   UNL     1      49.172   8.431  15.554  0.00  0.00    +0.000 A 
ATOM     25  S   UNL     1      50.459   9.551  15.550  0.00  0.00    +0.000 S 
ATOM     26  C   UNL     1      51.565   8.364  16.063  0.00  0.00    +0.000 A 
ATOM     27  N   UNL     1      52.880   8.662  16.236  0.00  0.00    +0.000 NA
ATOM     28  C   UNL     1      53.612   7.660  16.595  0.00  0.00    +0.000 A 
ATOM     29  N   UNL     1      53.144   6.388  16.802  0.00  0.00    +0.000 N 
ATOM     30  C   UNL     1      51.819   6.046  16.668  0.00  0.00    +0.000 A 
ATOM     31  O   UNL     1      51.426   4.909  16.902  0.00  0.00    +0.000 OA
ATOM     32  C   UNL     1      50.956   7.135  16.253  0.00  0.00    +0.000 A 
ATOM     33  H   UNL     1      53.768   5.650  17.091  0.00  0.00    +0.000 HD
ENDBRANCH  20  23
ENDBRANCH  18  19
ENDBRANCH   4  18
TORSDOF 6
ENDMDL
MODEL 9
REMARK VINA RESULT:    -5.962      1.934      2.827
REMARK INTER + INTRA:          -9.200
REMARK INTER:                  -8.185
REMARK INTRA:                  -1.015
REMARK UNBOUND:                -1.147
REMARK  Name = 
REMARK  6 active torsions:
REMARK  status: ('A' for Active; 'I' for Inactive)
REMARK    1  A    between atoms: C_2  and  C_25
REMARK    2  A    between atoms: N_3  and  C_4
REMARK    3  A    between atoms: C_4  and  C_5
REMARK    4  A    between atoms: C_8  and  C_9
REMARK    5  A    between atoms: C_9  and  N_10
REMARK    6  A    between atoms: C_11  and  C_13
REMARK                            x       y       z     vdW  Elec       q    Type
REMARK                         _______ _______ _______ _____ _____    ______ ____
ROOT
ATOM      1  C   UNL     1      46.134   6.939  12.433  0.00  0.00    +0.000 A 
ATOM      2  C   UNL     1      47.282   6.185  12.712  0.00  0.00    +0.000 A 
ATOM      3  C   UNL     1      48.347   6.740  13.431  0.00  0.00    +0.000 A 
ATOM      4  C   UNL     1      48.279   8.055  13.908  0.00  0.00    +0.000 A 
ATOM      5  C   UNL     1      47.132   8.810  13.627  0.00  0.00    +0.000 A 
ATOM      6  C   UNL     1      46.066   8.255  12.909  0.00  0.00    +0.000 A 
ENDROOT
BRANCH   1   7
ATOM      7  C   UNL     1      45.008   6.347  11.624  0.00  0.00    +0.000 C 
BRANCH   7  10
ATOM      8  O   UNL     1      43.329   4.734  10.109  0.00  0.00    +0.000 OA
ATOM      9  C   UNL     1      44.541   4.541  10.035  0.00  0.00    +0.000 C 
ATOM     10  N   UNL     1      45.450   5.282  10.754  0.00  0.00    +0.000 N 
ATOM     11  H   UNL     1      46.435   5.214  10.535  0.00  0.00    +0.000 HD
BRANCH   9  12
ATOM     12  C   UNL     1      45.105   3.528   9.183  0.00  0.00    +0.000 A 
ATOM     13  C   UNL     1      45.121   2.147   9.240  0.00  0.00    +0.000 A 
ATOM     14  C   UNL     1      45.815   1.737   8.086  0.00  0.00    +0.000 A 
ATOM     15  N   UNL     1      46.220   2.769   7.346  0.00  0.00    +0.000 NA
ATOM     16  N   UNL     1      45.769   3.841   8.025  0.00  0.00    +0.000 N 
ATOM     17  H   UNL     1      45.943   4.769   7.650  0.00  0.00    +0.000 HD
ENDBRANCH   9  12
ENDBRANCH   7  10
ENDBRANCH   1   7
BRANCH   4  18
ATOM     18  C   UNL     1      49.418   8.659  14.691  0.00  0.00    +0.000 C 
BRANCH  18  19
ATOM     19  N   UNL     1      49.545   8.072  16.002  0.00  0.00    +0.000 N 
ATOM     20  C   UNL     1      50.659   7.345  16.343  0.00  0.00    +0.000 C 
ATOM     21  O   UNL     1      51.601   7.202  15.566  0.00  0.00    +0.000 OA
ATOM     22  H   UNL     1      48.697   7.972  16.552  0.00  0.00    +0.000 HD
BRANCH  20  23
ATOM     23  C   UNL     1      50.705   6.801  17.705  0.00  0.00    +0.000 A 
ATOM     24  C   UNL     1      51.745   7.158  18.554  0.00  0.00    +0.000 A 
ATOM     25  S   UNL     1      51.618   6.481  20.116  0.00  0.00    +0.000 S 
ATOM     26  C   UNL     1      50.198   5.643  19.695  0.00  0.00    +0.000 A 
ATOM     27  N   UNL     1      49.572   4.835  20.592  0.00  0.00    +0.000 NA
ATOM     28  C   UNL     1      48.526   4.235  20.131  0.00  0.00    +0.000 A 
ATOM     29  N   UNL     1      48.046   4.376  18.854  0.00  0.00    +0.000 N 
ATOM     30  C   UNL     1      48.627   5.205  17.923  0.00  0.00    +0.000 A 
ATOM     31  O   UNL     1      48.148   5.341  16.803  0.00  0.00    +0.000 OA
ATOM     32  C   UNL     1      49.816   5.892  18.389  0.00  0.00    +0.000 A 
ATOM     33  H   UNL     1      47.215   3.886  18.558  0.00  0.00    +0.000 HD
ENDBRANCH  20  23
ENDBRANCH  18  19
ENDBRANCH   4  18
TORSDOF 6
ENDMDL
