MODEL 1
REMARK VINA RESULT:    -8.006      0.000      0.000
REMARK INTER + INTRA:         -12.571
REMARK INTER:                 -11.282
REMARK INTRA:                  -1.289
REMARK UNBOUND:                -1.289
REMARK  Name = 
REMARK  8 active torsions:
REMARK  status: ('A' for Active; 'I' for Inactive)
REMARK    1  A    between atoms: C_1  and  O_2
REMARK    2  A    between atoms: O_2  and  C_3
REMARK    3  A    between atoms: C_5  and  C_6
REMARK    4  A    between atoms: C_6  and  N_7
REMARK    5  A    between atoms: C_8  and  C_10
REMARK    6  A    between atoms: C_22  and  C_23
REMARK    7  A    between atoms: C_23  and  N_24
REMARK    8  A    between atoms: N_24  and  C_25
REMARK                            x       y       z     vdW  Elec       q    Type
REMARK                         _______ _______ _______ _____ _____    ______ ____
ROOT
ATOM      1  C   UNL     1      44.255   5.454  12.035  0.00  0.00    +0.000 A 
ATOM      2  C   UNL     1      44.929   6.400  12.819  0.00  0.00    +0.000 A 
ATOM      3  C   UNL     1      46.093   7.013  12.352  0.00  0.00    +0.000 A 
ATOM      4  C   UNL     1      46.554   6.619  11.104  0.00  0.00    +0.000 A 
ATOM      5  N   UNL     1      45.923   5.729  10.304  0.00  0.00    +0.000 NA
ATOM      6  C   UNL     1      44.778   5.149  10.770  0.00  0.00    +0.000 A 
ENDROOT
BRANCH   1   8
ATOM      7  C   UNL     1      43.391   3.603  13.230  0.00  0.00    +0.000 C 
ATOM      8  O   UNL     1      43.144   4.775  12.461  0.00  0.00    +0.000 OA
ENDBRANCH   1   8
BRANCH   3   9
ATOM      9  C   UNL     1      46.856   8.003  13.184  0.00  0.00    +0.000 C 
BRANCH   9  10
ATOM     10  N   UNL     1      47.363   7.393  14.382  0.00  0.00    +0.000 N 
ATOM     11  C   UNL     1      48.606   6.812  14.436  0.00  0.00    +0.000 C 
ATOM     12  O   UNL     1      49.367   6.807  13.477  0.00  0.00    +0.000 OA
ATOM     13  H   UNL     1      46.682   7.154  15.097  0.00  0.00    +0.000 HD
BRANCH  11  14
ATOM     14  C   UNL     1      48.995   6.259  15.739  0.00  0.00    +0.000 A 
ATOM     15  C   UNL     1      50.036   6.832  16.455  0.00  0.00    +0.000 A 
ATOM     16  S   UNL     1      50.308   6.098  17.973  0.00  0.00    +0.000 S 
ATOM     17  C   UNL     1      49.082   4.950  17.701  0.00  0.00    +0.000 A 
ATOM     18  N   UNL     1      48.809   3.983  18.617  0.00  0.00    +0.000 NA
ATOM     19  C   UNL     1      47.872   3.164  18.270  0.00  0.00    +0.000 A 
ATOM     20  N   UNL     1      47.177   3.227  17.091  0.00  0.00    +0.000 N 
ATOM     21  C   UNL     1      47.398   4.204  16.150  0.00  0.00    +0.000 A 
ATOM     22  O   UNL     1      46.725   4.266  15.126  0.00  0.00    +0.000 OA
ATOM     23  C   UNL     1      48.456   5.141  16.482  0.00  0.00    +0.000 A 
ATOM     24  H   UNL     1      46.439   2.569  16.884  0.00  0.00    +0.000 HD
ENDBRANCH  11  14
ENDBRANCH   9  10
ENDBRANCH   3   9
BRANCH   6  25
ATOM     25  C   UNL     1      44.131   4.127   9.843  0.00  0.00    +0.000 C 
BRANCH  25  26
ATOM     26  N   UNL     1      44.232   4.450   8.408  0.00  0.00    +0.000 NA
ATOM     27  H   UNL     1      44.707   5.345   8.320  0.00  0.00    +0.000 HD
BRANCH  26  28
ATOM     28  C   UNL     1      44.988   3.429   7.705  0.00  0.00    +0.000 C 
ATOM     29  C   UNL     1      45.432   2.308   8.634  0.00  0.00    +0.000 C 
ATOM     30  C   UNL     1      46.558   1.697   7.836  0.00  0.00    +0.000 C 
ATOM     31  C   UNL     1      47.208   2.922   7.227  0.00  0.00    +0.000 C 
ATOM     32  O   UNL     1      46.198   3.939   7.133  0.00  0.00    +0.000 OA
ENDBRANCH  26  28
ENDBRANCH  25  26
ENDBRANCH   6  25
TORSDOF 7
ENDMDL
MODEL 2
REMARK VINA RESULT:    -7.453      1.962      2.260
REMARK INTER + INTRA:         -11.792
REMARK INTER:                 -11.036
REMARK INTRA:                  -0.756
REMARK UNBOUND:                -1.289
REMARK  Name = 
REMARK  8 active torsions:
REMARK  status: ('A' for Active; 'I' for Inactive)
REMARK    1  A    between atoms: C_1  and  O_2
REMARK    2  A    between atoms: O_2  and  C_3
REMARK    3  A    between atoms: C_5  and  C_6
REMARK    4  A    between atoms: C_6  and  N_7
REMARK    5  A    between atoms: C_8  and  C_10
REMARK    6  A    between atoms: C_22  and  C_23
REMARK    7  A    between atoms: C_23  and  N_24
REMARK    8  A    between atoms: N_24  and  C_25
REMARK                            x       y       z     vdW  Elec       q    Type
REMARK                         _______ _______ _______ _____ _____    ______ ____
ROOT
ATOM      1  C   UNL     1      44.780   5.158  11.726  0.00  0.00    +0.000 A 
ATOM      2  C   UNL     1      45.728   6.087  12.175  0.00  0.00    +0.000 A 
ATOM      3  C   UNL     1      46.795   5.682  12.982  0.00  0.00    +0.000 A 
ATOM      4  C   UNL     1      46.846   4.341  13.333  0.00  0.00    +0.000 A 
ATOM      5  N   UNL     1      45.966   3.407  12.903  0.00  0.00    +0.000 NA
ATOM      6  C   UNL     1      44.937   3.816  12.104  0.00  0.00    +0.000 A 
ENDROOT
BRANCH   1   8
ATOM      7  C   UNL     1      42.498   5.784  11.724  0.00  0.00    +0.000 C 
ATOM      8  O   UNL     1      43.681   5.501  10.985  0.00  0.00    +0.000 OA
ENDBRANCH   1   8
BRANCH   3   9
ATOM      9  C   UNL     1      47.806   6.661  13.507  0.00  0.00    +0.000 C 
BRANCH   9  10
ATOM     10  N   UNL     1      47.783   6.711  14.942  0.00  0.00    +0.000 N 
ATOM     11  C   UNL     1      48.934   6.757  15.689  0.00  0.00    +0.000 C 
ATOM     12  O   UNL     1      50.046   6.790  15.176  0.00  0.00    +0.000 OA
ATOM     13  H   UNL     1      46.919   6.431  15.396  0.00  0.00    +0.000 HD
BRANCH  11  14
ATOM     14  C   UNL     1      48.748   6.838  17.144  0.00  0.00    +0.000 A 
ATOM     15  C   UNL     1      48.468   8.058  17.742  0.00  0.00    +0.000 A 
ATOM     16  S   UNL     1      48.221   7.951  19.428  0.00  0.00    +0.000 S 
ATOM     17  C   UNL     1      48.538   6.280  19.427  0.00  0.00    +0.000 A 
ATOM     18  N   UNL     1      48.522   5.560  20.581  0.00  0.00    +0.000 NA
ATOM     19  C   UNL     1      48.805   4.308  20.436  0.00  0.00    +0.000 A 
ATOM     20  N   UNL     1      49.097   3.706  19.240  0.00  0.00    +0.000 N 
ATOM     21  C   UNL     1      49.094   4.387  18.046  0.00  0.00    +0.000 A 
ATOM     22  O   UNL     1      49.309   3.811  16.984  0.00  0.00    +0.000 OA
ATOM     23  C   UNL     1      48.801   5.805  18.154  0.00  0.00    +0.000 A 
ATOM     24  H   UNL     1      49.290   2.716  19.187  0.00  0.00    +0.000 HD
ENDBRANCH  11  14
ENDBRANCH   9  10
ENDBRANCH   3   9
BRANCH   6  25
ATOM     25  C   UNL     1      43.956   2.728  11.682  0.00  0.00    +0.000 C 
BRANCH  25  26
ATOM     26  N   UNL     1      43.815   2.563  10.224  0.00  0.00    +0.000 NA
ATOM     27  H   UNL     1      43.146   3.253   9.892  0.00  0.00    +0.000 HD
BRANCH  26  28
ATOM     28  C   UNL     1      45.090   2.765   9.560  0.00  0.00    +0.000 C 
ATOM     29  C   UNL     1      44.954   3.642   8.322  0.00  0.00    +0.000 C 
ATOM     30  C   UNL     1      46.219   3.291   7.577  0.00  0.00    +0.000 C 
ATOM     31  C   UNL     1      46.336   1.805   7.845  0.00  0.00    +0.000 C 
ATOM     32  O   UNL     1      45.663   1.541   9.086  0.00  0.00    +0.000 OA
ENDBRANCH  26  28
ENDBRANCH  25  26
ENDBRANCH   6  25
TORSDOF 7
ENDMDL
MODEL 3
REMARK VINA RESULT:    -7.235      2.028      2.439
REMARK INTER + INTRA:         -11.486
REMARK INTER:                 -10.459
REMARK INTRA:                  -1.026
REMARK UNBOUND:                -1.289
REMARK  Name = 
REMARK  8 active torsions:
REMARK  status: ('A' for Active; 'I' for Inactive)
REMARK    1  A    between atoms: C_1  and  O_2
REMARK    2  A    between atoms: O_2  and  C_3
REMARK    3  A    between atoms: C_5  and  C_6
REMARK    4  A    between atoms: C_6  and  N_7
REMARK    5  A    between atoms: C_8  and  C_10
REMARK    6  A    between atoms: C_22  and  C_23
REMARK    7  A    between atoms: C_23  and  N_24
REMARK    8  A    between atoms: N_24  and  C_25
REMARK                            x       y       z     vdW  Elec       q    Type
REMARK                         _______ _______ _______ _____ _____    ______ ____
ROOT
ATOM      1  C   UNL     1      45.251   4.142  11.796  0.00  0.00    +0.000 A 
ATOM      2  C   UNL     1      46.049   4.819  12.728  0.00  0.00    +0.000 A 
ATOM      3  C   UNL     1      46.657   6.033  12.398  0.00  0.00    +0.000 A 
ATOM      4  C   UNL     1      46.455   6.508  11.111  0.00  0.00    +0.000 A 
ATOM      5  N   UNL     1      45.674   5.901  10.188  0.00  0.00    +0.000 NA
ATOM      6  C   UNL     1      45.076   4.722  10.530  0.00  0.00    +0.000 A 
ENDROOT
BRANCH   1   8
ATOM      7  C   UNL     1      43.367   2.951  12.587  0.00  0.00    +0.000 C 
ATOM      8  O   UNL     1      44.679   2.922  12.038  0.00  0.00    +0.000 OA
ENDBRANCH   1   8
BRANCH   3   9
ATOM      9  C   UNL     1      47.546   6.762  13.365  0.00  0.00    +0.000 C 
BRANCH   9  10
ATOM     10  N   UNL     1      47.530   6.136  14.658  0.00  0.00    +0.000 N 
ATOM     11  C   UNL     1      48.629   6.135  15.481  0.00  0.00    +0.000 C 
ATOM     12  O   UNL     1      49.675   6.691  15.176  0.00  0.00    +0.000 OA
ATOM     13  H   UNL     1      46.790   5.462  14.831  0.00  0.00    +0.000 HD
BRANCH  11  14
ATOM     14  C   UNL     1      48.447   5.483  16.785  0.00  0.00    +0.000 A 
ATOM     15  C   UNL     1      48.408   4.099  16.871  0.00  0.00    +0.000 A 
ATOM     16  S   UNL     1      48.254   3.518  18.469  0.00  0.00    +0.000 S 
ATOM     17  C   UNL     1      48.175   5.097  19.097  0.00  0.00    +0.000 A 
ATOM     18  N   UNL     1      48.009   5.316  20.429  0.00  0.00    +0.000 NA
ATOM     19  C   UNL     1      47.941   6.563  20.762  0.00  0.00    +0.000 A 
ATOM     20  N   UNL     1      48.030   7.612  19.886  0.00  0.00    +0.000 N 
ATOM     21  C   UNL     1      48.228   7.438  18.538  0.00  0.00    +0.000 A 
ATOM     22  O   UNL     1      48.354   8.398  17.783  0.00  0.00    +0.000 OA
ATOM     23  C   UNL     1      48.292   6.054  18.105  0.00  0.00    +0.000 A 
ATOM     24  H   UNL     1      47.990   8.568  20.211  0.00  0.00    +0.000 HD
ENDBRANCH  11  14
ENDBRANCH   9  10
ENDBRANCH   3   9
BRANCH   6  25
ATOM     25  C   UNL     1      44.239   4.064   9.439  0.00  0.00    +0.000 C 
BRANCH  25  26
ATOM     26  N   UNL     1      44.573   2.653   9.177  0.00  0.00    +0.000 NA
ATOM     27  H   UNL     1      43.885   2.282   8.527  0.00  0.00    +0.000 HD
BRANCH  26  28
ATOM     28  C   UNL     1      45.898   2.540   8.595  0.00  0.00    +0.000 C 
ATOM     29  C   UNL     1      45.983   3.222   7.236  0.00  0.00    +0.000 C 
ATOM     30  C   UNL     1      47.208   2.559   6.654  0.00  0.00    +0.000 C 
ATOM     31  C   UNL     1      47.053   1.134   7.145  0.00  0.00    +0.000 C 
ATOM     32  O   UNL     1      46.278   1.181   8.353  0.00  0.00    +0.000 OA
ENDBRANCH  26  28
ENDBRANCH  25  26
ENDBRANCH   6  25
TORSDOF 7
ENDMDL
MODEL 4
REMARK VINA RESULT:    -7.182      2.088      3.659
REMARK INTER + INTRA:         -11.410
REMARK INTER:                 -10.227
REMARK INTRA:                  -1.183
REMARK UNBOUND:                -1.289
REMARK  Name = 
REMARK  8 active torsions:
REMARK  status: ('A' for Active; 'I' for Inactive)
REMARK    1  A    between atoms: C_1  and  O_2
REMARK    2  A    between atoms: O_2  and  C_3
REMARK    3  A    between atoms: C_5  and  C_6
REMARK    4  A    between atoms: C_6  and  N_7
REMARK    5  A    between atoms: C_8  and  C_10
REMARK    6  A    between atoms: C_22  and  C_23
REMARK    7  A    between atoms: C_23  and  N_24
REMARK    8  A    between atoms: N_24  and  C_25
REMARK                            x       y       z     vdW  Elec       q    Type
REMARK                         _______ _______ _______ _____ _____    ______ ____
ROOT
ATOM      1  C   UNL     1      45.393   5.546  11.510  0.00  0.00    +0.000 A 
ATOM      2  C   UNL     1      46.004   5.576  12.770  0.00  0.00    +0.000 A 
ATOM      3  C   UNL     1      46.201   4.398  13.495  0.00  0.00    +0.000 A 
ATOM      4  C   UNL     1      45.740   3.222  12.922  0.00  0.00    +0.000 A 
ATOM      5  N   UNL     1      45.167   3.143  11.699  0.00  0.00    +0.000 NA
ATOM      6  C   UNL     1      44.994   4.303  10.997  0.00  0.00    +0.000 A 
ENDROOT
BRANCH   1   8
ATOM      7  C   UNL     1      44.869   7.853  11.530  0.00  0.00    +0.000 C 
ATOM      8  O   UNL     1      45.118   6.670  10.778  0.00  0.00    +0.000 OA
ENDBRANCH   1   8
BRANCH   3   9
ATOM      9  C   UNL     1      46.821   4.404  14.864  0.00  0.00    +0.000 C 
BRANCH   9  10
ATOM     10  N   UNL     1      47.522   5.634  15.110  0.00  0.00    +0.000 N 
ATOM     11  C   UNL     1      48.577   5.709  15.985  0.00  0.00    +0.000 C 
ATOM     12  O   UNL     1      49.002   4.729  16.583  0.00  0.00    +0.000 OA
ATOM     13  H   UNL     1      47.050   6.492  14.841  0.00  0.00    +0.000 HD
BRANCH  11  14
ATOM     14  C   UNL     1      49.212   7.027  16.106  0.00  0.00    +0.000 A 
ATOM     15  C   UNL     1      49.363   7.615  17.354  0.00  0.00    +0.000 A 
ATOM     16  S   UNL     1      50.177   9.115  17.309  0.00  0.00    +0.000 S 
ATOM     17  C   UNL     1      50.305   9.061  15.613  0.00  0.00    +0.000 A 
ATOM     18  N   UNL     1      50.884  10.076  14.919  0.00  0.00    +0.000 NA
ATOM     19  C   UNL     1      50.891   9.914  13.638  0.00  0.00    +0.000 A 
ATOM     20  N   UNL     1      50.377   8.824  12.985  0.00  0.00    +0.000 N 
ATOM     21  C   UNL     1      49.811   7.762  13.647  0.00  0.00    +0.000 A 
ATOM     22  O   UNL     1      49.404   6.776  13.040  0.00  0.00    +0.000 OA
ATOM     23  C   UNL     1      49.759   7.901  15.091  0.00  0.00    +0.000 A 
ATOM     24  H   UNL     1      50.430   8.745  11.980  0.00  0.00    +0.000 HD
ENDBRANCH  11  14
ENDBRANCH   9  10
ENDBRANCH   3   9
BRANCH   6  25
ATOM     25  C   UNL     1      44.310   4.158   9.642  0.00  0.00    +0.000 C 
BRANCH  25  26
ATOM     26  N   UNL     1      45.079   4.698   8.507  0.00  0.00    +0.000 NA
ATOM     27  H   UNL     1      45.884   5.195   8.879  0.00  0.00    +0.000 HD
BRANCH  26  28
ATOM     28  C   UNL     1      45.532   3.625   7.640  0.00  0.00    +0.000 C 
ATOM     29  C   UNL     1      45.815   2.346   8.416  0.00  0.00    +0.000 C 
ATOM     30  C   UNL     1      46.705   1.608   7.446  0.00  0.00    +0.000 C 
ATOM     31  C   UNL     1      47.539   2.734   6.870  0.00  0.00    +0.000 C 
ATOM     32  O   UNL     1      46.763   3.938   6.977  0.00  0.00    +0.000 OA
ENDBRANCH  26  28
ENDBRANCH  25  26
ENDBRANCH   6  25
TORSDOF 7
ENDMDL
MODEL 5
REMARK VINA RESULT:    -7.085      2.887      3.835
REMARK INTER + INTRA:         -11.274
REMARK INTER:                  -9.920
REMARK INTRA:                  -1.353
REMARK UNBOUND:                -1.289
REMARK  Name = 
REMARK  8 active torsions:
REMARK  status: ('A' for Active; 'I' for Inactive)
REMARK    1  A    between atoms: C_1  and  O_2
REMARK    2  A    between atoms: O_2  and  C_3
REMARK    3  A    between atoms: C_5  and  C_6
REMARK    4  A    between atoms: C_6  and  N_7
REMARK    5  A    between atoms: C_8  and  C_10
REMARK    6  A    between atoms: C_22  and  C_23
REMARK    7  A    between atoms: C_23  and  N_24
REMARK    8  A    between atoms: N_24  and  C_25
REMARK                            x       y       z     vdW  Elec       q    Type
REMARK                         _______ _______ _______ _____ _____    ______ ____
ROOT
ATOM      1  C   UNL     1      46.757   5.533  12.933  0.00  0.00    +0.000 A 
ATOM      2  C   UNL     1      47.551   6.284  13.809  0.00  0.00    +0.000 A 
ATOM      3  C   UNL     1      47.917   5.771  15.056  0.00  0.00    +0.000 A 
ATOM      4  C   UNL     1      47.435   4.513  15.385  0.00  0.00    +0.000 A 
ATOM      5  N   UNL     1      46.686   3.744  14.561  0.00  0.00    +0.000 NA
ATOM      6  C   UNL     1      46.348   4.255  13.340  0.00  0.00    +0.000 A 
ENDROOT
BRANCH   1   8
ATOM      7  C   UNL     1      45.658   7.265  11.753  0.00  0.00    +0.000 C 
ATOM      8  O   UNL     1      46.316   6.003  11.725  0.00  0.00    +0.000 OA
ENDBRANCH   1   8
BRANCH   3   9
ATOM      9  C   UNL     1      48.738   6.567  16.030  0.00  0.00    +0.000 C 
BRANCH   9  10
ATOM     10  N   UNL     1      49.836   5.792  16.539  0.00  0.00    +0.000 N 
ATOM     11  C   UNL     1      49.968   5.504  17.875  0.00  0.00    +0.000 C 
ATOM     12  O   UNL     1      49.145   5.865  18.706  0.00  0.00    +0.000 OA
ATOM     13  H   UNL     1      50.649   5.700  15.938  0.00  0.00    +0.000 HD
BRANCH  11  14
ATOM     14  C   UNL     1      51.125   4.674  18.236  0.00  0.00    +0.000 A 
ATOM     15  C   UNL     1      52.172   5.221  18.964  0.00  0.00    +0.000 A 
ATOM     16  S   UNL     1      53.398   4.096  19.346  0.00  0.00    +0.000 S 
ATOM     17  C   UNL     1      52.601   2.852  18.502  0.00  0.00    +0.000 A 
ATOM     18  N   UNL     1      53.140   1.608  18.409  0.00  0.00    +0.000 NA
ATOM     19  C   UNL     1      52.440   0.770  17.718  0.00  0.00    +0.000 A 
ATOM     20  N   UNL     1      51.244   1.062  17.116  0.00  0.00    +0.000 N 
ATOM     21  C   UNL     1      50.647   2.296  17.210  0.00  0.00    +0.000 A 
ATOM     22  O   UNL     1      49.551   2.513  16.702  0.00  0.00    +0.000 OA
ATOM     23  C   UNL     1      51.403   3.282  17.960  0.00  0.00    +0.000 A 
ATOM     24  H   UNL     1      50.732   0.357  16.605  0.00  0.00    +0.000 HD
ENDBRANCH  11  14
ENDBRANCH   9  10
ENDBRANCH   3   9
BRANCH   6  25
ATOM     25  C   UNL     1      45.473   3.360  12.470  0.00  0.00    +0.000 C 
BRANCH  25  26
ATOM     26  N   UNL     1      44.191   3.964  12.065  0.00  0.00    +0.000 NA
ATOM     27  H   UNL     1      44.289   4.975  12.112  0.00  0.00    +0.000 HD
BRANCH  26  28
ATOM     28  C   UNL     1      43.847   3.574  10.709  0.00  0.00    +0.000 C 
ATOM     29  C   UNL     1      44.735   2.448  10.198  0.00  0.00    +0.000 C 
ATOM     30  C   UNL     1      44.543   2.579   8.707  0.00  0.00    +0.000 C 
ATOM     31  C   UNL     1      44.489   4.083   8.531  0.00  0.00    +0.000 C 
ATOM     32  O   UNL     1      44.022   4.641   9.770  0.00  0.00    +0.000 OA
ENDBRANCH  26  28
ENDBRANCH  25  26
ENDBRANCH   6  25
TORSDOF 7
ENDMDL
MODEL 6
REMARK VINA RESULT:    -6.897      2.561      3.751
REMARK INTER + INTRA:         -11.008
REMARK INTER:                  -9.817
REMARK INTRA:                  -1.191
REMARK UNBOUND:                -1.289
REMARK  Name = 
REMARK  8 active torsions:
REMARK  status: ('A' for Active; 'I' for Inactive)
REMARK    1  A    between atoms: C_1  and  O_2
REMARK    2  A    between atoms: O_2  and  C_3
REMARK    3  A    between atoms: C_5  and  C_6
REMARK    4  A    between atoms: C_6  and  N_7
REMARK    5  A    between atoms: C_8  and  C_10
REMARK    6  A    between atoms: C_22  and  C_23
REMARK    7  A    between atoms: C_23  and  N_24
REMARK    8  A    between atoms: N_24  and  C_25
REMARK                            x       y       z     vdW  Elec       q    Type
REMARK                         _______ _______ _______ _____ _____    ______ ____
ROOT
ATOM      1  C   UNL     1      46.491   6.201  12.455  0.00  0.00    +0.000 A 
ATOM      2  C   UNL     1      47.074   5.777  13.656  0.00  0.00    +0.000 A 
ATOM      3  C   UNL     1      46.888   4.472  14.118  0.00  0.00    +0.000 A 
ATOM      4  C   UNL     1      46.083   3.642  13.350  0.00  0.00    +0.000 A 
ATOM      5  N   UNL     1      45.521   4.002  12.173  0.00  0.00    +0.000 NA
ATOM      6  C   UNL     1      45.724   5.277  11.730  0.00  0.00    +0.000 A 
ENDROOT
BRANCH   1   8
ATOM      7  C   UNL     1      45.954   8.484  12.769  0.00  0.00    +0.000 C 
ATOM      8  O   UNL     1      46.587   7.482  11.981  0.00  0.00    +0.000 OA
ENDBRANCH   1   8
BRANCH   3   9
ATOM      9  C   UNL     1      47.471   4.001  15.419  0.00  0.00    +0.000 C 
BRANCH   9  10
ATOM     10  N   UNL     1      47.383   5.021  16.427  0.00  0.00    +0.000 N 
ATOM     11  C   UNL     1      48.499   5.600  16.978  0.00  0.00    +0.000 C 
ATOM     12  O   UNL     1      49.632   5.304  16.622  0.00  0.00    +0.000 OA
ATOM     13  H   UNL     1      46.498   5.104  16.918  0.00  0.00    +0.000 HD
BRANCH  11  14
ATOM     14  C   UNL     1      48.247   6.651  17.972  0.00  0.00    +0.000 A 
ATOM     15  C   UNL     1      48.063   6.317  19.306  0.00  0.00    +0.000 A 
ATOM     16  S   UNL     1      47.845   7.669  20.326  0.00  0.00    +0.000 S 
ATOM     17  C   UNL     1      47.928   8.746  19.012  0.00  0.00    +0.000 A 
ATOM     18  N   UNL     1      47.783  10.086  19.191  0.00  0.00    +0.000 NA
ATOM     19  C   UNL     1      47.843  10.782  18.104  0.00  0.00    +0.000 A 
ATOM     20  N   UNL     1      48.043  10.261  16.852  0.00  0.00    +0.000 N 
ATOM     21  C   UNL     1      48.226   8.917  16.629  0.00  0.00    +0.000 A 
ATOM     22  O   UNL     1      48.454   8.485  15.503  0.00  0.00    +0.000 OA
ATOM     23  C   UNL     1      48.148   8.086  17.816  0.00  0.00    +0.000 A 
ATOM     24  H   UNL     1      48.102  10.859  16.041  0.00  0.00    +0.000 HD
ENDBRANCH  11  14
ENDBRANCH   9  10
ENDBRANCH   3   9
BRANCH   6  25
ATOM     25  C   UNL     1      45.036   5.637  10.417  0.00  0.00    +0.000 C 
BRANCH  25  26
ATOM     26  N   UNL     1      44.134   4.597   9.893  0.00  0.00    +0.000 NA
ATOM     27  H   UNL     1      43.231   5.026   9.707  0.00  0.00    +0.000 HD
BRANCH  26  28
ATOM     28  C   UNL     1      44.663   4.033   8.664  0.00  0.00    +0.000 C 
ATOM     29  C   UNL     1      45.230   2.635   8.877  0.00  0.00    +0.000 C 
ATOM     30  C   UNL     1      46.123   2.497   7.668  0.00  0.00    +0.000 C 
ATOM     31  C   UNL     1      46.698   3.893   7.543  0.00  0.00    +0.000 C 
ATOM     32  O   UNL     1      45.751   4.798   8.133  0.00  0.00    +0.000 OA
ENDBRANCH  26  28
ENDBRANCH  25  26
ENDBRANCH   6  25
TORSDOF 7
ENDMDL
MODEL 7
REMARK VINA RESULT:    -6.846      3.869      8.881
REMARK INTER + INTRA:         -10.936
REMARK INTER:                  -9.869
REMARK INTRA:                  -1.068
REMARK UNBOUND:                -1.289
REMARK  Name = 
REMARK  8 active torsions:
REMARK  status: ('A' for Active; 'I' for Inactive)
REMARK    1  A    between atoms: C_1  and  O_2
REMARK    2  A    between atoms: O_2  and  C_3
REMARK    3  A    between atoms: C_5  and  C_6
REMARK    4  A    between atoms: C_6  and  N_7
REMARK    5  A    between atoms: C_8  and  C_10
REMARK    6  A    between atoms: C_22  and  C_23
REMARK    7  A    between atoms: C_23  and  N_24
REMARK    8  A    between atoms: N_24  and  C_25
REMARK                            x       y       z     vdW  Elec       q    Type
REMARK                         _______ _______ _______ _____ _____    ______ ____
ROOT
ATOM      1  C   UNL     1      50.490   4.857  17.908  0.00  0.00    +0.000 A 
ATOM      2  C   UNL     1      49.129   4.747  17.596  0.00  0.00    +0.000 A 
ATOM      3  C   UNL     1      48.584   3.521  17.205  0.00  0.00    +0.000 A 
ATOM      4  C   UNL     1      49.456   2.445  17.114  0.00  0.00    +0.000 A 
ATOM      5  N   UNL     1      50.771   2.501  17.428  0.00  0.00    +0.000 NA
ATOM      6  C   UNL     1      51.284   3.704  17.822  0.00  0.00    +0.000 A 
ENDROOT
BRANCH   1   8
ATOM      7  C   UNL     1      50.337   6.911  19.072  0.00  0.00    +0.000 C 
ATOM      8  O   UNL     1      51.094   6.040  18.239  0.00  0.00    +0.000 OA
ENDBRANCH   1   8
BRANCH   3   9
ATOM      9  C   UNL     1      47.136   3.381  16.830  0.00  0.00    +0.000 C 
BRANCH   9  10
ATOM     10  N   UNL     1      46.758   4.357  15.847  0.00  0.00    +0.000 N 
ATOM     11  C   UNL     1      46.845   4.109  14.500  0.00  0.00    +0.000 C 
ATOM     12  O   UNL     1      47.221   3.031  14.058  0.00  0.00    +0.000 OA
ATOM     13  H   UNL     1      46.691   5.321  16.161  0.00  0.00    +0.000 HD
BRANCH  11  14
ATOM     14  C   UNL     1      46.391   5.193  13.620  0.00  0.00    +0.000 A 
ATOM     15  C   UNL     1      47.219   6.277  13.368  0.00  0.00    +0.000 A 
ATOM     16  S   UNL     1      46.552   7.408  12.277  0.00  0.00    +0.000 S 
ATOM     17  C   UNL     1      45.108   6.518  12.148  0.00  0.00    +0.000 A 
ATOM     18  N   UNL     1      44.078   6.958  11.376  0.00  0.00    +0.000 NA
ATOM     19  C   UNL     1      43.034   6.197  11.392  0.00  0.00    +0.000 A 
ATOM     20  N   UNL     1      42.927   5.031  12.104  0.00  0.00    +0.000 N 
ATOM     21  C   UNL     1      43.953   4.534  12.871  0.00  0.00    +0.000 A 
ATOM     22  O   UNL     1      43.847   3.461  13.458  0.00  0.00    +0.000 OA
ATOM     23  C   UNL     1      45.144   5.361  12.906  0.00  0.00    +0.000 A 
ATOM     24  H   UNL     1      42.090   4.467  12.059  0.00  0.00    +0.000 HD
ENDBRANCH  11  14
ENDBRANCH   9  10
ENDBRANCH   3   9
BRANCH   6  25
ATOM     25  C   UNL     1      52.778   3.715  18.127  0.00  0.00    +0.000 C 
BRANCH  25  26
ATOM     26  N   UNL     1      53.184   2.833  19.236  0.00  0.00    +0.000 NA
ATOM     27  H   UNL     1      52.347   2.404  19.620  0.00  0.00    +0.000 HD
BRANCH  26  28
ATOM     28  C   UNL     1      54.085   1.797  18.762  0.00  0.00    +0.000 C 
ATOM     29  C   UNL     1      54.710   2.156  17.421  0.00  0.00    +0.000 C 
ATOM     30  C   UNL     1      55.153   0.798  16.934  0.00  0.00    +0.000 C 
ATOM     31  C   UNL     1      54.014  -0.086  17.397  0.00  0.00    +0.000 C 
ATOM     32  O   UNL     1      53.417   0.550  18.539  0.00  0.00    +0.000 OA
ENDBRANCH  26  28
ENDBRANCH  25  26
ENDBRANCH   6  25
TORSDOF 7
ENDMDL
MODEL 8
REMARK VINA RESULT:    -6.694      3.669      8.018
REMARK INTER + INTRA:         -10.723
REMARK INTER:                  -9.499
REMARK INTRA:                  -1.224
REMARK UNBOUND:                -1.289
REMARK  Name = 
REMARK  8 active torsions:
REMARK  status: ('A' for Active; 'I' for Inactive)
REMARK    1  A    between atoms: C_1  and  O_2
REMARK    2  A    between atoms: O_2  and  C_3
REMARK    3  A    between atoms: C_5  and  C_6
REMARK    4  A    between atoms: C_6  and  N_7
REMARK    5  A    between atoms: C_8  and  C_10
REMARK    6  A    between atoms: C_22  and  C_23
REMARK    7  A    between atoms: C_23  and  N_24
REMARK    8  A    between atoms: N_24  and  C_25
REMARK                            x       y       z     vdW  Elec       q    Type
REMARK                         _______ _______ _______ _____ _____    ______ ____
ROOT
ATOM      1  C   UNL     1      49.457   4.417  17.402  0.00  0.00    +0.000 A 
ATOM      2  C   UNL     1      48.843   5.512  16.777  0.00  0.00    +0.000 A 
ATOM      3  C   UNL     1      49.609   6.565  16.273  0.00  0.00    +0.000 A 
ATOM      4  C   UNL     1      50.983   6.485  16.448  0.00  0.00    +0.000 A 
ATOM      5  N   UNL     1      51.618   5.438  17.022  0.00  0.00    +0.000 NA
ATOM      6  C   UNL     1      50.856   4.409  17.498  0.00  0.00    +0.000 A 
ENDROOT
BRANCH   1   8
ATOM      7  C   UNL     1      47.446   3.172  17.463  0.00  0.00    +0.000 C 
ATOM      8  O   UNL     1      48.759   3.385  17.968  0.00  0.00    +0.000 OA
ENDBRANCH   1   8
BRANCH   3   9
ATOM      9  C   UNL     1      48.977   7.768  15.631  0.00  0.00    +0.000 C 
BRANCH   9  10
ATOM     10  N   UNL     1      47.851   7.391  14.822  0.00  0.00    +0.000 N 
ATOM     11  C   UNL     1      48.002   6.800  13.592  0.00  0.00    +0.000 C 
ATOM     12  O   UNL     1      49.101   6.530  13.126  0.00  0.00    +0.000 OA
ATOM     13  H   UNL     1      46.960   7.821  15.049  0.00  0.00    +0.000 HD
BRANCH  11  14
ATOM     14  C   UNL     1      46.757   6.444  12.899  0.00  0.00    +0.000 A 
ATOM     15  C   UNL     1      45.986   7.432  12.303  0.00  0.00    +0.000 A 
ATOM     16  S   UNL     1      44.610   6.829  11.492  0.00  0.00    +0.000 S 
ATOM     17  C   UNL     1      44.964   5.231  11.958  0.00  0.00    +0.000 A 
ATOM     18  N   UNL     1      44.147   4.201  11.612  0.00  0.00    +0.000 NA
ATOM     19  C   UNL     1      44.523   3.047  12.054  0.00  0.00    +0.000 A 
ATOM     20  N   UNL     1      45.647   2.827  12.808  0.00  0.00    +0.000 N 
ATOM     21  C   UNL     1      46.516   3.833  13.155  0.00  0.00    +0.000 A 
ATOM     22  O   UNL     1      47.541   3.599  13.787  0.00  0.00    +0.000 OA
ATOM     23  C   UNL     1      46.130   5.155  12.699  0.00  0.00    +0.000 A 
ATOM     24  H   UNL     1      45.900   1.896  13.108  0.00  0.00    +0.000 HD
ENDBRANCH  11  14
ENDBRANCH   9  10
ENDBRANCH   3   9
BRANCH   6  25
ATOM     25  C   UNL     1      51.623   3.275  18.168  0.00  0.00    +0.000 C 
BRANCH  25  26
ATOM     26  N   UNL     1      51.395   1.946  17.573  0.00  0.00    +0.000 NA
ATOM     27  H   UNL     1      51.330   2.059  16.565  0.00  0.00    +0.000 HD
BRANCH  26  28
ATOM     28  C   UNL     1      52.492   1.048  17.890  0.00  0.00    +0.000 C 
ATOM     29  C   UNL     1      53.657   1.781  18.541  0.00  0.00    +0.000 C 
ATOM     30  C   UNL     1      54.783   0.804  18.304  0.00  0.00    +0.000 C 
ATOM     31  C   UNL     1      54.464   0.292  16.915  0.00  0.00    +0.000 C 
ATOM     32  O   UNL     1      53.047   0.427  16.725  0.00  0.00    +0.000 OA
ENDBRANCH  26  28
ENDBRANCH  25  26
ENDBRANCH   6  25
TORSDOF 7
ENDMDL
MODEL 9
REMARK VINA RESULT:    -6.582      3.164      7.724
REMARK INTER + INTRA:         -10.565
REMARK INTER:                  -9.134
REMARK INTRA:                  -1.430
REMARK UNBOUND:                -1.289
REMARK  Name = 
REMARK  8 active torsions:
REMARK  status: ('A' for Active; 'I' for Inactive)
REMARK    1  A    between atoms: C_1  and  O_2
REMARK    2  A    between atoms: O_2  and  C_3
REMARK    3  A    between atoms: C_5  and  C_6
REMARK    4  A    between atoms: C_6  and  N_7
REMARK    5  A    between atoms: C_8  and  C_10
REMARK    6  A    between atoms: C_22  and  C_23
REMARK    7  A    between atoms: C_23  and  N_24
REMARK    8  A    between atoms: N_24  and  C_25
REMARK                            x       y       z     vdW  Elec       q    Type
REMARK                         _______ _______ _______ _____ _____    ______ ____
ROOT
ATOM      1  C   UNL     1      48.353   8.537  16.037  0.00  0.00    +0.000 A 
ATOM      2  C   UNL     1      48.122   8.799  14.680  0.00  0.00    +0.000 A 
ATOM      3  C   UNL     1      48.420   7.840  13.708  0.00  0.00    +0.000 A 
ATOM      4  C   UNL     1      48.975   6.648  14.149  0.00  0.00    +0.000 A 
ATOM      5  N   UNL     1      49.193   6.344  15.450  0.00  0.00    +0.000 NA
ATOM      6  C   UNL     1      48.884   7.287  16.388  0.00  0.00    +0.000 A 
ENDROOT
BRANCH   1   8
ATOM      7  C   UNL     1      48.953  10.622  16.980  0.00  0.00    +0.000 C 
ATOM      8  O   UNL     1      48.139   9.456  17.029  0.00  0.00    +0.000 OA
ENDBRANCH   1   8
BRANCH   3   9
ATOM      9  C   UNL     1      48.215   8.106  12.244  0.00  0.00    +0.000 C 
BRANCH   9  10
ATOM     10  N   UNL     1      47.528   7.016  11.609  0.00  0.00    +0.000 N 
ATOM     11  C   UNL     1      46.158   6.920  11.606  0.00  0.00    +0.000 C 
ATOM     12  O   UNL     1      45.442   7.773  12.115  0.00  0.00    +0.000 OA
ATOM     13  H   UNL     1      48.075   6.184  11.411  0.00  0.00    +0.000 HD
BRANCH  11  14
ATOM     14  C   UNL     1      45.602   5.766  10.889  0.00  0.00    +0.000 A 
ATOM     15  C   UNL     1      45.808   5.630   9.523  0.00  0.00    +0.000 A 
ATOM     16  S   UNL     1      45.143   4.198   8.871  0.00  0.00    +0.000 S 
ATOM     17  C   UNL     1      44.506   3.738  10.380  0.00  0.00    +0.000 A 
ATOM     18  N   UNL     1      43.779   2.597  10.518  0.00  0.00    +0.000 NA
ATOM     19  C   UNL     1      43.336   2.385  11.713  0.00  0.00    +0.000 A 
ATOM     20  N   UNL     1      43.559   3.207  12.786  0.00  0.00    +0.000 N 
ATOM     21  C   UNL     1      44.312   4.352  12.700  0.00  0.00    +0.000 A 
ATOM     22  O   UNL     1      44.538   5.042  13.690  0.00  0.00    +0.000 OA
ATOM     23  C   UNL     1      44.819   4.650  11.373  0.00  0.00    +0.000 A 
ATOM     24  H   UNL     1      43.202   2.976  13.703  0.00  0.00    +0.000 HD
ENDBRANCH  11  14
ENDBRANCH   9  10
ENDBRANCH   3   9
BRANCH   6  25
ATOM     25  C   UNL     1      49.185   6.904  17.833  0.00  0.00    +0.000 C 
BRANCH  25  26
ATOM     26  N   UNL     1      47.993   6.645  18.660  0.00  0.00    +0.000 NA
ATOM     27  H   UNL     1      47.196   7.090  18.212  0.00  0.00    +0.000 HD
BRANCH  26  28
ATOM     28  C   UNL     1      47.749   5.218  18.773  0.00  0.00    +0.000 C 
ATOM     29  C   UNL     1      49.016   4.404  18.547  0.00  0.00    +0.000 C 
ATOM     30  C   UNL     1      48.437   3.050  18.218  0.00  0.00    +0.000 C 
ATOM     31  C   UNL     1      47.225   3.422  17.390  0.00  0.00    +0.000 C 
ATOM     32  O   UNL     1      46.821   4.740  17.793  0.00  0.00    +0.000 OA
ENDBRANCH  26  28
ENDBRANCH  25  26
ENDBRANCH   6  25
TORSDOF 7
ENDMDL
