MODEL 1
REMARK VINA RESULT:    -8.259      0.000      0.000
REMARK INTER + INTRA:         -13.470
REMARK INTER:                 -12.363
REMARK INTRA:                  -1.108
REMARK UNBOUND:                -1.108
REMARK  Name = 
REMARK  10 active torsions:
REMARK  status: ('A' for Active; 'I' for Inactive)
REMARK    1  A    between atoms: C_1  and  O_2
REMARK    2  A    between atoms: O_2  and  C_3
REMARK    3  A    between atoms: C_10  and  C_11
REMARK    4  A    between atoms: N_13  and  C_14
REMARK    5  A    between atoms: C_14  and  C_15
REMARK    6  A    between atoms: C_18  and  O_19
REMARK    7  A    between atoms: O_19  and  C_20
REMARK    8  A    between atoms: C_20  and  C_21
REMARK    9  A    between atoms: C_21  and  O_22
REMARK   10  A    between atoms: C_21  and  C_23
REMARK                            x       y       z     vdW  Elec       q    Type
REMARK                         _______ _______ _______ _____ _____    ______ ____
ROOT
ATOM      1  C   UNL     1      47.320   6.239  13.089  0.00  0.00    +0.000 A 
ATOM      2  C   UNL     1      46.812   5.068  13.662  0.00  0.00    +0.000 A 
ATOM      3  C   UNL     1      45.760   4.373  13.056  0.00  0.00    +0.000 A 
ATOM      4  C   UNL     1      45.208   4.833  11.858  0.00  0.00    +0.000 A 
ATOM      5  C   UNL     1      45.740   5.979  11.263  0.00  0.00    +0.000 A 
ATOM      6  C   UNL     1      46.792   6.674  11.867  0.00  0.00    +0.000 A 
ENDROOT
BRANCH   1   7
ATOM      7  C   UNL     1      48.445   6.987  13.756  0.00  0.00    +0.000 C 
BRANCH   7  10
ATOM      8  C   UNL     1      49.077   6.813  16.125  0.00  0.00    +0.000 C 
ATOM      9  O   UNL     1      50.157   6.306  15.832  0.00  0.00    +0.000 OA
ATOM     10  N   UNL     1      48.179   7.172  15.159  0.00  0.00    +0.000 N 
ATOM     11  H   UNL     1      47.271   7.532  15.418  0.00  0.00    +0.000 HD
BRANCH   8  19
ATOM     12  C   UNL     1      48.908   4.805  18.918  0.00  0.00    +0.000 A 
ATOM     13  N   UNL     1      48.745   4.261  20.139  0.00  0.00    +0.000 NA
ATOM     14  C   UNL     1      48.305   5.049  21.124  0.00  0.00    +0.000 A 
ATOM     15  N   UNL     1      48.004   6.342  21.041  0.00  0.00    +0.000 NA
ATOM     16  C   UNL     1      48.187   6.846  19.810  0.00  0.00    +0.000 A 
ATOM     17  S   UNL     1      47.851   8.485  19.519  0.00  0.00    +0.000 S 
ATOM     18  C   UNL     1      48.290   8.336  17.885  0.00  0.00    +0.000 A 
ATOM     19  C   UNL     1      48.697   7.057  17.526  0.00  0.00    +0.000 A 
ATOM     20  C   UNL     1      48.637   6.166  18.683  0.00  0.00    +0.000 A 
BRANCH  12  22
ATOM     21  C   UNL     1      48.383   3.288  17.212  0.00  0.00    +0.000 C 
ATOM     22  O   UNL     1      49.401   4.002  17.910  0.00  0.00    +0.000 OA
ENDBRANCH  12  22
ENDBRANCH   8  19
ENDBRANCH   7  10
ENDBRANCH   1   7
BRANCH   4  23
ATOM     23  O   UNL     1      44.159   4.260  11.192  0.00  0.00    +0.000 OA
BRANCH  23  24
ATOM     24  C   UNL     1      44.405   2.981  10.587  0.00  0.00    +0.000 C 
BRANCH  24  25
ATOM     25  C   UNL     1      44.274   3.070   9.053  0.00  0.00    +0.000 C 
BRANCH  25  26
ATOM     26  C   UNL     1      45.481   2.667   8.225  0.00  0.00    +0.000 A 
ATOM     27  C   UNL     1      46.049   1.386   8.261  0.00  0.00    +0.000 A 
ATOM     28  C   UNL     1      47.145   1.063   7.455  0.00  0.00    +0.000 A 
ATOM     29  C   UNL     1      47.688   2.016   6.600  0.00  0.00    +0.000 A 
ATOM     30  C   UNL     1      47.142   3.295   6.551  0.00  0.00    +0.000 A 
ATOM     31  C   UNL     1      46.049   3.618   7.359  0.00  0.00    +0.000 A 
ENDBRANCH  25  26
BRANCH  25  32
ATOM     32  O   UNL     1      43.880   4.395   8.686  0.00  0.00    +0.000 OA
ATOM     33  H   UNL     1      42.950   4.320   8.395  0.00  0.00    +0.000 HD
ENDBRANCH  25  32
ENDBRANCH  24  25
ENDBRANCH  23  24
ENDBRANCH   4  23
TORSDOF 9
ENDMDL
MODEL 2
REMARK VINA RESULT:    -8.162      1.476      2.774
REMARK INTER + INTRA:         -13.325
REMARK INTER:                 -12.068
REMARK INTRA:                  -1.257
REMARK UNBOUND:                -1.108
REMARK  Name = 
REMARK  10 active torsions:
REMARK  status: ('A' for Active; 'I' for Inactive)
REMARK    1  A    between atoms: C_1  and  O_2
REMARK    2  A    between atoms: O_2  and  C_3
REMARK    3  A    between atoms: C_10  and  C_11
REMARK    4  A    between atoms: N_13  and  C_14
REMARK    5  A    between atoms: C_14  and  C_15
REMARK    6  A    between atoms: C_18  and  O_19
REMARK    7  A    between atoms: O_19  and  C_20
REMARK    8  A    between atoms: C_20  and  C_21
REMARK    9  A    between atoms: C_21  and  O_22
REMARK   10  A    between atoms: C_21  and  C_23
REMARK                            x       y       z     vdW  Elec       q    Type
REMARK                         _______ _______ _______ _____ _____    ______ ____
ROOT
ATOM      1  C   UNL     1      47.425   6.119  13.334  0.00  0.00    +0.000 A 
ATOM      2  C   UNL     1      46.966   6.741  12.167  0.00  0.00    +0.000 A 
ATOM      3  C   UNL     1      45.909   6.191  11.432  0.00  0.00    +0.000 A 
ATOM      4  C   UNL     1      45.286   5.018  11.861  0.00  0.00    +0.000 A 
ATOM      5  C   UNL     1      45.714   4.418  13.047  0.00  0.00    +0.000 A 
ATOM      6  C   UNL     1      46.770   4.965  13.783  0.00  0.00    +0.000 A 
ENDROOT
BRANCH   1   7
ATOM      7  C   UNL     1      48.571   6.710  14.111  0.00  0.00    +0.000 C 
BRANCH   7  10
ATOM      8  C   UNL     1      48.883   6.308  16.516  0.00  0.00    +0.000 C 
ATOM      9  O   UNL     1      49.833   5.559  16.300  0.00  0.00    +0.000 OA
ATOM     10  N   UNL     1      48.208   6.910  15.491  0.00  0.00    +0.000 N 
ATOM     11  H   UNL     1      47.394   7.475  15.682  0.00  0.00    +0.000 HD
BRANCH   8  19
ATOM     12  C   UNL     1      47.853   9.176  18.119  0.00  0.00    +0.000 A 
ATOM     13  N   UNL     1      47.427  10.124  18.977  0.00  0.00    +0.000 NA
ATOM     14  C   UNL     1      47.157   9.757  20.234  0.00  0.00    +0.000 A 
ATOM     15  N   UNL     1      47.259   8.537  20.752  0.00  0.00    +0.000 NA
ATOM     16  C   UNL     1      47.680   7.622  19.862  0.00  0.00    +0.000 A 
ATOM     17  S   UNL     1      47.869   6.006  20.350  0.00  0.00    +0.000 S 
ATOM     18  C   UNL     1      48.385   5.547  18.799  0.00  0.00    +0.000 A 
ATOM     19  C   UNL     1      48.426   6.593  17.886  0.00  0.00    +0.000 A 
ATOM     20  C   UNL     1      47.999   7.837  18.526  0.00  0.00    +0.000 A 
BRANCH  12  22
ATOM     21  C   UNL     1      49.368  10.153  16.625  0.00  0.00    +0.000 C 
ATOM     22  O   UNL     1      48.092   9.545  16.812  0.00  0.00    +0.000 OA
ENDBRANCH  12  22
ENDBRANCH   8  19
ENDBRANCH   7  10
ENDBRANCH   1   7
BRANCH   4  23
ATOM     23  O   UNL     1      44.270   4.371  11.212  0.00  0.00    +0.000 OA
BRANCH  23  24
ATOM     24  C   UNL     1      44.593   3.105  10.616  0.00  0.00    +0.000 C 
BRANCH  24  25
ATOM     25  C   UNL     1      44.332   3.137   9.097  0.00  0.00    +0.000 C 
BRANCH  25  26
ATOM     26  C   UNL     1      45.470   2.711   8.185  0.00  0.00    +0.000 A 
ATOM     27  C   UNL     1      46.047   3.556   7.226  0.00  0.00    +0.000 A 
ATOM     28  C   UNL     1      47.111   3.118   6.431  0.00  0.00    +0.000 A 
ATOM     29  C   UNL     1      47.616   1.831   6.586  0.00  0.00    +0.000 A 
ATOM     30  C   UNL     1      47.055   0.976   7.530  0.00  0.00    +0.000 A 
ATOM     31  C   UNL     1      45.989   1.413   8.321  0.00  0.00    +0.000 A 
ENDBRANCH  25  26
BRANCH  25  32
ATOM     32  O   UNL     1      43.896   4.444   8.717  0.00  0.00    +0.000 OA
ATOM     33  H   UNL     1      44.527   5.062   9.133  0.00  0.00    +0.000 HD
ENDBRANCH  25  32
ENDBRANCH  24  25
ENDBRANCH  23  24
ENDBRANCH   4  23
TORSDOF 9
ENDMDL
MODEL 3
REMARK VINA RESULT:    -7.817      2.052      2.504
REMARK INTER + INTRA:         -12.808
REMARK INTER:                 -11.721
REMARK INTRA:                  -1.087
REMARK UNBOUND:                -1.108
REMARK  Name = 
REMARK  10 active torsions:
REMARK  status: ('A' for Active; 'I' for Inactive)
REMARK    1  A    between atoms: C_1  and  O_2
REMARK    2  A    between atoms: O_2  and  C_3
REMARK    3  A    between atoms: C_10  and  C_11
REMARK    4  A    between atoms: N_13  and  C_14
REMARK    5  A    between atoms: C_14  and  C_15
REMARK    6  A    between atoms: C_18  and  O_19
REMARK    7  A    between atoms: O_19  and  C_20
REMARK    8  A    between atoms: C_20  and  C_21
REMARK    9  A    between atoms: C_21  and  O_22
REMARK   10  A    between atoms: C_21  and  C_23
REMARK                            x       y       z     vdW  Elec       q    Type
REMARK                         _______ _______ _______ _____ _____    ______ ____
ROOT
ATOM      1  C   UNL     1      46.625   7.376  12.952  0.00  0.00    +0.000 A 
ATOM      2  C   UNL     1      45.648   7.791  12.040  0.00  0.00    +0.000 A 
ATOM      3  C   UNL     1      44.759   6.869  11.476  0.00  0.00    +0.000 A 
ATOM      4  C   UNL     1      44.825   5.519  11.826  0.00  0.00    +0.000 A 
ATOM      5  C   UNL     1      45.773   5.109  12.767  0.00  0.00    +0.000 A 
ATOM      6  C   UNL     1      46.662   6.029  13.332  0.00  0.00    +0.000 A 
ENDROOT
BRANCH   1   7
ATOM      7  C   UNL     1      47.586   8.374  13.544  0.00  0.00    +0.000 C 
BRANCH   7  10
ATOM      8  C   UNL     1      49.035   7.831  15.454  0.00  0.00    +0.000 C 
ATOM      9  O   UNL     1      48.357   8.527  16.206  0.00  0.00    +0.000 OA
ATOM     10  N   UNL     1      48.721   7.709  14.129  0.00  0.00    +0.000 N 
ATOM     11  H   UNL     1      49.322   7.180  13.512  0.00  0.00    +0.000 HD
BRANCH   8  19
ATOM     12  C   UNL     1      49.438   5.010  17.387  0.00  0.00    +0.000 A 
ATOM     13  N   UNL     1      49.879   3.963  18.112  0.00  0.00    +0.000 NA
ATOM     14  C   UNL     1      51.199   3.798  18.237  0.00  0.00    +0.000 A 
ATOM     15  N   UNL     1      52.155   4.561  17.716  0.00  0.00    +0.000 NA
ATOM     16  C   UNL     1      51.674   5.587  16.996  0.00  0.00    +0.000 A 
ATOM     17  S   UNL     1      52.753   6.669  16.255  0.00  0.00    +0.000 S 
ATOM     18  C   UNL     1      51.474   7.584  15.614  0.00  0.00    +0.000 A 
ATOM     19  C   UNL     1      50.214   7.098  15.941  0.00  0.00    +0.000 A 
ATOM     20  C   UNL     1      50.337   5.898  16.768  0.00  0.00    +0.000 A 
BRANCH  12  22
ATOM     21  C   UNL     1      47.493   4.133  16.420  0.00  0.00    +0.000 C 
ATOM     22  O   UNL     1      48.077   5.158  17.223  0.00  0.00    +0.000 OA
ENDBRANCH  12  22
ENDBRANCH   8  19
ENDBRANCH   7  10
ENDBRANCH   1   7
BRANCH   4  23
ATOM     23  O   UNL     1      44.036   4.523  11.319  0.00  0.00    +0.000 OA
BRANCH  23  24
ATOM     24  C   UNL     1      44.715   3.380  10.775  0.00  0.00    +0.000 C 
BRANCH  24  25
ATOM     25  C   UNL     1      44.356   3.190   9.289  0.00  0.00    +0.000 C 
BRANCH  25  26
ATOM     26  C   UNL     1      45.464   2.734   8.356  0.00  0.00    +0.000 A 
ATOM     27  C   UNL     1      45.990   1.434   8.360  0.00  0.00    +0.000 A 
ATOM     28  C   UNL     1      46.993   1.062   7.459  0.00  0.00    +0.000 A 
ATOM     29  C   UNL     1      47.481   1.983   6.538  0.00  0.00    +0.000 A 
ATOM     30  C   UNL     1      46.975   3.279   6.519  0.00  0.00    +0.000 A 
ATOM     31  C   UNL     1      45.976   3.651   7.422  0.00  0.00    +0.000 A 
ENDBRANCH  25  26
BRANCH  25  32
ATOM     32  O   UNL     1      43.788   4.399   8.778  0.00  0.00    +0.000 OA
ATOM     33  H   UNL     1      44.421   5.105   9.012  0.00  0.00    +0.000 HD
ENDBRANCH  25  32
ENDBRANCH  24  25
ENDBRANCH  23  24
ENDBRANCH   4  23
TORSDOF 9
ENDMDL
MODEL 4
REMARK VINA RESULT:    -7.780      2.425      3.332
REMARK INTER + INTRA:         -12.754
REMARK INTER:                 -11.754
REMARK INTRA:                  -1.000
REMARK UNBOUND:                -1.108
REMARK  Name = 
REMARK  10 active torsions:
REMARK  status: ('A' for Active; 'I' for Inactive)
REMARK    1  A    between atoms: C_1  and  O_2
REMARK    2  A    between atoms: O_2  and  C_3
REMARK    3  A    between atoms: C_10  and  C_11
REMARK    4  A    between atoms: N_13  and  C_14
REMARK    5  A    between atoms: C_14  and  C_15
REMARK    6  A    between atoms: C_18  and  O_19
REMARK    7  A    between atoms: O_19  and  C_20
REMARK    8  A    between atoms: C_20  and  C_21
REMARK    9  A    between atoms: C_21  and  O_22
REMARK   10  A    between atoms: C_21  and  C_23
REMARK                            x       y       z     vdW  Elec       q    Type
REMARK                         _______ _______ _______ _____ _____    ______ ____
ROOT
ATOM      1  C   UNL     1      48.102   7.225  14.313  0.00  0.00    +0.000 A 
ATOM      2  C   UNL     1      47.739   8.058  13.248  0.00  0.00    +0.000 A 
ATOM      3  C   UNL     1      47.026   7.552  12.155  0.00  0.00    +0.000 A 
ATOM      4  C   UNL     1      46.655   6.207  12.116  0.00  0.00    +0.000 A 
ATOM      5  C   UNL     1      46.980   5.382  13.195  0.00  0.00    +0.000 A 
ATOM      6  C   UNL     1      47.692   5.886  14.289  0.00  0.00    +0.000 A 
ENDROOT
BRANCH   1   7
ATOM      7  C   UNL     1      48.880   7.775  15.479  0.00  0.00    +0.000 C 
BRANCH   7  10
ATOM      8  C   UNL     1      49.745   6.120  17.078  0.00  0.00    +0.000 C 
ATOM      9  O   UNL     1      48.760   6.256  17.800  0.00  0.00    +0.000 OA
ATOM     10  N   UNL     1      49.878   6.836  15.921  0.00  0.00    +0.000 N 
ATOM     11  H   UNL     1      50.720   6.756  15.369  0.00  0.00    +0.000 HD
BRANCH   8  19
ATOM     12  C   UNL     1      50.035   2.691  16.963  0.00  0.00    +0.000 A 
ATOM     13  N   UNL     1      50.411   1.399  17.031  0.00  0.00    +0.000 NA
ATOM     14  C   UNL     1      51.633   1.124  17.498  0.00  0.00    +0.000 A 
ATOM     15  N   UNL     1      52.546   1.997  17.911  0.00  0.00    +0.000 NA
ATOM     16  C   UNL     1      52.134   3.272  17.821  0.00  0.00    +0.000 A 
ATOM     17  S   UNL     1      53.173   4.524  18.308  0.00  0.00    +0.000 S 
ATOM     18  C   UNL     1      52.014   5.703  17.923  0.00  0.00    +0.000 A 
ATOM     19  C   UNL     1      50.827   5.184  17.422  0.00  0.00    +0.000 A 
ATOM     20  C   UNL     1      50.903   3.725  17.359  0.00  0.00    +0.000 A 
BRANCH  12  22
ATOM     21  C   UNL     1      47.740   2.856  17.400  0.00  0.00    +0.000 C 
ATOM     22  O   UNL     1      48.790   2.977  16.443  0.00  0.00    +0.000 OA
ENDBRANCH  12  22
ENDBRANCH   8  19
ENDBRANCH   7  10
ENDBRANCH   1   7
BRANCH   4  23
ATOM     23  O   UNL     1      45.989   5.592  11.091  0.00  0.00    +0.000 OA
BRANCH  23  24
ATOM     24  C   UNL     1      45.020   4.598  11.460  0.00  0.00    +0.000 C 
BRANCH  24  25
ATOM     25  C   UNL     1      44.274   4.078  10.215  0.00  0.00    +0.000 C 
BRANCH  25  26
ATOM     26  C   UNL     1      45.110   3.447   9.115  0.00  0.00    +0.000 A 
ATOM     27  C   UNL     1      45.734   4.185   8.099  0.00  0.00    +0.000 A 
ATOM     28  C   UNL     1      46.515   3.552   7.127  0.00  0.00    +0.000 A 
ATOM     29  C   UNL     1      46.686   2.172   7.158  0.00  0.00    +0.000 A 
ATOM     30  C   UNL     1      46.073   1.420   8.155  0.00  0.00    +0.000 A 
ATOM     31  C   UNL     1      45.289   2.053   9.124  0.00  0.00    +0.000 A 
ENDBRANCH  25  26
BRANCH  25  32
ATOM     32  O   UNL     1      43.489   5.133   9.654  0.00  0.00    +0.000 OA
ATOM     33  H   UNL     1      43.108   5.609  10.417  0.00  0.00    +0.000 HD
ENDBRANCH  25  32
ENDBRANCH  24  25
ENDBRANCH  23  24
ENDBRANCH   4  23
TORSDOF 9
ENDMDL
MODEL 5
REMARK VINA RESULT:    -7.196      2.029      2.631
REMARK INTER + INTRA:         -11.880
REMARK INTER:                 -10.996
REMARK INTRA:                  -0.884
REMARK UNBOUND:                -1.108
REMARK  Name = 
REMARK  10 active torsions:
REMARK  status: ('A' for Active; 'I' for Inactive)
REMARK    1  A    between atoms: C_1  and  O_2
REMARK    2  A    between atoms: O_2  and  C_3
REMARK    3  A    between atoms: C_10  and  C_11
REMARK    4  A    between atoms: N_13  and  C_14
REMARK    5  A    between atoms: C_14  and  C_15
REMARK    6  A    between atoms: C_18  and  O_19
REMARK    7  A    between atoms: O_19  and  C_20
REMARK    8  A    between atoms: C_20  and  C_21
REMARK    9  A    between atoms: C_21  and  O_22
REMARK   10  A    between atoms: C_21  and  C_23
REMARK                            x       y       z     vdW  Elec       q    Type
REMARK                         _______ _______ _______ _____ _____    ______ ____
ROOT
ATOM      1  C   UNL     1      47.112   8.007  13.322  0.00  0.00    +0.000 A 
ATOM      2  C   UNL     1      45.855   8.592  13.126  0.00  0.00    +0.000 A 
ATOM      3  C   UNL     1      44.986   8.107  12.142  0.00  0.00    +0.000 A 
ATOM      4  C   UNL     1      45.356   7.021  11.347  0.00  0.00    +0.000 A 
ATOM      5  C   UNL     1      46.592   6.410  11.567  0.00  0.00    +0.000 A 
ATOM      6  C   UNL     1      47.462   6.892  12.550  0.00  0.00    +0.000 A 
ENDROOT
BRANCH   1   7
ATOM      7  C   UNL     1      48.046   8.543  14.375  0.00  0.00    +0.000 C 
BRANCH   7  10
ATOM      8  C   UNL     1      49.414   6.891  15.573  0.00  0.00    +0.000 C 
ATOM      9  O   UNL     1      50.354   7.062  14.802  0.00  0.00    +0.000 OA
ATOM     10  N   UNL     1      48.243   7.580  15.426  0.00  0.00    +0.000 N 
ATOM     11  H   UNL     1      47.459   7.384  16.033  0.00  0.00    +0.000 HD
BRANCH   8  19
ATOM     12  C   UNL     1      47.465   4.235  16.579  0.00  0.00    +0.000 A 
ATOM     13  N   UNL     1      46.892   3.181  17.190  0.00  0.00    +0.000 NA
ATOM     14  C   UNL     1      47.469   2.709  18.300  0.00  0.00    +0.000 A 
ATOM     15  N   UNL     1      48.571   3.167  18.886  0.00  0.00    +0.000 NA
ATOM     16  C   UNL     1      49.113   4.214  18.242  0.00  0.00    +0.000 A 
ATOM     17  S   UNL     1      50.527   4.930  18.850  0.00  0.00    +0.000 S 
ATOM     18  C   UNL     1      50.551   6.070  17.592  0.00  0.00    +0.000 A 
ATOM     19  C   UNL     1      49.501   5.937  16.691  0.00  0.00    +0.000 A 
ATOM     20  C   UNL     1      48.642   4.820  17.082  0.00  0.00    +0.000 A 
BRANCH  12  22
ATOM     21  C   UNL     1      47.098   3.822  14.303  0.00  0.00    +0.000 C 
ATOM     22  O   UNL     1      46.894   4.697  15.411  0.00  0.00    +0.000 OA
ENDBRANCH  12  22
ENDBRANCH   8  19
ENDBRANCH   7  10
ENDBRANCH   1   7
BRANCH   4  23
ATOM     23  O   UNL     1      44.608   6.482  10.335  0.00  0.00    +0.000 OA
BRANCH  23  24
ATOM     24  C   UNL     1      43.507   5.647  10.727  0.00  0.00    +0.000 C 
BRANCH  24  25
ATOM     25  C   UNL     1      43.970   4.190  10.918  0.00  0.00    +0.000 C 
BRANCH  25  26
ATOM     26  C   UNL     1      44.741   3.547   9.777  0.00  0.00    +0.000 A 
ATOM     27  C   UNL     1      44.940   2.164   9.662  0.00  0.00    +0.000 A 
ATOM     28  C   UNL     1      45.635   1.627   8.575  0.00  0.00    +0.000 A 
ATOM     29  C   UNL     1      46.138   2.463   7.585  0.00  0.00    +0.000 A 
ATOM     30  C   UNL     1      45.954   3.839   7.681  0.00  0.00    +0.000 A 
ATOM     31  C   UNL     1      45.263   4.377   8.770  0.00  0.00    +0.000 A 
ENDBRANCH  25  26
BRANCH  25  32
ATOM     32  O   UNL     1      42.843   3.370  11.237  0.00  0.00    +0.000 OA
ATOM     33  H   UNL     1      42.448   3.768  12.037  0.00  0.00    +0.000 HD
ENDBRANCH  25  32
ENDBRANCH  24  25
ENDBRANCH  23  24
ENDBRANCH   4  23
TORSDOF 9
ENDMDL
MODEL 6
REMARK VINA RESULT:    -6.933      2.719      3.614
REMARK INTER + INTRA:         -11.486
REMARK INTER:                 -10.316
REMARK INTRA:                  -1.170
REMARK UNBOUND:                -1.108
REMARK  Name = 
REMARK  10 active torsions:
REMARK  status: ('A' for Active; 'I' for Inactive)
REMARK    1  A    between atoms: C_1  and  O_2
REMARK    2  A    between atoms: O_2  and  C_3
REMARK    3  A    between atoms: C_10  and  C_11
REMARK    4  A    between atoms: N_13  and  C_14
REMARK    5  A    between atoms: C_14  and  C_15
REMARK    6  A    between atoms: C_18  and  O_19
REMARK    7  A    between atoms: O_19  and  C_20
REMARK    8  A    between atoms: C_20  and  C_21
REMARK    9  A    between atoms: C_21  and  O_22
REMARK   10  A    between atoms: C_21  and  C_23
REMARK                            x       y       z     vdW  Elec       q    Type
REMARK                         _______ _______ _______ _____ _____    ______ ____
ROOT
ATOM      1  C   UNL     1      47.085   6.882  13.278  0.00  0.00    +0.000 A 
ATOM      2  C   UNL     1      46.979   5.546  13.681  0.00  0.00    +0.000 A 
ATOM      3  C   UNL     1      45.797   4.828  13.470  0.00  0.00    +0.000 A 
ATOM      4  C   UNL     1      44.707   5.431  12.840  0.00  0.00    +0.000 A 
ATOM      5  C   UNL     1      44.823   6.752  12.400  0.00  0.00    +0.000 A 
ATOM      6  C   UNL     1      46.005   7.471  12.610  0.00  0.00    +0.000 A 
ENDROOT
BRANCH   1   7
ATOM      7  C   UNL     1      48.357   7.652  13.520  0.00  0.00    +0.000 C 
BRANCH   7  10
ATOM      8  C   UNL     1      49.325   7.179  15.730  0.00  0.00    +0.000 C 
ATOM      9  O   UNL     1      48.645   8.060  16.251  0.00  0.00    +0.000 OA
ATOM     10  N   UNL     1      49.242   6.921  14.390  0.00  0.00    +0.000 N 
ATOM     11  H   UNL     1      49.850   6.234  13.967  0.00  0.00    +0.000 HD
BRANCH   8  19
ATOM     12  C   UNL     1      52.758   6.939  15.831  0.00  0.00    +0.000 A 
ATOM     13  N   UNL     1      54.050   6.639  16.067  0.00  0.00    +0.000 NA
ATOM     14  C   UNL     1      54.319   5.696  16.975  0.00  0.00    +0.000 A 
ATOM     15  N   UNL     1      53.442   5.002  17.694  0.00  0.00    +0.000 NA
ATOM     16  C   UNL     1      52.167   5.337  17.433  0.00  0.00    +0.000 A 
ATOM     17  S   UNL     1      50.909   4.550  18.259  0.00  0.00    +0.000 S 
ATOM     18  C   UNL     1      49.734   5.453  17.431  0.00  0.00    +0.000 A 
ATOM     19  C   UNL     1      50.259   6.362  16.520  0.00  0.00    +0.000 A 
ATOM     20  C   UNL     1      51.720   6.291  16.525  0.00  0.00    +0.000 A 
BRANCH  12  22
ATOM     21  C   UNL     1      53.511   8.122  13.954  0.00  0.00    +0.000 C 
ATOM     22  O   UNL     1      52.481   7.942  14.925  0.00  0.00    +0.000 OA
ENDBRANCH  12  22
ENDBRANCH   8  19
ENDBRANCH   7  10
ENDBRANCH   1   7
BRANCH   4  23
ATOM     23  O   UNL     1      43.492   4.844  12.610  0.00  0.00    +0.000 OA
BRANCH  23  24
ATOM     24  C   UNL     1      43.254   4.365  11.276  0.00  0.00    +0.000 C 
BRANCH  24  25
ATOM     25  C   UNL     1      44.116   3.122  10.983  0.00  0.00    +0.000 C 
BRANCH  25  26
ATOM     26  C   UNL     1      44.945   3.132   9.710  0.00  0.00    +0.000 A 
ATOM     27  C   UNL     1      45.385   1.967   9.066  0.00  0.00    +0.000 A 
ATOM     28  C   UNL     1      46.124   2.037   7.880  0.00  0.00    +0.000 A 
ATOM     29  C   UNL     1      46.430   3.273   7.320  0.00  0.00    +0.000 A 
ATOM     30  C   UNL     1      46.005   4.441   7.945  0.00  0.00    +0.000 A 
ATOM     31  C   UNL     1      45.271   4.371   9.132  0.00  0.00    +0.000 A 
ENDBRANCH  25  26
BRANCH  25  32
ATOM     32  O   UNL     1      43.288   1.956  10.988  0.00  0.00    +0.000 OA
ATOM     33  H   UNL     1      43.059   1.802  11.926  0.00  0.00    +0.000 HD
ENDBRANCH  25  32
ENDBRANCH  24  25
ENDBRANCH  23  24
ENDBRANCH   4  23
TORSDOF 9
ENDMDL
MODEL 7
REMARK VINA RESULT:    -6.847      3.966      8.485
REMARK INTER + INTRA:         -11.356
REMARK INTER:                  -9.547
REMARK INTRA:                  -1.810
REMARK UNBOUND:                -1.108
REMARK  Name = 
REMARK  10 active torsions:
REMARK  status: ('A' for Active; 'I' for Inactive)
REMARK    1  A    between atoms: C_1  and  O_2
REMARK    2  A    between atoms: O_2  and  C_3
REMARK    3  A    between atoms: C_10  and  C_11
REMARK    4  A    between atoms: N_13  and  C_14
REMARK    5  A    between atoms: C_14  and  C_15
REMARK    6  A    between atoms: C_18  and  O_19
REMARK    7  A    between atoms: O_19  and  C_20
REMARK    8  A    between atoms: C_20  and  C_21
REMARK    9  A    between atoms: C_21  and  O_22
REMARK   10  A    between atoms: C_21  and  C_23
REMARK                            x       y       z     vdW  Elec       q    Type
REMARK                         _______ _______ _______ _____ _____    ______ ____
ROOT
ATOM      1  C   UNL     1      48.468   7.906  13.438  0.00  0.00    +0.000 A 
ATOM      2  C   UNL     1      48.041   8.892  14.335  0.00  0.00    +0.000 A 
ATOM      3  C   UNL     1      48.246   8.744  15.711  0.00  0.00    +0.000 A 
ATOM      4  C   UNL     1      48.894   7.613  16.210  0.00  0.00    +0.000 A 
ATOM      5  C   UNL     1      49.357   6.646  15.315  0.00  0.00    +0.000 A 
ATOM      6  C   UNL     1      49.153   6.793  13.939  0.00  0.00    +0.000 A 
ENDROOT
BRANCH   1   7
ATOM      7  C   UNL     1      48.231   8.068  11.959  0.00  0.00    +0.000 C 
BRANCH   7  10
ATOM      8  C   UNL     1      46.165   6.927  11.275  0.00  0.00    +0.000 C 
ATOM      9  O   UNL     1      45.484   7.896  11.601  0.00  0.00    +0.000 OA
ATOM     10  N   UNL     1      47.523   6.934  11.424  0.00  0.00    +0.000 N 
ATOM     11  H   UNL     1      48.062   6.108  11.207  0.00  0.00    +0.000 HD
BRANCH   8  19
ATOM     12  C   UNL     1      44.433   4.287  12.650  0.00  0.00    +0.000 A 
ATOM     13  N   UNL     1      43.753   3.155  12.915  0.00  0.00    +0.000 NA
ATOM     14  C   UNL     1      43.470   2.339  11.896  0.00  0.00    +0.000 A 
ATOM     15  N   UNL     1      43.786   2.516  10.617  0.00  0.00    +0.000 NA
ATOM     16  C   UNL     1      44.457   3.658  10.394  0.00  0.00    +0.000 A 
ATOM     17  S   UNL     1      44.943   4.050   8.815  0.00  0.00    +0.000 S 
ATOM     18  C   UNL     1      45.663   5.495   9.342  0.00  0.00    +0.000 A 
ATOM     19  C   UNL     1      45.553   5.713  10.710  0.00  0.00    +0.000 A 
ATOM     20  C   UNL     1      44.826   4.611  11.338  0.00  0.00    +0.000 A 
BRANCH  12  22
ATOM     21  C   UNL     1      46.016   5.035  14.206  0.00  0.00    +0.000 C 
ATOM     22  O   UNL     1      44.689   5.150  13.695  0.00  0.00    +0.000 OA
ENDBRANCH  12  22
ENDBRANCH   8  19
ENDBRANCH   7  10
ENDBRANCH   1   7
BRANCH   4  23
ATOM     23  O   UNL     1      49.121   7.341  17.532  0.00  0.00    +0.000 OA
BRANCH  23  24
ATOM     24  C   UNL     1      47.960   7.147  18.355  0.00  0.00    +0.000 C 
BRANCH  24  25
ATOM     25  C   UNL     1      48.028   5.787  19.079  0.00  0.00    +0.000 C 
BRANCH  25  26
ATOM     26  C   UNL     1      48.389   4.571  18.245  0.00  0.00    +0.000 A 
ATOM     27  C   UNL     1      47.502   3.958  17.348  0.00  0.00    +0.000 A 
ATOM     28  C   UNL     1      47.899   2.856  16.586  0.00  0.00    +0.000 A 
ATOM     29  C   UNL     1      49.189   2.351  16.706  0.00  0.00    +0.000 A 
ATOM     30  C   UNL     1      50.085   2.942  17.592  0.00  0.00    +0.000 A 
ATOM     31  C   UNL     1      49.686   4.042  18.357  0.00  0.00    +0.000 A 
ENDBRANCH  25  26
BRANCH  25  32
ATOM     32  O   UNL     1      46.788   5.541  19.747  0.00  0.00    +0.000 OA
ATOM     33  H   UNL     1      46.709   6.244  20.421  0.00  0.00    +0.000 HD
ENDBRANCH  25  32
ENDBRANCH  24  25
ENDBRANCH  23  24
ENDBRANCH   4  23
TORSDOF 9
ENDMDL
MODEL 8
REMARK VINA RESULT:    -6.814      3.410      4.940
REMARK INTER + INTRA:         -11.308
REMARK INTER:                  -9.989
REMARK INTRA:                  -1.319
REMARK UNBOUND:                -1.108
REMARK  Name = 
REMARK  10 active torsions:
REMARK  status: ('A' for Active; 'I' for Inactive)
REMARK    1  A    between atoms: C_1  and  O_2
REMARK    2  A    between atoms: O_2  and  C_3
REMARK    3  A    between atoms: C_10  and  C_11
REMARK    4  A    between atoms: N_13  and  C_14
REMARK    5  A    between atoms: C_14  and  C_15
REMARK    6  A    between atoms: C_18  and  O_19
REMARK    7  A    between atoms: O_19  and  C_20
REMARK    8  A    between atoms: C_20  and  C_21
REMARK    9  A    between atoms: C_21  and  O_22
REMARK   10  A    between atoms: C_21  and  C_23
REMARK                            x       y       z     vdW  Elec       q    Type
REMARK                         _______ _______ _______ _____ _____    ______ ____
ROOT
ATOM      1  C   UNL     1      47.658   4.285  16.101  0.00  0.00    +0.000 A 
ATOM      2  C   UNL     1      48.203   5.554  15.870  0.00  0.00    +0.000 A 
ATOM      3  C   UNL     1      48.055   6.179  14.627  0.00  0.00    +0.000 A 
ATOM      4  C   UNL     1      47.349   5.551  13.600  0.00  0.00    +0.000 A 
ATOM      5  C   UNL     1      46.771   4.302  13.840  0.00  0.00    +0.000 A 
ATOM      6  C   UNL     1      46.916   3.676  15.082  0.00  0.00    +0.000 A 
ENDROOT
BRANCH   1   7
ATOM      7  C   UNL     1      47.833   3.613  17.438  0.00  0.00    +0.000 C 
BRANCH   7  10
ATOM      8  C   UNL     1      49.948   2.422  17.054  0.00  0.00    +0.000 C 
ATOM      9  O   UNL     1      49.431   1.716  16.192  0.00  0.00    +0.000 OA
ATOM     10  N   UNL     1      49.226   3.375  17.716  0.00  0.00    +0.000 N 
ATOM     11  H   UNL     1      49.650   3.906  18.463  0.00  0.00    +0.000 HD
BRANCH   8  19
ATOM     12  C   UNL     1      52.478   4.673  17.678  0.00  0.00    +0.000 A 
ATOM     13  N   UNL     1      53.630   5.315  17.955  0.00  0.00    +0.000 NA
ATOM     14  C   UNL     1      54.714   4.578  18.213  0.00  0.00    +0.000 A 
ATOM     15  N   UNL     1      54.793   3.251  18.232  0.00  0.00    +0.000 NA
ATOM     16  C   UNL     1      53.623   2.650  17.957  0.00  0.00    +0.000 A 
ATOM     17  S   UNL     1      53.538   0.954  17.937  0.00  0.00    +0.000 S 
ATOM     18  C   UNL     1      51.887   0.992  17.542  0.00  0.00    +0.000 A 
ATOM     19  C   UNL     1      51.367   2.275  17.418  0.00  0.00    +0.000 A 
ATOM     20  C   UNL     1      52.411   3.268  17.671  0.00  0.00    +0.000 A 
BRANCH  12  22
ATOM     21  C   UNL     1      51.121   6.412  18.464  0.00  0.00    +0.000 C 
ATOM     22  O   UNL     1      51.349   5.433  17.452  0.00  0.00    +0.000 OA
ENDBRANCH  12  22
ENDBRANCH   8  19
ENDBRANCH   7  10
ENDBRANCH   1   7
BRANCH   4  23
ATOM     23  O   UNL     1      47.168   6.046  12.337  0.00  0.00    +0.000 OA
BRANCH  23  24
ATOM     24  C   UNL     1      46.215   7.111  12.197  0.00  0.00    +0.000 C 
BRANCH  24  25
ATOM     25  C   UNL     1      44.880   6.577  11.641  0.00  0.00    +0.000 C 
BRANCH  25  26
ATOM     26  C   UNL     1      44.937   5.348  10.750  0.00  0.00    +0.000 A 
ATOM     27  C   UNL     1      44.374   4.113  11.101  0.00  0.00    +0.000 A 
ATOM     28  C   UNL     1      44.435   3.023  10.228  0.00  0.00    +0.000 A 
ATOM     29  C   UNL     1      45.055   3.152   8.990  0.00  0.00    +0.000 A 
ATOM     30  C   UNL     1      45.624   4.368   8.623  0.00  0.00    +0.000 A 
ATOM     31  C   UNL     1      45.567   5.457   9.498  0.00  0.00    +0.000 A 
ENDBRANCH  25  26
BRANCH  25  32
ATOM     32  O   UNL     1      44.201   7.625  10.944  0.00  0.00    +0.000 OA
ATOM     33  H   UNL     1      44.160   8.373  11.572  0.00  0.00    +0.000 HD
ENDBRANCH  25  32
ENDBRANCH  24  25
ENDBRANCH  23  24
ENDBRANCH   4  23
TORSDOF 9
ENDMDL
MODEL 9
REMARK VINA RESULT:    -6.635      2.194      2.758
REMARK INTER + INTRA:         -11.039
REMARK INTER:                  -9.609
REMARK INTRA:                  -1.430
REMARK UNBOUND:                -1.108
REMARK  Name = 
REMARK  10 active torsions:
REMARK  status: ('A' for Active; 'I' for Inactive)
REMARK    1  A    between atoms: C_1  and  O_2
REMARK    2  A    between atoms: O_2  and  C_3
REMARK    3  A    between atoms: C_10  and  C_11
REMARK    4  A    between atoms: N_13  and  C_14
REMARK    5  A    between atoms: C_14  and  C_15
REMARK    6  A    between atoms: C_18  and  O_19
REMARK    7  A    between atoms: O_19  and  C_20
REMARK    8  A    between atoms: C_20  and  C_21
REMARK    9  A    between atoms: C_21  and  O_22
REMARK   10  A    between atoms: C_21  and  C_23
REMARK                            x       y       z     vdW  Elec       q    Type
REMARK                         _______ _______ _______ _____ _____    ______ ____
ROOT
ATOM      1  C   UNL     1      48.482   7.512  13.232  0.00  0.00    +0.000 A 
ATOM      2  C   UNL     1      48.150   6.209  12.845  0.00  0.00    +0.000 A 
ATOM      3  C   UNL     1      46.825   5.863  12.562  0.00  0.00    +0.000 A 
ATOM      4  C   UNL     1      45.812   6.819  12.649  0.00  0.00    +0.000 A 
ATOM      5  C   UNL     1      46.145   8.131  12.995  0.00  0.00    +0.000 A 
ATOM      6  C   UNL     1      47.470   8.478  13.278  0.00  0.00    +0.000 A 
ENDROOT
BRANCH   1   7
ATOM      7  C   UNL     1      49.911   7.872  13.548  0.00  0.00    +0.000 C 
BRANCH   7  10
ATOM      8  C   UNL     1      51.509   7.647  15.401  0.00  0.00    +0.000 C 
ATOM      9  O   UNL     1      52.427   8.069  14.702  0.00  0.00    +0.000 OA
ATOM     10  N   UNL     1      50.243   7.517  14.903  0.00  0.00    +0.000 N 
ATOM     11  H   UNL     1      49.513   7.113  15.472  0.00  0.00    +0.000 HD
BRANCH   8  19
ATOM     12  C   UNL     1      49.998   5.364  17.489  0.00  0.00    +0.000 A 
ATOM     13  N   UNL     1      49.592   4.575  18.503  0.00  0.00    +0.000 NA
ATOM     14  C   UNL     1      50.214   4.695  19.679  0.00  0.00    +0.000 A 
ATOM     15  N   UNL     1      51.214   5.520  19.976  0.00  0.00    +0.000 NA
ATOM     16  C   UNL     1      51.592   6.283  18.937  0.00  0.00    +0.000 A 
ATOM     17  S   UNL     1      52.857   7.398  19.135  0.00  0.00    +0.000 S 
ATOM     18  C   UNL     1      52.721   7.913  17.522  0.00  0.00    +0.000 A 
ATOM     19  C   UNL     1      51.727   7.259  16.804  0.00  0.00    +0.000 A 
ATOM     20  C   UNL     1      51.053   6.280  17.655  0.00  0.00    +0.000 A 
BRANCH  12  22
ATOM     21  C   UNL     1      47.989   4.936  16.364  0.00  0.00    +0.000 C 
ATOM     22  O   UNL     1      49.384   5.211  16.263  0.00  0.00    +0.000 OA
ENDBRANCH  12  22
ENDBRANCH   8  19
ENDBRANCH   7  10
ENDBRANCH   1   7
BRANCH   4  23
ATOM     23  O   UNL     1      44.480   6.593  12.430  0.00  0.00    +0.000 OA
BRANCH  23  24
ATOM     24  C   UNL     1      44.039   5.229  12.513  0.00  0.00    +0.000 C 
BRANCH  24  25
ATOM     25  C   UNL     1      43.351   4.799  11.202  0.00  0.00    +0.000 C 
BRANCH  25  26
ATOM     26  C   UNL     1      44.197   4.060  10.180  0.00  0.00    +0.000 A 
ATOM     27  C   UNL     1      44.211   2.664  10.053  0.00  0.00    +0.000 A 
ATOM     28  C   UNL     1      44.990   2.039   9.075  0.00  0.00    +0.000 A 
ATOM     29  C   UNL     1      45.764   2.801   8.206  0.00  0.00    +0.000 A 
ATOM     30  C   UNL     1      45.767   4.188   8.317  0.00  0.00    +0.000 A 
ATOM     31  C   UNL     1      44.992   4.812   9.297  0.00  0.00    +0.000 A 
ENDBRANCH  25  26
BRANCH  25  32
ATOM     32  O   UNL     1      42.761   5.942  10.577  0.00  0.00    +0.000 OA
ATOM     33  H   UNL     1      43.486   6.375  10.085  0.00  0.00    +0.000 HD
ENDBRANCH  25  32
ENDBRANCH  24  25
ENDBRANCH  23  24
ENDBRANCH   4  23
TORSDOF 9
ENDMDL
