MODEL 1
REMARK VINA RESULT:    -8.042      0.000      0.000
REMARK INTER + INTRA:         -13.439
REMARK INTER:                 -12.273
REMARK INTRA:                  -1.165
REMARK UNBOUND:                -1.165
REMARK  Name = 
REMARK  13 active torsions:
REMARK  status: ('A' for Active; 'I' for Inactive)
REMARK    1  A    between atoms: C_1  and  N_2
REMARK    2  A    between atoms: N_2  and  C_3
REMARK    3  A    between atoms: N_2  and  C_4
REMARK    4  A    between atoms: C_4  and  C_5
REMARK    5  A    between atoms: C_5  and  O_6
REMARK    6  A    between atoms: O_6  and  C_7
REMARK    7  A    between atoms: C_10  and  C_11
REMARK    8  A    between atoms: C_11  and  C_12
REMARK    9  A    between atoms: C_11  and  C_13
REMARK   10  A    between atoms: C_11  and  C_14
REMARK   11  A    between atoms: C_14  and  O_15
REMARK   12  A    between atoms: O_15  and  C_16
REMARK   13  A    between atoms: C_19  and  C_20
REMARK                            x       y       z     vdW  Elec       q    Type
REMARK                         _______ _______ _______ _____ _____    ______ ____
ROOT
ATOM      1  C   UNL     1      43.901   4.595  12.125  0.00  0.00    +0.000 C 
ATOM      2  C   UNL     1      43.737   3.136  12.601  0.00  0.00    +0.000 C 
ATOM      3  C   UNL     1      42.855   5.484  12.841  0.00  0.00    +0.000 C 
ENDROOT
BRANCH   1   7
ATOM      4  C   UNL     1      47.877   6.097  13.202  0.00  0.00    +0.000 A 
ATOM      5  C   UNL     1      47.242   6.539  12.045  0.00  0.00    +0.000 A 
ATOM      6  C   UNL     1      45.979   6.057  11.696  0.00  0.00    +0.000 A 
ATOM      7  C   UNL     1      45.309   5.112  12.483  0.00  0.00    +0.000 A 
ATOM      8  C   UNL     1      45.971   4.662  13.642  0.00  0.00    +0.000 A 
ATOM      9  C   UNL     1      47.235   5.151  13.998  0.00  0.00    +0.000 A 
BRANCH   4  10
ATOM     10  O   UNL     1      49.103   6.519  13.645  0.00  0.00    +0.000 OA
BRANCH  10  11
ATOM     11  C   UNL     1      49.072   7.643  14.532  0.00  0.00    +0.000 C 
BRANCH  11  12
ATOM     12  C   UNL     1      49.129   7.161  15.987  0.00  0.00    +0.000 C 
BRANCH  12  14
ATOM     13  C   UNL     1      51.414   6.565  16.450  0.00  0.00    +0.000 C 
ATOM     14  N   UNL     1      50.067   6.041  16.206  0.00  0.00    +0.000 NA
ATOM     15  C   UNL     1      49.663   5.183  17.322  0.00  0.00    +0.000 C 
ENDBRANCH  12  14
ENDBRANCH  11  12
ENDBRANCH  10  11
ENDBRANCH   4  10
ENDBRANCH   1   7
BRANCH   1  16
ATOM     16  C   UNL     1      43.561   4.656  10.603  0.00  0.00    +0.000 C 
BRANCH  16  17
ATOM     17  O   UNL     1      43.523   3.345  10.024  0.00  0.00    +0.000 OA
BRANCH  17  18
ATOM     18  C   UNL     1      44.531   3.025   9.155  0.00  0.00    +0.000 A 
ATOM     19  C   UNL     1      45.100   1.759   9.009  0.00  0.00    +0.000 A 
ATOM     20  C   UNL     1      46.151   1.563   8.111  0.00  0.00    +0.000 A 
ATOM     21  C   UNL     1      46.639   2.625   7.342  0.00  0.00    +0.000 A 
ATOM     22  C   UNL     1      46.067   3.894   7.480  0.00  0.00    +0.000 A 
ATOM     23  C   UNL     1      45.016   4.089   8.387  0.00  0.00    +0.000 A 
BRANCH  21  24
ATOM     24  C   UNL     1      47.782   2.354   6.432  0.00  0.00    +0.000 C 
ATOM     25  N   UNL     1      47.811   3.009   5.234  0.00  0.00    +0.000 N 
ATOM     26  O   UNL     1      48.653   1.541   6.721  0.00  0.00    +0.000 OA
ATOM     27  H   UNL     1      47.010   3.496   4.858  0.00  0.00    +0.000 HD
ATOM     28  H   UNL     1      48.535   2.723   4.588  0.00  0.00    +0.000 HD
ENDBRANCH  21  24
ENDBRANCH  17  18
ENDBRANCH  16  17
ENDBRANCH   1  16
TORSDOF 9
ENDMDL
MODEL 2
REMARK VINA RESULT:    -7.624      1.329      2.053
REMARK INTER + INTRA:         -12.801
REMARK INTER:                 -11.482
REMARK INTRA:                  -1.318
REMARK UNBOUND:                -1.165
REMARK  Name = 
REMARK  13 active torsions:
REMARK  status: ('A' for Active; 'I' for Inactive)
REMARK    1  A    between atoms: C_1  and  N_2
REMARK    2  A    between atoms: N_2  and  C_3
REMARK    3  A    between atoms: N_2  and  C_4
REMARK    4  A    between atoms: C_4  and  C_5
REMARK    5  A    between atoms: C_5  and  O_6
REMARK    6  A    between atoms: O_6  and  C_7
REMARK    7  A    between atoms: C_10  and  C_11
REMARK    8  A    between atoms: C_11  and  C_12
REMARK    9  A    between atoms: C_11  and  C_13
REMARK   10  A    between atoms: C_11  and  C_14
REMARK   11  A    between atoms: C_14  and  O_15
REMARK   12  A    between atoms: O_15  and  C_16
REMARK   13  A    between atoms: C_19  and  C_20
REMARK                            x       y       z     vdW  Elec       q    Type
REMARK                         _______ _______ _______ _____ _____    ______ ____
ROOT
ATOM      1  C   UNL     1      43.837   4.841  12.058  0.00  0.00    +0.000 C 
ATOM      2  C   UNL     1      43.016   4.781  13.364  0.00  0.00    +0.000 C 
ATOM      3  C   UNL     1      43.177   5.854  11.091  0.00  0.00    +0.000 C 
ENDROOT
BRANCH   1   7
ATOM      4  C   UNL     1      47.896   6.221  12.970  0.00  0.00    +0.000 A 
ATOM      5  C   UNL     1      47.237   6.667  11.829  0.00  0.00    +0.000 A 
ATOM      6  C   UNL     1      45.946   6.224  11.532  0.00  0.00    +0.000 A 
ATOM      7  C   UNL     1      45.273   5.314  12.358  0.00  0.00    +0.000 A 
ATOM      8  C   UNL     1      45.960   4.860  13.501  0.00  0.00    +0.000 A 
ATOM      9  C   UNL     1      47.251   5.311  13.804  0.00  0.00    +0.000 A 
BRANCH   4  10
ATOM     10  O   UNL     1      49.152   6.607  13.364  0.00  0.00    +0.000 OA
BRANCH  10  11
ATOM     11  C   UNL     1      49.223   7.190  14.670  0.00  0.00    +0.000 C 
BRANCH  11  12
ATOM     12  C   UNL     1      49.694   8.646  14.565  0.00  0.00    +0.000 C 
BRANCH  12  14
ATOM     13  C   UNL     1      48.616  10.323  13.217  0.00  0.00    +0.000 C 
ATOM     14  N   UNL     1      49.573   9.214  13.206  0.00  0.00    +0.000 NA
ATOM     15  C   UNL     1      50.858   9.677  12.678  0.00  0.00    +0.000 C 
ENDBRANCH  12  14
ENDBRANCH  11  12
ENDBRANCH  10  11
ENDBRANCH   4  10
ENDBRANCH   1   7
BRANCH   1  16
ATOM     16  C   UNL     1      43.750   3.448  11.359  0.00  0.00    +0.000 C 
BRANCH  16  17
ATOM     17  O   UNL     1      43.508   3.583   9.953  0.00  0.00    +0.000 OA
BRANCH  17  18
ATOM     18  C   UNL     1      44.518   3.194   9.114  0.00  0.00    +0.000 A 
ATOM     19  C   UNL     1      44.983   1.887   8.961  0.00  0.00    +0.000 A 
ATOM     20  C   UNL     1      46.046   1.617   8.098  0.00  0.00    +0.000 A 
ATOM     21  C   UNL     1      46.650   2.647   7.369  0.00  0.00    +0.000 A 
ATOM     22  C   UNL     1      46.183   3.958   7.514  0.00  0.00    +0.000 A 
ATOM     23  C   UNL     1      45.120   4.226   8.386  0.00  0.00    +0.000 A 
BRANCH  21  24
ATOM     24  C   UNL     1      47.799   2.296   6.495  0.00  0.00    +0.000 C 
ATOM     25  N   UNL     1      47.883   2.908   5.277  0.00  0.00    +0.000 N 
ATOM     26  O   UNL     1      48.627   1.457   6.831  0.00  0.00    +0.000 OA
ATOM     27  H   UNL     1      47.113   3.415   4.866  0.00  0.00    +0.000 HD
ATOM     28  H   UNL     1      48.607   2.569   4.658  0.00  0.00    +0.000 HD
ENDBRANCH  21  24
ENDBRANCH  17  18
ENDBRANCH  16  17
ENDBRANCH   1  16
TORSDOF 9
ENDMDL
MODEL 3
REMARK VINA RESULT:    -6.918      1.521      2.084
REMARK INTER + INTRA:         -11.723
REMARK INTER:                 -10.617
REMARK INTRA:                  -1.107
REMARK UNBOUND:                -1.165
REMARK  Name = 
REMARK  13 active torsions:
REMARK  status: ('A' for Active; 'I' for Inactive)
REMARK    1  A    between atoms: C_1  and  N_2
REMARK    2  A    between atoms: N_2  and  C_3
REMARK    3  A    between atoms: N_2  and  C_4
REMARK    4  A    between atoms: C_4  and  C_5
REMARK    5  A    between atoms: C_5  and  O_6
REMARK    6  A    between atoms: O_6  and  C_7
REMARK    7  A    between atoms: C_10  and  C_11
REMARK    8  A    between atoms: C_11  and  C_12
REMARK    9  A    between atoms: C_11  and  C_13
REMARK   10  A    between atoms: C_11  and  C_14
REMARK   11  A    between atoms: C_14  and  O_15
REMARK   12  A    between atoms: O_15  and  C_16
REMARK   13  A    between atoms: C_19  and  C_20
REMARK                            x       y       z     vdW  Elec       q    Type
REMARK                         _______ _______ _______ _____ _____    ______ ____
ROOT
ATOM      1  C   UNL     1      44.835   6.608  11.915  0.00  0.00    +0.000 C 
ATOM      2  C   UNL     1      43.643   5.815  12.494  0.00  0.00    +0.000 C 
ATOM      3  C   UNL     1      44.447   8.103  11.813  0.00  0.00    +0.000 C 
ENDROOT
BRANCH   1   7
ATOM      4  C   UNL     1      48.264   6.236  14.619  0.00  0.00    +0.000 A 
ATOM      5  C   UNL     1      47.997   7.442  13.976  0.00  0.00    +0.000 A 
ATOM      6  C   UNL     1      46.909   7.561  13.109  0.00  0.00    +0.000 A 
ATOM      7  C   UNL     1      46.056   6.481  12.846  0.00  0.00    +0.000 A 
ATOM      8  C   UNL     1      46.349   5.264  13.492  0.00  0.00    +0.000 A 
ATOM      9  C   UNL     1      47.436   5.146  14.369  0.00  0.00    +0.000 A 
BRANCH   4  10
ATOM     10  O   UNL     1      49.290   6.018  15.502  0.00  0.00    +0.000 OA
BRANCH  10  11
ATOM     11  C   UNL     1      49.009   6.384  16.858  0.00  0.00    +0.000 C 
BRANCH  11  12
ATOM     12  C   UNL     1      49.558   5.315  17.811  0.00  0.00    +0.000 C 
BRANCH  12  14
ATOM     13  C   UNL     1      47.215   4.835  18.081  0.00  0.00    +0.000 C 
ATOM     14  N   UNL     1      48.568   4.281  18.178  0.00  0.00    +0.000 NA
ATOM     15  C   UNL     1      48.673   3.084  17.342  0.00  0.00    +0.000 C 
ENDBRANCH  12  14
ENDBRANCH  11  12
ENDBRANCH  10  11
ENDBRANCH   4  10
ENDBRANCH   1   7
BRANCH   1  16
ATOM     16  C   UNL     1      45.085   6.120  10.454  0.00  0.00    +0.000 C 
BRANCH  16  17
ATOM     17  O   UNL     1      44.408   4.882  10.194  0.00  0.00    +0.000 OA
BRANCH  17  18
ATOM     18  C   UNL     1      45.048   3.991   9.376  0.00  0.00    +0.000 A 
ATOM     19  C   UNL     1      45.000   2.601   9.501  0.00  0.00    +0.000 A 
ATOM     20  C   UNL     1      45.726   1.793   8.625  0.00  0.00    +0.000 A 
ATOM     21  C   UNL     1      46.500   2.361   7.608  0.00  0.00    +0.000 A 
ATOM     22  C   UNL     1      46.547   3.753   7.474  0.00  0.00    +0.000 A 
ATOM     23  C   UNL     1      45.821   4.561   8.359  0.00  0.00    +0.000 A 
BRANCH  21  24
ATOM     24  C   UNL     1      47.275   1.444   6.732  0.00  0.00    +0.000 C 
ATOM     25  N   UNL     1      48.280   1.980   5.979  0.00  0.00    +0.000 N 
ATOM     26  O   UNL     1      47.002   0.251   6.651  0.00  0.00    +0.000 OA
ATOM     27  H   UNL     1      48.384   2.974   5.834  0.00  0.00    +0.000 HD
ATOM     28  H   UNL     1      48.715   1.359   5.310  0.00  0.00    +0.000 HD
ENDBRANCH  21  24
ENDBRANCH  17  18
ENDBRANCH  16  17
ENDBRANCH   1  16
TORSDOF 9
ENDMDL
MODEL 4
REMARK VINA RESULT:    -6.890      2.259      3.042
REMARK INTER + INTRA:         -11.680
REMARK INTER:                 -10.746
REMARK INTRA:                  -0.934
REMARK UNBOUND:                -1.165
REMARK  Name = 
REMARK  13 active torsions:
REMARK  status: ('A' for Active; 'I' for Inactive)
REMARK    1  A    between atoms: C_1  and  N_2
REMARK    2  A    between atoms: N_2  and  C_3
REMARK    3  A    between atoms: N_2  and  C_4
REMARK    4  A    between atoms: C_4  and  C_5
REMARK    5  A    between atoms: C_5  and  O_6
REMARK    6  A    between atoms: O_6  and  C_7
REMARK    7  A    between atoms: C_10  and  C_11
REMARK    8  A    between atoms: C_11  and  C_12
REMARK    9  A    between atoms: C_11  and  C_13
REMARK   10  A    between atoms: C_11  and  C_14
REMARK   11  A    between atoms: C_14  and  O_15
REMARK   12  A    between atoms: O_15  and  C_16
REMARK   13  A    between atoms: C_19  and  C_20
REMARK                            x       y       z     vdW  Elec       q    Type
REMARK                         _______ _______ _______ _____ _____    ______ ____
ROOT
ATOM      1  C   UNL     1      43.908   4.634  12.144  0.00  0.00    +0.000 C 
ATOM      2  C   UNL     1      43.132   4.480  13.470  0.00  0.00    +0.000 C 
ATOM      3  C   UNL     1      42.998   5.324  11.100  0.00  0.00    +0.000 C 
ENDROOT
BRANCH   1   7
ATOM      4  C   UNL     1      47.466   7.136  12.696  0.00  0.00    +0.000 A 
ATOM      5  C   UNL     1      47.440   5.827  13.170  0.00  0.00    +0.000 A 
ATOM      6  C   UNL     1      46.306   5.030  13.001  0.00  0.00    +0.000 A 
ATOM      7  C   UNL     1      45.156   5.513  12.364  0.00  0.00    +0.000 A 
ATOM      8  C   UNL     1      45.192   6.845  11.904  0.00  0.00    +0.000 A 
ATOM      9  C   UNL     1      46.333   7.642  12.065  0.00  0.00    +0.000 A 
BRANCH   4  10
ATOM     10  O   UNL     1      48.531   7.993  12.791  0.00  0.00    +0.000 OA
BRANCH  10  11
ATOM     11  C   UNL     1      49.708   7.575  12.089  0.00  0.00    +0.000 C 
BRANCH  11  12
ATOM     12  C   UNL     1      50.731   8.717  12.062  0.00  0.00    +0.000 C 
BRANCH  12  14
ATOM     13  C   UNL     1      51.841   9.991  10.348  0.00  0.00    +0.000 C 
ATOM     14  N   UNL     1      51.665   8.653  10.917  0.00  0.00    +0.000 NA
ATOM     15  C   UNL     1      52.968   8.099  11.290  0.00  0.00    +0.000 C 
ENDBRANCH  12  14
ENDBRANCH  11  12
ENDBRANCH  10  11
ENDBRANCH   4  10
ENDBRANCH   1   7
BRANCH   1  16
ATOM     16  C   UNL     1      44.215   3.209  11.586  0.00  0.00    +0.000 C 
BRANCH  16  17
ATOM     17  O   UNL     1      43.756   3.067  10.236  0.00  0.00    +0.000 OA
BRANCH  17  18
ATOM     18  C   UNL     1      44.714   3.044   9.259  0.00  0.00    +0.000 A 
ATOM     19  C   UNL     1      45.162   4.153   8.540  0.00  0.00    +0.000 A 
ATOM     20  C   UNL     1      46.123   3.999   7.539  0.00  0.00    +0.000 A 
ATOM     21  C   UNL     1      46.654   2.737   7.251  0.00  0.00    +0.000 A 
ATOM     22  C   UNL     1      46.213   1.623   7.973  0.00  0.00    +0.000 A 
ATOM     23  C   UNL     1      45.244   1.782   8.973  0.00  0.00    +0.000 A 
BRANCH  21  24
ATOM     24  C   UNL     1      47.647   2.639   6.150  0.00  0.00    +0.000 C 
ATOM     25  N   UNL     1      48.955   2.436   6.488  0.00  0.00    +0.000 N 
ATOM     26  O   UNL     1      47.319   2.774   4.976  0.00  0.00    +0.000 OA
ATOM     27  H   UNL     1      49.300   2.554   7.429  0.00  0.00    +0.000 HD
ATOM     28  H   UNL     1      49.623   2.486   5.730  0.00  0.00    +0.000 HD
ENDBRANCH  21  24
ENDBRANCH  17  18
ENDBRANCH  16  17
ENDBRANCH   1  16
TORSDOF 9
ENDMDL
MODEL 5
REMARK VINA RESULT:    -6.249      1.233      2.062
REMARK INTER + INTRA:         -10.702
REMARK INTER:                 -10.324
REMARK INTRA:                  -0.379
REMARK UNBOUND:                -1.165
REMARK  Name = 
REMARK  13 active torsions:
REMARK  status: ('A' for Active; 'I' for Inactive)
REMARK    1  A    between atoms: C_1  and  N_2
REMARK    2  A    between atoms: N_2  and  C_3
REMARK    3  A    between atoms: N_2  and  C_4
REMARK    4  A    between atoms: C_4  and  C_5
REMARK    5  A    between atoms: C_5  and  O_6
REMARK    6  A    between atoms: O_6  and  C_7
REMARK    7  A    between atoms: C_10  and  C_11
REMARK    8  A    between atoms: C_11  and  C_12
REMARK    9  A    between atoms: C_11  and  C_13
REMARK   10  A    between atoms: C_11  and  C_14
REMARK   11  A    between atoms: C_14  and  O_15
REMARK   12  A    between atoms: O_15  and  C_16
REMARK   13  A    between atoms: C_19  and  C_20
REMARK                            x       y       z     vdW  Elec       q    Type
REMARK                         _______ _______ _______ _____ _____    ______ ____
ROOT
ATOM      1  C   UNL     1      44.342   4.834  12.337  0.00  0.00    +0.000 C 
ATOM      2  C   UNL     1      43.120   4.854  13.280  0.00  0.00    +0.000 C 
ATOM      3  C   UNL     1      44.093   5.813  11.163  0.00  0.00    +0.000 C 
ENDROOT
BRANCH   1   7
ATOM      4  C   UNL     1      47.966   6.124  14.439  0.00  0.00    +0.000 A 
ATOM      5  C   UNL     1      47.305   4.958  14.816  0.00  0.00    +0.000 A 
ATOM      6  C   UNL     1      46.147   4.549  14.153  0.00  0.00    +0.000 A 
ATOM      7  C   UNL     1      45.602   5.291  13.097  0.00  0.00    +0.000 A 
ATOM      8  C   UNL     1      46.273   6.477  12.737  0.00  0.00    +0.000 A 
ATOM      9  C   UNL     1      47.441   6.884  13.397  0.00  0.00    +0.000 A 
BRANCH   4  10
ATOM     10  O   UNL     1      49.117   6.604  15.008  0.00  0.00    +0.000 OA
BRANCH  10  11
ATOM     11  C   UNL     1      49.490   5.975  16.239  0.00  0.00    +0.000 C 
BRANCH  11  12
ATOM     12  C   UNL     1      50.931   6.354  16.602  0.00  0.00    +0.000 C 
BRANCH  12  14
ATOM     13  C   UNL     1      52.286   7.125  18.435  0.00  0.00    +0.000 C 
ATOM     14  N   UNL     1      51.031   7.329  17.708  0.00  0.00    +0.000 NA
ATOM     15  C   UNL     1      50.951   8.714  17.240  0.00  0.00    +0.000 C 
ENDBRANCH  12  14
ENDBRANCH  11  12
ENDBRANCH  10  11
ENDBRANCH   4  10
ENDBRANCH   1   7
BRANCH   1  16
ATOM     16  C   UNL     1      44.451   3.411  11.705  0.00  0.00    +0.000 C 
BRANCH  16  17
ATOM     17  O   UNL     1      43.891   3.381  10.385  0.00  0.00    +0.000 OA
BRANCH  17  18
ATOM     18  C   UNL     1      44.771   3.255   9.345  0.00  0.00    +0.000 A 
ATOM     19  C   UNL     1      45.224   4.300   8.539  0.00  0.00    +0.000 A 
ATOM     20  C   UNL     1      46.098   4.042   7.481  0.00  0.00    +0.000 A 
ATOM     21  C   UNL     1      46.538   2.740   7.223  0.00  0.00    +0.000 A 
ATOM     22  C   UNL     1      46.092   1.689   8.032  0.00  0.00    +0.000 A 
ATOM     23  C   UNL     1      45.210   1.951   9.089  0.00  0.00    +0.000 A 
BRANCH  21  24
ATOM     24  C   UNL     1      47.440   2.530   6.061  0.00  0.00    +0.000 C 
ATOM     25  N   UNL     1      48.723   2.136   6.313  0.00  0.00    +0.000 N 
ATOM     26  O   UNL     1      47.066   2.741   4.912  0.00  0.00    +0.000 OA
ATOM     27  H   UNL     1      49.137   2.180   7.233  0.00  0.00    +0.000 HD
ATOM     28  H   UNL     1      49.345   2.111   5.516  0.00  0.00    +0.000 HD
ENDBRANCH  21  24
ENDBRANCH  17  18
ENDBRANCH  16  17
ENDBRANCH   1  16
TORSDOF 9
ENDMDL
MODEL 6
REMARK VINA RESULT:    -5.921      3.752      8.065
REMARK INTER + INTRA:         -10.202
REMARK INTER:                  -8.770
REMARK INTRA:                  -1.432
REMARK UNBOUND:                -1.165
REMARK  Name = 
REMARK  13 active torsions:
REMARK  status: ('A' for Active; 'I' for Inactive)
REMARK    1  A    between atoms: C_1  and  N_2
REMARK    2  A    between atoms: N_2  and  C_3
REMARK    3  A    between atoms: N_2  and  C_4
REMARK    4  A    between atoms: C_4  and  C_5
REMARK    5  A    between atoms: C_5  and  O_6
REMARK    6  A    between atoms: O_6  and  C_7
REMARK    7  A    between atoms: C_10  and  C_11
REMARK    8  A    between atoms: C_11  and  C_12
REMARK    9  A    between atoms: C_11  and  C_13
REMARK   10  A    between atoms: C_11  and  C_14
REMARK   11  A    between atoms: C_14  and  O_15
REMARK   12  A    between atoms: O_15  and  C_16
REMARK   13  A    between atoms: C_19  and  C_20
REMARK                            x       y       z     vdW  Elec       q    Type
REMARK                         _______ _______ _______ _____ _____    ______ ____
ROOT
ATOM      1  C   UNL     1      49.370   8.616  12.796  0.00  0.00    +0.000 C 
ATOM      2  C   UNL     1      50.204   8.615  11.497  0.00  0.00    +0.000 C 
ATOM      3  C   UNL     1      49.344  10.049  13.381  0.00  0.00    +0.000 C 
ENDROOT
BRANCH   1   7
ATOM      4  C   UNL     1      45.261   7.406  11.867  0.00  0.00    +0.000 A 
ATOM      5  C   UNL     1      45.507   8.483  12.713  0.00  0.00    +0.000 A 
ATOM      6  C   UNL     1      46.816   8.866  13.017  0.00  0.00    +0.000 A 
ATOM      7  C   UNL     1      47.922   8.184  12.494  0.00  0.00    +0.000 A 
ATOM      8  C   UNL     1      47.656   7.086  11.652  0.00  0.00    +0.000 A 
ATOM      9  C   UNL     1      46.344   6.706  11.341  0.00  0.00    +0.000 A 
BRANCH   4  10
ATOM     10  O   UNL     1      44.021   6.960  11.490  0.00  0.00    +0.000 OA
BRANCH  10  11
ATOM     11  C   UNL     1      43.878   5.536  11.444  0.00  0.00    +0.000 C 
BRANCH  11  12
ATOM     12  C   UNL     1      43.869   4.967  12.868  0.00  0.00    +0.000 C 
BRANCH  12  14
ATOM     13  C   UNL     1      43.471   2.776  11.955  0.00  0.00    +0.000 C 
ATOM     14  N   UNL     1      44.242   3.538  12.941  0.00  0.00    +0.000 NA
ATOM     15  C   UNL     1      45.673   3.323  12.722  0.00  0.00    +0.000 C 
ENDBRANCH  12  14
ENDBRANCH  11  12
ENDBRANCH  10  11
ENDBRANCH   4  10
ENDBRANCH   1   7
BRANCH   1  16
ATOM     16  C   UNL     1      50.102   7.726  13.849  0.00  0.00    +0.000 C 
BRANCH  16  17
ATOM     17  O   UNL     1      49.642   8.004  15.179  0.00  0.00    +0.000 OA
BRANCH  17  18
ATOM     18  C   UNL     1      49.160   6.944  15.898  0.00  0.00    +0.000 A 
ATOM     19  C   UNL     1      49.490   6.650  17.222  0.00  0.00    +0.000 A 
ATOM     20  C   UNL     1      48.960   5.517  17.841  0.00  0.00    +0.000 A 
ATOM     21  C   UNL     1      48.087   4.670  17.149  0.00  0.00    +0.000 A 
ATOM     22  C   UNL     1      47.748   4.964  15.824  0.00  0.00    +0.000 A 
ATOM     23  C   UNL     1      48.287   6.100  15.204  0.00  0.00    +0.000 A 
BRANCH  21  24
ATOM     24  C   UNL     1      47.586   3.463  17.857  0.00  0.00    +0.000 C 
ATOM     25  N   UNL     1      48.268   3.044  18.963  0.00  0.00    +0.000 N 
ATOM     26  O   UNL     1      46.618   2.833  17.444  0.00  0.00    +0.000 OA
ATOM     27  H   UNL     1      49.190   3.382  19.197  0.00  0.00    +0.000 HD
ATOM     28  H   UNL     1      47.976   2.160  19.357  0.00  0.00    +0.000 HD
ENDBRANCH  21  24
ENDBRANCH  17  18
ENDBRANCH  16  17
ENDBRANCH   1  16
TORSDOF 9
ENDMDL
MODEL 7
REMARK VINA RESULT:    -5.906      2.776      8.897
REMARK INTER + INTRA:         -10.179
REMARK INTER:                  -8.810
REMARK INTRA:                  -1.369
REMARK UNBOUND:                -1.165
REMARK  Name = 
REMARK  13 active torsions:
REMARK  status: ('A' for Active; 'I' for Inactive)
REMARK    1  A    between atoms: C_1  and  N_2
REMARK    2  A    between atoms: N_2  and  C_3
REMARK    3  A    between atoms: N_2  and  C_4
REMARK    4  A    between atoms: C_4  and  C_5
REMARK    5  A    between atoms: C_5  and  O_6
REMARK    6  A    between atoms: O_6  and  C_7
REMARK    7  A    between atoms: C_10  and  C_11
REMARK    8  A    between atoms: C_11  and  C_12
REMARK    9  A    between atoms: C_11  and  C_13
REMARK   10  A    between atoms: C_11  and  C_14
REMARK   11  A    between atoms: C_14  and  O_15
REMARK   12  A    between atoms: O_15  and  C_16
REMARK   13  A    between atoms: C_19  and  C_20
REMARK                            x       y       z     vdW  Elec       q    Type
REMARK                         _______ _______ _______ _____ _____    ______ ____
ROOT
ATOM      1  C   UNL     1      48.477   7.839  13.180  0.00  0.00    +0.000 C 
ATOM      2  C   UNL     1      49.094   7.918  11.767  0.00  0.00    +0.000 C 
ATOM      3  C   UNL     1      47.897   9.224  13.559  0.00  0.00    +0.000 C 
ENDROOT
BRANCH   1   7
ATOM      4  C   UNL     1      45.188   4.943  13.284  0.00  0.00    +0.000 A 
ATOM      5  C   UNL     1      46.464   4.581  13.706  0.00  0.00    +0.000 A 
ATOM      6  C   UNL     1      47.515   5.500  13.667  0.00  0.00    +0.000 A 
ATOM      7  C   UNL     1      47.332   6.807  13.199  0.00  0.00    +0.000 A 
ATOM      8  C   UNL     1      46.039   7.154  12.761  0.00  0.00    +0.000 A 
ATOM      9  C   UNL     1      44.982   6.235  12.807  0.00  0.00    +0.000 A 
BRANCH   4  10
ATOM     10  O   UNL     1      44.086   4.128  13.300  0.00  0.00    +0.000 OA
BRANCH  10  11
ATOM     11  C   UNL     1      43.340   4.097  12.077  0.00  0.00    +0.000 C 
BRANCH  11  12
ATOM     12  C   UNL     1      43.713   2.846  11.271  0.00  0.00    +0.000 C 
BRANCH  12  14
ATOM     13  C   UNL     1      44.547   4.418   9.651  0.00  0.00    +0.000 C 
ATOM     14  N   UNL     1      43.921   3.106   9.831  0.00  0.00    +0.000 NA
ATOM     15  C   UNL     1      44.739   2.076   9.190  0.00  0.00    +0.000 C 
ENDBRANCH  12  14
ENDBRANCH  11  12
ENDBRANCH  10  11
ENDBRANCH   4  10
ENDBRANCH   1   7
BRANCH   1  16
ATOM     16  C   UNL     1      49.623   7.550  14.200  0.00  0.00    +0.000 C 
BRANCH  16  17
ATOM     17  O   UNL     1      49.308   8.066  15.500  0.00  0.00    +0.000 OA
BRANCH  17  18
ATOM     18  C   UNL     1      49.290   7.167  16.532  0.00  0.00    +0.000 A 
ATOM     19  C   UNL     1      50.044   5.993  16.594  0.00  0.00    +0.000 A 
ATOM     20  C   UNL     1      49.914   5.134  17.686  0.00  0.00    +0.000 A 
ATOM     21  C   UNL     1      49.039   5.441  18.734  0.00  0.00    +0.000 A 
ATOM     22  C   UNL     1      48.286   6.619  18.679  0.00  0.00    +0.000 A 
ATOM     23  C   UNL     1      48.415   7.476  17.578  0.00  0.00    +0.000 A 
BRANCH  21  24
ATOM     24  C   UNL     1      48.924   4.466  19.849  0.00  0.00    +0.000 C 
ATOM     25  N   UNL     1      48.324   3.268  19.589  0.00  0.00    +0.000 N 
ATOM     26  O   UNL     1      49.317   4.736  20.979  0.00  0.00    +0.000 OA
ATOM     27  H   UNL     1      47.783   3.098  18.754  0.00  0.00    +0.000 HD
ATOM     28  H   UNL     1      48.157   2.671  20.388  0.00  0.00    +0.000 HD
ENDBRANCH  21  24
ENDBRANCH  17  18
ENDBRANCH  16  17
ENDBRANCH   1  16
TORSDOF 9
ENDMDL
MODEL 8
REMARK VINA RESULT:    -5.537      3.368      8.926
REMARK INTER + INTRA:          -9.615
REMARK INTER:                  -8.111
REMARK INTRA:                  -1.504
REMARK UNBOUND:                -1.165
REMARK  Name = 
REMARK  13 active torsions:
REMARK  status: ('A' for Active; 'I' for Inactive)
REMARK    1  A    between atoms: C_1  and  N_2
REMARK    2  A    between atoms: N_2  and  C_3
REMARK    3  A    between atoms: N_2  and  C_4
REMARK    4  A    between atoms: C_4  and  C_5
REMARK    5  A    between atoms: C_5  and  O_6
REMARK    6  A    between atoms: O_6  and  C_7
REMARK    7  A    between atoms: C_10  and  C_11
REMARK    8  A    between atoms: C_11  and  C_12
REMARK    9  A    between atoms: C_11  and  C_13
REMARK   10  A    between atoms: C_11  and  C_14
REMARK   11  A    between atoms: C_14  and  O_15
REMARK   12  A    between atoms: O_15  and  C_16
REMARK   13  A    between atoms: C_19  and  C_20
REMARK                            x       y       z     vdW  Elec       q    Type
REMARK                         _______ _______ _______ _____ _____    ______ ____
ROOT
ATOM      1  C   UNL     1      49.707   8.653  12.500  0.00  0.00    +0.000 C 
ATOM      2  C   UNL     1      50.451   8.183  11.232  0.00  0.00    +0.000 C 
ATOM      3  C   UNL     1      49.486  10.183  12.421  0.00  0.00    +0.000 C 
ENDROOT
BRANCH   1   7
ATOM      4  C   UNL     1      45.788   6.717  12.828  0.00  0.00    +0.000 A 
ATOM      5  C   UNL     1      46.948   5.954  12.722  0.00  0.00    +0.000 A 
ATOM      6  C   UNL     1      48.197   6.569  12.611  0.00  0.00    +0.000 A 
ATOM      7  C   UNL     1      48.332   7.963  12.592  0.00  0.00    +0.000 A 
ATOM      8  C   UNL     1      47.148   8.721  12.684  0.00  0.00    +0.000 A 
ATOM      9  C   UNL     1      45.895   8.105  12.804  0.00  0.00    +0.000 A 
BRANCH   4  10
ATOM     10  O   UNL     1      44.519   6.217  12.962  0.00  0.00    +0.000 OA
BRANCH  10  11
ATOM     11  C   UNL     1      43.743   6.204  11.757  0.00  0.00    +0.000 C 
BRANCH  11  12
ATOM     12  C   UNL     1      42.671   5.112  11.839  0.00  0.00    +0.000 C 
BRANCH  12  14
ATOM     13  C   UNL     1      44.065   4.159  10.124  0.00  0.00    +0.000 C 
ATOM     14  N   UNL     1      43.029   3.871  11.119  0.00  0.00    +0.000 NA
ATOM     15  C   UNL     1      43.490   2.815  12.021  0.00  0.00    +0.000 C 
ENDBRANCH  12  14
ENDBRANCH  11  12
ENDBRANCH  10  11
ENDBRANCH   4  10
ENDBRANCH   1   7
BRANCH   1  16
ATOM     16  C   UNL     1      50.635   8.408  13.732  0.00  0.00    +0.000 C 
BRANCH  16  17
ATOM     17  O   UNL     1      50.198   9.158  14.872  0.00  0.00    +0.000 OA
BRANCH  17  18
ATOM     18  C   UNL     1      49.605   8.453  15.884  0.00  0.00    +0.000 A 
ATOM     19  C   UNL     1      49.739   7.080  16.098  0.00  0.00    +0.000 A 
ATOM     20  C   UNL     1      49.054   6.464  17.147  0.00  0.00    +0.000 A 
ATOM     21  C   UNL     1      48.237   7.212  18.000  0.00  0.00    +0.000 A 
ATOM     22  C   UNL     1      48.105   8.590  17.795  0.00  0.00    +0.000 A 
ATOM     23  C   UNL     1      48.789   9.203  16.737  0.00  0.00    +0.000 A 
BRANCH  21  24
ATOM     24  C   UNL     1      47.510   6.488  19.076  0.00  0.00    +0.000 C 
ATOM     25  N   UNL     1      46.613   5.529  18.703  0.00  0.00    +0.000 N 
ATOM     26  O   UNL     1      47.675   6.764  20.259  0.00  0.00    +0.000 OA
ATOM     27  H   UNL     1      46.275   5.434  17.756  0.00  0.00    +0.000 HD
ATOM     28  H   UNL     1      46.052   5.132  19.445  0.00  0.00    +0.000 HD
ENDBRANCH  21  24
ENDBRANCH  17  18
ENDBRANCH  16  17
ENDBRANCH   1  16
TORSDOF 9
ENDMDL
MODEL 9
REMARK VINA RESULT:    -5.098      3.800      8.573
REMARK INTER + INTRA:          -8.945
REMARK INTER:                  -7.663
REMARK INTRA:                  -1.283
REMARK UNBOUND:                -1.165
REMARK  Name = 
REMARK  13 active torsions:
REMARK  status: ('A' for Active; 'I' for Inactive)
REMARK    1  A    between atoms: C_1  and  N_2
REMARK    2  A    between atoms: N_2  and  C_3
REMARK    3  A    between atoms: N_2  and  C_4
REMARK    4  A    between atoms: C_4  and  C_5
REMARK    5  A    between atoms: C_5  and  O_6
REMARK    6  A    between atoms: O_6  and  C_7
REMARK    7  A    between atoms: C_10  and  C_11
REMARK    8  A    between atoms: C_11  and  C_12
REMARK    9  A    between atoms: C_11  and  C_13
REMARK   10  A    between atoms: C_11  and  C_14
REMARK   11  A    between atoms: C_14  and  O_15
REMARK   12  A    between atoms: O_15  and  C_16
REMARK   13  A    between atoms: C_19  and  C_20
REMARK                            x       y       z     vdW  Elec       q    Type
REMARK                         _______ _______ _______ _____ _____    ______ ____
ROOT
ATOM      1  C   UNL     1      50.363   9.526  14.343  0.00  0.00    +0.000 C 
ATOM      2  C   UNL     1      51.680   9.429  13.544  0.00  0.00    +0.000 C 
ATOM      3  C   UNL     1      50.023  11.017  14.582  0.00  0.00    +0.000 C 
ENDROOT
BRANCH   1   7
ATOM      4  C   UNL     1      47.073   7.660  12.127  0.00  0.00    +0.000 A 
ATOM      5  C   UNL     1      48.395   7.444  11.747  0.00  0.00    +0.000 A 
ATOM      6  C   UNL     1      49.444   8.043  12.447  0.00  0.00    +0.000 A 
ATOM      7  C   UNL     1      49.212   8.884  13.544  0.00  0.00    +0.000 A 
ATOM      8  C   UNL     1      47.869   9.105  13.906  0.00  0.00    +0.000 A 
ATOM      9  C   UNL     1      46.816   8.498  13.209  0.00  0.00    +0.000 A 
BRANCH   4  10
ATOM     10  O   UNL     1      45.973   7.107  11.524  0.00  0.00    +0.000 OA
BRANCH  10  11
ATOM     11  C   UNL     1      44.860   6.871  12.394  0.00  0.00    +0.000 C 
BRANCH  11  12
ATOM     12  C   UNL     1      44.590   5.365  12.498  0.00  0.00    +0.000 C 
BRANCH  12  14
ATOM     13  C   UNL     1      43.318   3.451  11.787  0.00  0.00    +0.000 C 
ATOM     14  N   UNL     1      43.533   4.885  11.584  0.00  0.00    +0.000 NA
ATOM     15  C   UNL     1      42.270   5.604  11.763  0.00  0.00    +0.000 C 
ENDBRANCH  12  14
ENDBRANCH  11  12
ENDBRANCH  10  11
ENDBRANCH   4  10
ENDBRANCH   1   7
BRANCH   1  16
ATOM     16  C   UNL     1      50.598   8.898  15.753  0.00  0.00    +0.000 C 
BRANCH  16  17
ATOM     17  O   UNL     1      51.087   7.554  15.651  0.00  0.00    +0.000 OA
BRANCH  17  18
ATOM     18  C   UNL     1      50.341   6.579  16.255  0.00  0.00    +0.000 A 
ATOM     19  C   UNL     1      50.791   5.724  17.263  0.00  0.00    +0.000 A 
ATOM     20  C   UNL     1      49.945   4.742  17.779  0.00  0.00    +0.000 A 
ATOM     21  C   UNL     1      48.636   4.608  17.303  0.00  0.00    +0.000 A 
ATOM     22  C   UNL     1      48.177   5.466  16.298  0.00  0.00    +0.000 A 
ATOM     23  C   UNL     1      49.033   6.447  15.778  0.00  0.00    +0.000 A 
BRANCH  21  24
ATOM     24  C   UNL     1      47.800   3.519  17.872  0.00  0.00    +0.000 C 
ATOM     25  N   UNL     1      48.236   2.911  19.014  0.00  0.00    +0.000 N 
ATOM     26  O   UNL     1      46.772   3.144  17.318  0.00  0.00    +0.000 OA
ATOM     27  H   UNL     1      49.176   3.020  19.366  0.00  0.00    +0.000 HD
ATOM     28  H   UNL     1      47.710   2.101  19.316  0.00  0.00    +0.000 HD
ENDBRANCH  21  24
ENDBRANCH  17  18
ENDBRANCH  16  17
ENDBRANCH   1  16
TORSDOF 9
ENDMDL
