MODEL 1
REMARK VINA RESULT:    -9.381      0.000      0.000
REMARK INTER + INTRA:         -13.811
REMARK INTER:                 -12.671
REMARK INTRA:                  -1.139
REMARK UNBOUND:                -1.139
REMARK  Name = 
REMARK  6 active torsions:
REMARK  status: ('A' for Active; 'I' for Inactive)
REMARK    1  A    between atoms: C_2  and  C_4
REMARK    2  A    between atoms: C_7  and  N_8
REMARK    3  A    between atoms: N_8  and  C_9
REMARK    4  A    between atoms: C_9  and  C_10
REMARK    5  A    between atoms: C_10  and  C_13
REMARK    6  A    between atoms: C_17  and  C_18
REMARK                            x       y       z     vdW  Elec       q    Type
REMARK                         _______ _______ _______ _____ _____    ______ ____
ROOT
ATOM      1  C   UNL     1      43.619   5.523  12.197  0.00  0.00    +0.000 C 
ATOM      2  F   UNL     1      43.232   6.601  11.447  0.00  0.00    +0.000 F 
ATOM      3  F   UNL     1      42.797   5.544  13.292  0.00  0.00    +0.000 F 
ENDROOT
BRANCH   1   4
ATOM      4  C   UNL     1      45.085   5.614  12.575  0.00  0.00    +0.000 A 
ATOM      5  C   UNL     1      45.936   6.483  11.878  0.00  0.00    +0.000 A 
ATOM      6  C   UNL     1      47.274   6.597  12.234  0.00  0.00    +0.000 A 
ATOM      7  C   UNL     1      47.772   5.860  13.312  0.00  0.00    +0.000 A 
ATOM      8  C   UNL     1      46.947   5.001  14.062  0.00  0.00    +0.000 A 
ATOM      9  C   UNL     1      45.608   4.863  13.647  0.00  0.00    +0.000 A 
BRANCH   8  10
ATOM     10  C   UNL     1      47.447   4.321  15.278  0.00  0.00    +0.000 A 
ATOM     11  C   UNL     1      47.513   4.975  16.512  0.00  0.00    +0.000 A 
ATOM     12  C   UNL     1      47.950   4.282  17.637  0.00  0.00    +0.000 A 
ATOM     13  C   UNL     1      48.310   2.949  17.511  0.00  0.00    +0.000 A 
ATOM     14  C   UNL     1      48.215   2.366  16.259  0.00  0.00    +0.000 A 
ATOM     15  N   UNL     1      47.792   3.015  15.149  0.00  0.00    +0.000 NA
ENDBRANCH   8  10
ENDBRANCH   1   4
BRANCH   1  16
ATOM     16  C   UNL     1      43.315   4.231  11.397  0.00  0.00    +0.000 C 
BRANCH  16  17
ATOM     17  N   UNL     1      43.477   4.404   9.940  0.00  0.00    +0.000 N 
ATOM     18  H   UNL     1      42.601   4.438   9.420  0.00  0.00    +0.000 HD
BRANCH  17  22
ATOM     19  C   UNL     1      46.511   2.509   7.705  0.00  0.00    +0.000 A 
ATOM     20  C   UNL     1      46.367   3.895   7.636  0.00  0.00    +0.000 A 
ATOM     21  C   UNL     1      45.378   4.537   8.392  0.00  0.00    +0.000 A 
ATOM     22  C   UNL     1      44.534   3.824   9.250  0.00  0.00    +0.000 A 
ATOM     23  C   UNL     1      44.682   2.429   9.293  0.00  0.00    +0.000 A 
ATOM     24  C   UNL     1      45.656   1.773   8.527  0.00  0.00    +0.000 A 
BRANCH  19  26
ATOM     25  N   UNL     1      48.589   2.516   6.432  0.00  0.00    +0.000 N 
ATOM     26  C   UNL     1      47.520   1.792   6.884  0.00  0.00    +0.000 C 
ATOM     27  O   UNL     1      47.423   0.595   6.641  0.00  0.00    +0.000 OA
ATOM     28  H   UNL     1      49.315   1.997   5.955  0.00  0.00    +0.000 HD
ATOM     29  H   UNL     1      48.827   3.424   6.806  0.00  0.00    +0.000 HD
ENDBRANCH  19  26
ENDBRANCH  17  22
ENDBRANCH  16  17
ENDBRANCH   1  16
TORSDOF 6
ENDMDL
MODEL 2
REMARK VINA RESULT:    -9.126      2.164      4.013
REMARK INTER + INTRA:         -13.466
REMARK INTER:                 -12.321
REMARK INTRA:                  -1.145
REMARK UNBOUND:                -1.139
REMARK  Name = 
REMARK  6 active torsions:
REMARK  status: ('A' for Active; 'I' for Inactive)
REMARK    1  A    between atoms: C_2  and  C_4
REMARK    2  A    between atoms: C_7  and  N_8
REMARK    3  A    between atoms: N_8  and  C_9
REMARK    4  A    between atoms: C_9  and  C_10
REMARK    5  A    between atoms: C_10  and  C_13
REMARK    6  A    between atoms: C_17  and  C_18
REMARK                            x       y       z     vdW  Elec       q    Type
REMARK                         _______ _______ _______ _____ _____    ______ ____
ROOT
ATOM      1  C   UNL     1      43.344   4.626  12.788  0.00  0.00    +0.000 C 
ATOM      2  F   UNL     1      42.396   5.605  12.648  0.00  0.00    +0.000 F 
ATOM      3  F   UNL     1      42.951   3.913  13.889  0.00  0.00    +0.000 F 
ENDROOT
BRANCH   1   4
ATOM      4  C   UNL     1      44.729   5.222  12.950  0.00  0.00    +0.000 A 
ATOM      5  C   UNL     1      45.806   4.401  13.315  0.00  0.00    +0.000 A 
ATOM      6  C   UNL     1      47.086   4.930  13.438  0.00  0.00    +0.000 A 
ATOM      7  C   UNL     1      47.308   6.283  13.170  0.00  0.00    +0.000 A 
ATOM      8  C   UNL     1      46.263   7.136  12.767  0.00  0.00    +0.000 A 
ATOM      9  C   UNL     1      44.967   6.588  12.702  0.00  0.00    +0.000 A 
BRANCH   8  10
ATOM     10  C   UNL     1      46.526   8.536  12.362  0.00  0.00    +0.000 A 
ATOM     11  C   UNL     1      47.820   8.998  12.110  0.00  0.00    +0.000 A 
ATOM     12  C   UNL     1      48.014  10.312  11.690  0.00  0.00    +0.000 A 
ATOM     13  C   UNL     1      46.913  11.137  11.526  0.00  0.00    +0.000 A 
ATOM     14  C   UNL     1      45.660  10.609  11.790  0.00  0.00    +0.000 A 
ATOM     15  N   UNL     1      45.442   9.336  12.197  0.00  0.00    +0.000 NA
ENDBRANCH   8  10
ENDBRANCH   1   4
BRANCH   1  16
ATOM     16  C   UNL     1      43.266   3.686  11.558  0.00  0.00    +0.000 C 
BRANCH  16  17
ATOM     17  N   UNL     1      43.701   4.336  10.307  0.00  0.00    +0.000 N 
ATOM     18  H   UNL     1      42.957   4.813   9.800  0.00  0.00    +0.000 HD
BRANCH  17  22
ATOM     19  C   UNL     1      46.495   2.511   7.728  0.00  0.00    +0.000 A 
ATOM     20  C   UNL     1      46.335   3.896   7.702  0.00  0.00    +0.000 A 
ATOM     21  C   UNL     1      45.428   4.515   8.571  0.00  0.00    +0.000 A 
ATOM     22  C   UNL     1      44.683   3.778   9.498  0.00  0.00    +0.000 A 
ATOM     23  C   UNL     1      44.843   2.385   9.497  0.00  0.00    +0.000 A 
ATOM     24  C   UNL     1      45.735   1.752   8.620  0.00  0.00    +0.000 A 
BRANCH  19  26
ATOM     25  N   UNL     1      48.543   2.492   6.407  0.00  0.00    +0.000 N 
ATOM     26  C   UNL     1      47.416   1.817   6.791  0.00  0.00    +0.000 C 
ATOM     27  O   UNL     1      47.200   0.679   6.396  0.00  0.00    +0.000 OA
ATOM     28  H   UNL     1      49.207   1.975   5.845  0.00  0.00    +0.000 HD
ATOM     29  H   UNL     1      48.873   3.316   6.890  0.00  0.00    +0.000 HD
ENDBRANCH  19  26
ENDBRANCH  17  22
ENDBRANCH  16  17
ENDBRANCH   1  16
TORSDOF 6
ENDMDL
MODEL 3
REMARK VINA RESULT:    -8.616      1.221      1.749
REMARK INTER + INTRA:         -12.778
REMARK INTER:                 -11.536
REMARK INTRA:                  -1.242
REMARK UNBOUND:                -1.139
REMARK  Name = 
REMARK  6 active torsions:
REMARK  status: ('A' for Active; 'I' for Inactive)
REMARK    1  A    between atoms: C_2  and  C_4
REMARK    2  A    between atoms: C_7  and  N_8
REMARK    3  A    between atoms: N_8  and  C_9
REMARK    4  A    between atoms: C_9  and  C_10
REMARK    5  A    between atoms: C_10  and  C_13
REMARK    6  A    between atoms: C_17  and  C_18
REMARK                            x       y       z     vdW  Elec       q    Type
REMARK                         _______ _______ _______ _____ _____    ______ ____
ROOT
ATOM      1  C   UNL     1      44.082   4.785  12.408  0.00  0.00    +0.000 C 
ATOM      2  F   UNL     1      43.177   5.350  13.266  0.00  0.00    +0.000 F 
ATOM      3  F   UNL     1      44.033   3.444  12.679  0.00  0.00    +0.000 F 
ENDROOT
BRANCH   1   4
ATOM      4  C   UNL     1      45.469   5.364  12.613  0.00  0.00    +0.000 A 
ATOM      5  C   UNL     1      46.025   6.212  11.644  0.00  0.00    +0.000 A 
ATOM      6  C   UNL     1      47.282   6.772  11.834  0.00  0.00    +0.000 A 
ATOM      7  C   UNL     1      47.989   6.511  13.011  0.00  0.00    +0.000 A 
ATOM      8  C   UNL     1      47.455   5.695  14.027  0.00  0.00    +0.000 A 
ATOM      9  C   UNL     1      46.203   5.096  13.785  0.00  0.00    +0.000 A 
BRANCH   8  10
ATOM     10  C   UNL     1      48.150   5.525  15.323  0.00  0.00    +0.000 A 
ATOM     11  C   UNL     1      47.729   4.583  16.265  0.00  0.00    +0.000 A 
ATOM     12  C   UNL     1      48.440   4.430  17.453  0.00  0.00    +0.000 A 
ATOM     13  C   UNL     1      49.559   5.218  17.675  0.00  0.00    +0.000 A 
ATOM     14  C   UNL     1      49.919   6.127  16.695  0.00  0.00    +0.000 A 
ATOM     15  N   UNL     1      49.248   6.295  15.531  0.00  0.00    +0.000 NA
ENDBRANCH   8  10
ENDBRANCH   1   4
BRANCH   1  16
ATOM     16  C   UNL     1      43.584   4.997  10.955  0.00  0.00    +0.000 C 
BRANCH  16  17
ATOM     17  N   UNL     1      43.425   3.732  10.211  0.00  0.00    +0.000 N 
ATOM     18  H   UNL     1      42.953   2.994  10.732  0.00  0.00    +0.000 HD
BRANCH  17  22
ATOM     19  C   UNL     1      46.544   2.497   7.654  0.00  0.00    +0.000 A 
ATOM     20  C   UNL     1      45.839   1.545   8.393  0.00  0.00    +0.000 A 
ATOM     21  C   UNL     1      44.786   1.942   9.227  0.00  0.00    +0.000 A 
ATOM     22  C   UNL     1      44.394   3.281   9.324  0.00  0.00    +0.000 A 
ATOM     23  C   UNL     1      45.125   4.226   8.588  0.00  0.00    +0.000 A 
ATOM     24  C   UNL     1      46.192   3.844   7.763  0.00  0.00    +0.000 A 
BRANCH  19  26
ATOM     25  N   UNL     1      48.596   3.098   6.486  0.00  0.00    +0.000 N 
ATOM     26  C   UNL     1      47.694   2.116   6.794  0.00  0.00    +0.000 C 
ATOM     27  O   UNL     1      47.853   0.969   6.398  0.00  0.00    +0.000 OA
ATOM     28  H   UNL     1      49.422   2.807   5.980  0.00  0.00    +0.000 HD
ATOM     29  H   UNL     1      48.633   3.977   6.982  0.00  0.00    +0.000 HD
ENDBRANCH  19  26
ENDBRANCH  17  22
ENDBRANCH  16  17
ENDBRANCH   1  16
TORSDOF 6
ENDMDL
MODEL 4
REMARK VINA RESULT:    -7.820      2.832      7.380
REMARK INTER + INTRA:         -11.702
REMARK INTER:                 -10.860
REMARK INTRA:                  -0.842
REMARK UNBOUND:                -1.139
REMARK  Name = 
REMARK  6 active torsions:
REMARK  status: ('A' for Active; 'I' for Inactive)
REMARK    1  A    between atoms: C_2  and  C_4
REMARK    2  A    between atoms: C_7  and  N_8
REMARK    3  A    between atoms: N_8  and  C_9
REMARK    4  A    between atoms: C_9  and  C_10
REMARK    5  A    between atoms: C_10  and  C_13
REMARK    6  A    between atoms: C_17  and  C_18
REMARK                            x       y       z     vdW  Elec       q    Type
REMARK                         _______ _______ _______ _____ _____    ______ ____
ROOT
ATOM      1  C   UNL     1      44.504   6.310  11.891  0.00  0.00    +0.000 C 
ATOM      2  F   UNL     1      44.140   6.389  13.209  0.00  0.00    +0.000 F 
ATOM      3  F   UNL     1      43.665   7.178  11.244  0.00  0.00    +0.000 F 
ENDROOT
BRANCH   1   4
ATOM      4  C   UNL     1      44.378   4.891  11.371  0.00  0.00    +0.000 A 
ATOM      5  C   UNL     1      43.444   4.015  11.942  0.00  0.00    +0.000 A 
ATOM      6  C   UNL     1      43.300   2.722  11.454  0.00  0.00    +0.000 A 
ATOM      7  C   UNL     1      44.071   2.297  10.370  0.00  0.00    +0.000 A 
ATOM      8  C   UNL     1      44.997   3.153   9.743  0.00  0.00    +0.000 A 
ATOM      9  C   UNL     1      45.162   4.440  10.290  0.00  0.00    +0.000 A 
BRANCH   8  10
ATOM     10  C   UNL     1      45.718   2.742   8.517  0.00  0.00    +0.000 A 
ATOM     11  C   UNL     1      46.012   3.650   7.497  0.00  0.00    +0.000 A 
ATOM     12  C   UNL     1      46.730   3.226   6.382  0.00  0.00    +0.000 A 
ATOM     13  C   UNL     1      47.143   1.905   6.308  0.00  0.00    +0.000 A 
ATOM     14  C   UNL     1      46.820   1.063   7.358  0.00  0.00    +0.000 A 
ATOM     15  N   UNL     1      46.125   1.448   8.455  0.00  0.00    +0.000 NA
ENDBRANCH   8  10
ENDBRANCH   1   4
BRANCH   1  16
ATOM     16  C   UNL     1      45.951   6.846  11.745  0.00  0.00    +0.000 C 
BRANCH  16  17
ATOM     17  N   UNL     1      46.972   5.867  12.164  0.00  0.00    +0.000 N 
ATOM     18  H   UNL     1      47.046   5.050  11.559  0.00  0.00    +0.000 HD
BRANCH  17  22
ATOM     19  C   UNL     1      47.902   4.893  16.161  0.00  0.00    +0.000 A 
ATOM     20  C   UNL     1      48.372   6.088  15.616  0.00  0.00    +0.000 A 
ATOM     21  C   UNL     1      48.049   6.432  14.297  0.00  0.00    +0.000 A 
ATOM     22  C   UNL     1      47.235   5.616  13.505  0.00  0.00    +0.000 A 
ATOM     23  C   UNL     1      46.788   4.409  14.064  0.00  0.00    +0.000 A 
ATOM     24  C   UNL     1      47.118   4.045  15.376  0.00  0.00    +0.000 A 
BRANCH  19  26
ATOM     25  N   UNL     1      47.310   4.634  18.510  0.00  0.00    +0.000 N 
ATOM     26  C   UNL     1      48.262   4.475  17.541  0.00  0.00    +0.000 C 
ATOM     27  O   UNL     1      49.350   3.980  17.803  0.00  0.00    +0.000 OA
ATOM     28  H   UNL     1      47.531   4.260  19.424  0.00  0.00    +0.000 HD
ATOM     29  H   UNL     1      46.338   4.806  18.295  0.00  0.00    +0.000 HD
ENDBRANCH  19  26
ENDBRANCH  17  22
ENDBRANCH  16  17
ENDBRANCH   1  16
TORSDOF 6
ENDMDL
MODEL 5
REMARK VINA RESULT:    -7.812      2.791      7.245
REMARK INTER + INTRA:         -11.691
REMARK INTER:                 -10.786
REMARK INTRA:                  -0.906
REMARK UNBOUND:                -1.139
REMARK  Name = 
REMARK  6 active torsions:
REMARK  status: ('A' for Active; 'I' for Inactive)
REMARK    1  A    between atoms: C_2  and  C_4
REMARK    2  A    between atoms: C_7  and  N_8
REMARK    3  A    between atoms: N_8  and  C_9
REMARK    4  A    between atoms: C_9  and  C_10
REMARK    5  A    between atoms: C_10  and  C_13
REMARK    6  A    between atoms: C_17  and  C_18
REMARK                            x       y       z     vdW  Elec       q    Type
REMARK                         _______ _______ _______ _____ _____    ______ ____
ROOT
ATOM      1  C   UNL     1      45.528   7.392  11.847  0.00  0.00    +0.000 C 
ATOM      2  F   UNL     1      45.147   7.662  13.134  0.00  0.00    +0.000 F 
ATOM      3  F   UNL     1      45.124   8.483  11.125  0.00  0.00    +0.000 F 
ENDROOT
BRANCH   1   4
ATOM      4  C   UNL     1      44.902   6.104  11.347  0.00  0.00    +0.000 A 
ATOM      5  C   UNL     1      43.626   5.728  11.790  0.00  0.00    +0.000 A 
ATOM      6  C   UNL     1      43.029   4.565  11.317  0.00  0.00    +0.000 A 
ATOM      7  C   UNL     1      43.692   3.778  10.372  0.00  0.00    +0.000 A 
ATOM      8  C   UNL     1      44.959   4.135   9.873  0.00  0.00    +0.000 A 
ATOM      9  C   UNL     1      45.565   5.288  10.409  0.00  0.00    +0.000 A 
BRANCH   8  10
ATOM     10  C   UNL     1      45.600   3.368   8.781  0.00  0.00    +0.000 A 
ATOM     11  C   UNL     1      46.150   4.001   7.662  0.00  0.00    +0.000 A 
ATOM     12  C   UNL     1      46.780   3.241   6.681  0.00  0.00    +0.000 A 
ATOM     13  C   UNL     1      46.854   1.865   6.836  0.00  0.00    +0.000 A 
ATOM     14  C   UNL     1      46.291   1.309   7.972  0.00  0.00    +0.000 A 
ATOM     15  N   UNL     1      45.675   2.023   8.942  0.00  0.00    +0.000 NA
ENDBRANCH   8  10
ENDBRANCH   1   4
BRANCH   1  16
ATOM     16  C   UNL     1      47.076   7.332  11.793  0.00  0.00    +0.000 C 
BRANCH  16  17
ATOM     17  N   UNL     1      47.703   7.440  13.125  0.00  0.00    +0.000 N 
ATOM     18  H   UNL     1      48.528   8.037  13.155  0.00  0.00    +0.000 HD
BRANCH  17  22
ATOM     19  C   UNL     1      47.678   4.317  15.960  0.00  0.00    +0.000 A 
ATOM     20  C   UNL     1      47.051   4.134  14.727  0.00  0.00    +0.000 A 
ATOM     21  C   UNL     1      47.074   5.156  13.769  0.00  0.00    +0.000 A 
ATOM     22  C   UNL     1      47.739   6.364  14.003  0.00  0.00    +0.000 A 
ATOM     23  C   UNL     1      48.348   6.537  15.255  0.00  0.00    +0.000 A 
ATOM     24  C   UNL     1      48.317   5.529  16.229  0.00  0.00    +0.000 A 
BRANCH  19  26
ATOM     25  N   UNL     1      48.833   2.782  17.458  0.00  0.00    +0.000 N 
ATOM     26  C   UNL     1      47.635   3.272  17.015  0.00  0.00    +0.000 C 
ATOM     27  O   UNL     1      46.579   2.882  17.496  0.00  0.00    +0.000 OA
ATOM     28  H   UNL     1      48.795   2.141  18.241  0.00  0.00    +0.000 HD
ATOM     29  H   UNL     1      49.712   3.241  17.268  0.00  0.00    +0.000 HD
ENDBRANCH  19  26
ENDBRANCH  17  22
ENDBRANCH  16  17
ENDBRANCH   1  16
TORSDOF 6
ENDMDL
MODEL 6
REMARK VINA RESULT:    -7.730      2.977      3.798
REMARK INTER + INTRA:         -11.581
REMARK INTER:                 -10.602
REMARK INTRA:                  -0.978
REMARK UNBOUND:                -1.139
REMARK  Name = 
REMARK  6 active torsions:
REMARK  status: ('A' for Active; 'I' for Inactive)
REMARK    1  A    between atoms: C_2  and  C_4
REMARK    2  A    between atoms: C_7  and  N_8
REMARK    3  A    between atoms: N_8  and  C_9
REMARK    4  A    between atoms: C_9  and  C_10
REMARK    5  A    between atoms: C_10  and  C_13
REMARK    6  A    between atoms: C_17  and  C_18
REMARK                            x       y       z     vdW  Elec       q    Type
REMARK                         _______ _______ _______ _____ _____    ______ ____
ROOT
ATOM      1  C   UNL     1      44.759   4.791  12.239  0.00  0.00    +0.000 C 
ATOM      2  F   UNL     1      44.408   4.557  13.541  0.00  0.00    +0.000 F 
ATOM      3  F   UNL     1      45.735   3.870  11.967  0.00  0.00    +0.000 F 
ENDROOT
BRANCH   1   4
ATOM      4  C   UNL     1      45.242   6.217  12.048  0.00  0.00    +0.000 A 
ATOM      5  C   UNL     1      44.313   7.258  11.906  0.00  0.00    +0.000 A 
ATOM      6  C   UNL     1      44.743   8.571  11.760  0.00  0.00    +0.000 A 
ATOM      7  C   UNL     1      46.110   8.862  11.780  0.00  0.00    +0.000 A 
ATOM      8  C   UNL     1      47.076   7.853  11.955  0.00  0.00    +0.000 A 
ATOM      9  C   UNL     1      46.617   6.525  12.047  0.00  0.00    +0.000 A 
BRANCH   8  10
ATOM     10  C   UNL     1      48.512   8.181  12.103  0.00  0.00    +0.000 A 
ATOM     11  C   UNL     1      49.500   7.499  11.387  0.00  0.00    +0.000 A 
ATOM     12  C   UNL     1      50.834   7.871  11.528  0.00  0.00    +0.000 A 
ATOM     13  C   UNL     1      51.157   8.917  12.378  0.00  0.00    +0.000 A 
ATOM     14  C   UNL     1      50.126   9.549  13.052  0.00  0.00    +0.000 A 
ATOM     15  N   UNL     1      48.820   9.210  12.932  0.00  0.00    +0.000 NA
ENDBRANCH   8  10
ENDBRANCH   1   4
BRANCH   1  16
ATOM     16  C   UNL     1      43.540   4.475  11.335  0.00  0.00    +0.000 C 
BRANCH  16  17
ATOM     17  N   UNL     1      43.799   4.739   9.906  0.00  0.00    +0.000 N 
ATOM     18  H   UNL     1      42.965   4.937   9.356  0.00  0.00    +0.000 HD
BRANCH  17  22
ATOM     19  C   UNL     1      46.655   2.609   7.647  0.00  0.00    +0.000 A 
ATOM     20  C   UNL     1      46.679   4.004   7.650  0.00  0.00    +0.000 A 
ATOM     21  C   UNL     1      45.750   4.721   8.416  0.00  0.00    +0.000 A 
ATOM     22  C   UNL     1      44.801   4.071   9.212  0.00  0.00    +0.000 A 
ATOM     23  C   UNL     1      44.780   2.669   9.181  0.00  0.00    +0.000 A 
ATOM     24  C   UNL     1      45.693   1.941   8.406  0.00  0.00    +0.000 A 
BRANCH  19  26
ATOM     25  N   UNL     1      48.360   2.506   5.909  0.00  0.00    +0.000 N 
ATOM     26  C   UNL     1      47.596   1.818   6.813  0.00  0.00    +0.000 C 
ATOM     27  O   UNL     1      47.713   0.606   6.942  0.00  0.00    +0.000 OA
ATOM     28  H   UNL     1      49.062   1.970   5.415  0.00  0.00    +0.000 HD
ATOM     29  H   UNL     1      48.469   3.509   5.942  0.00  0.00    +0.000 HD
ENDBRANCH  19  26
ENDBRANCH  17  22
ENDBRANCH  16  17
ENDBRANCH   1  16
TORSDOF 6
ENDMDL
MODEL 7
REMARK VINA RESULT:    -7.650      3.610      6.995
REMARK INTER + INTRA:         -11.473
REMARK INTER:                 -10.556
REMARK INTRA:                  -0.917
REMARK UNBOUND:                -1.139
REMARK  Name = 
REMARK  6 active torsions:
REMARK  status: ('A' for Active; 'I' for Inactive)
REMARK    1  A    between atoms: C_2  and  C_4
REMARK    2  A    between atoms: C_7  and  N_8
REMARK    3  A    between atoms: N_8  and  C_9
REMARK    4  A    between atoms: C_9  and  C_10
REMARK    5  A    between atoms: C_10  and  C_13
REMARK    6  A    between atoms: C_17  and  C_18
REMARK                            x       y       z     vdW  Elec       q    Type
REMARK                         _______ _______ _______ _____ _____    ______ ____
ROOT
ATOM      1  C   UNL     1      44.299   6.329  11.442  0.00  0.00    +0.000 C 
ATOM      2  F   UNL     1      43.050   6.884  11.360  0.00  0.00    +0.000 F 
ATOM      3  F   UNL     1      45.079   7.096  10.619  0.00  0.00    +0.000 F 
ENDROOT
BRANCH   1   4
ATOM      4  C   UNL     1      44.281   4.871  11.025  0.00  0.00    +0.000 A 
ATOM      5  C   UNL     1      43.417   3.970  11.664  0.00  0.00    +0.000 A 
ATOM      6  C   UNL     1      43.370   2.638  11.271  0.00  0.00    +0.000 A 
ATOM      7  C   UNL     1      44.169   2.197  10.213  0.00  0.00    +0.000 A 
ATOM      8  C   UNL     1      45.025   3.073   9.520  0.00  0.00    +0.000 A 
ATOM      9  C   UNL     1      45.094   4.405   9.973  0.00  0.00    +0.000 A 
BRANCH   8  10
ATOM     10  C   UNL     1      45.772   2.631   8.321  0.00  0.00    +0.000 A 
ATOM     11  C   UNL     1      45.974   3.476   7.226  0.00  0.00    +0.000 A 
ATOM     12  C   UNL     1      46.720   3.030   6.139  0.00  0.00    +0.000 A 
ATOM     13  C   UNL     1      47.253   1.751   6.165  0.00  0.00    +0.000 A 
ATOM     14  C   UNL     1      47.016   0.971   7.285  0.00  0.00    +0.000 A 
ATOM     15  N   UNL     1      46.297   1.380   8.357  0.00  0.00    +0.000 NA
ENDBRANCH   8  10
ENDBRANCH   1   4
BRANCH   1  16
ATOM     16  C   UNL     1      44.822   6.502  12.891  0.00  0.00    +0.000 C 
BRANCH  16  17
ATOM     17  N   UNL     1      45.421   7.828  13.133  0.00  0.00    +0.000 N 
ATOM     18  H   UNL     1      44.780   8.610  13.003  0.00  0.00    +0.000 HD
BRANCH  17  22
ATOM     19  C   UNL     1      49.408   8.488  11.925  0.00  0.00    +0.000 A 
ATOM     20  C   UNL     1      48.478   9.524  11.830  0.00  0.00    +0.000 A 
ATOM     21  C   UNL     1      47.158   9.323  12.251  0.00  0.00    +0.000 A 
ATOM     22  C   UNL     1      46.740   8.105  12.797  0.00  0.00    +0.000 A 
ATOM     23  C   UNL     1      47.684   7.069  12.867  0.00  0.00    +0.000 A 
ATOM     24  C   UNL     1      49.005   7.252  12.433  0.00  0.00    +0.000 A 
BRANCH  19  26
ATOM     25  N   UNL     1      51.709   7.694  11.815  0.00  0.00    +0.000 N 
ATOM     26  C   UNL     1      50.805   8.653  11.447  0.00  0.00    +0.000 C 
ATOM     27  O   UNL     1      51.137   9.587  10.729  0.00  0.00    +0.000 OA
ATOM     28  H   UNL     1      52.633   7.766  11.407  0.00  0.00    +0.000 HD
ATOM     29  H   UNL     1      51.429   6.800  12.193  0.00  0.00    +0.000 HD
ENDBRANCH  19  26
ENDBRANCH  17  22
ENDBRANCH  16  17
ENDBRANCH   1  16
TORSDOF 6
ENDMDL
MODEL 8
REMARK VINA RESULT:    -7.030      3.560      7.763
REMARK INTER + INTRA:         -10.635
REMARK INTER:                  -9.460
REMARK INTRA:                  -1.175
REMARK UNBOUND:                -1.139
REMARK  Name = 
REMARK  6 active torsions:
REMARK  status: ('A' for Active; 'I' for Inactive)
REMARK    1  A    between atoms: C_2  and  C_4
REMARK    2  A    between atoms: C_7  and  N_8
REMARK    3  A    between atoms: N_8  and  C_9
REMARK    4  A    between atoms: C_9  and  C_10
REMARK    5  A    between atoms: C_10  and  C_13
REMARK    6  A    between atoms: C_17  and  C_18
REMARK                            x       y       z     vdW  Elec       q    Type
REMARK                         _______ _______ _______ _____ _____    ______ ____
ROOT
ATOM      1  C   UNL     1      48.928   8.093  12.375  0.00  0.00    +0.000 C 
ATOM      2  F   UNL     1      49.389   9.062  11.524  0.00  0.00    +0.000 F 
ATOM      3  F   UNL     1      49.728   7.007  12.136  0.00  0.00    +0.000 F 
ENDROOT
BRANCH   1   4
ATOM      4  C   UNL     1      47.462   7.795  12.125  0.00  0.00    +0.000 A 
ATOM      5  C   UNL     1      46.484   8.733  12.487  0.00  0.00    +0.000 A 
ATOM      6  C   UNL     1      45.140   8.484  12.236  0.00  0.00    +0.000 A 
ATOM      7  C   UNL     1      44.760   7.302  11.596  0.00  0.00    +0.000 A 
ATOM      8  C   UNL     1      45.709   6.347  11.184  0.00  0.00    +0.000 A 
ATOM      9  C   UNL     1      47.059   6.599  11.498  0.00  0.00    +0.000 A 
BRANCH   8  10
ATOM     10  C   UNL     1      45.313   5.160  10.394  0.00  0.00    +0.000 A 
ATOM     11  C   UNL     1      45.719   4.990   9.067  0.00  0.00    +0.000 A 
ATOM     12  C   UNL     1      45.357   3.836   8.378  0.00  0.00    +0.000 A 
ATOM     13  C   UNL     1      44.601   2.872   9.025  0.00  0.00    +0.000 A 
ATOM     14  C   UNL     1      44.239   3.106  10.341  0.00  0.00    +0.000 A 
ATOM     15  N   UNL     1      44.578   4.217  11.037  0.00  0.00    +0.000 NA
ENDBRANCH   8  10
ENDBRANCH   1   4
BRANCH   1  16
ATOM     16  C   UNL     1      49.176   8.558  13.832  0.00  0.00    +0.000 C 
BRANCH  16  17
ATOM     17  N   UNL     1      50.011   7.616  14.603  0.00  0.00    +0.000 N 
ATOM     18  H   UNL     1      50.842   7.291  14.111  0.00  0.00    +0.000 HD
BRANCH  17  22
ATOM     19  C   UNL     1      48.326   4.604  17.029  0.00  0.00    +0.000 A 
ATOM     20  C   UNL     1      49.542   5.184  17.393  0.00  0.00    +0.000 A 
ATOM     21  C   UNL     1      50.098   6.201  16.608  0.00  0.00    +0.000 A 
ATOM     22  C   UNL     1      49.450   6.682  15.465  0.00  0.00    +0.000 A 
ATOM     23  C   UNL     1      48.238   6.074  15.104  0.00  0.00    +0.000 A 
ATOM     24  C   UNL     1      47.680   5.043  15.872  0.00  0.00    +0.000 A 
BRANCH  19  26
ATOM     25  N   UNL     1      48.345   3.157  18.989  0.00  0.00    +0.000 N 
ATOM     26  C   UNL     1      47.730   3.493  17.814  0.00  0.00    +0.000 C 
ATOM     27  O   UNL     1      46.713   2.917  17.449  0.00  0.00    +0.000 OA
ATOM     28  H   UNL     1      47.876   2.464  19.560  0.00  0.00    +0.000 HD
ATOM     29  H   UNL     1      49.025   3.754  19.437  0.00  0.00    +0.000 HD
ENDBRANCH  19  26
ENDBRANCH  17  22
ENDBRANCH  16  17
ENDBRANCH   1  16
TORSDOF 6
ENDMDL
MODEL 9
REMARK VINA RESULT:    -6.846      3.294      4.641
REMARK INTER + INTRA:         -10.386
REMARK INTER:                  -9.093
REMARK INTRA:                  -1.293
REMARK UNBOUND:                -1.139
REMARK  Name = 
REMARK  6 active torsions:
REMARK  status: ('A' for Active; 'I' for Inactive)
REMARK    1  A    between atoms: C_2  and  C_4
REMARK    2  A    between atoms: C_7  and  N_8
REMARK    3  A    between atoms: N_8  and  C_9
REMARK    4  A    between atoms: C_9  and  C_10
REMARK    5  A    between atoms: C_10  and  C_13
REMARK    6  A    between atoms: C_17  and  C_18
REMARK                            x       y       z     vdW  Elec       q    Type
REMARK                         _______ _______ _______ _____ _____    ______ ____
ROOT
ATOM      1  C   UNL     1      48.327   8.221  12.709  0.00  0.00    +0.000 C 
ATOM      2  F   UNL     1      48.703   7.103  12.014  0.00  0.00    +0.000 F 
ATOM      3  F   UNL     1      49.117   9.224  12.215  0.00  0.00    +0.000 F 
ENDROOT
BRANCH   1   4
ATOM      4  C   UNL     1      48.509   8.027  14.202  0.00  0.00    +0.000 A 
ATOM      5  C   UNL     1      48.522   9.138  15.057  0.00  0.00    +0.000 A 
ATOM      6  C   UNL     1      48.658   8.971  16.430  0.00  0.00    +0.000 A 
ATOM      7  C   UNL     1      48.757   7.685  16.967  0.00  0.00    +0.000 A 
ATOM      8  C   UNL     1      48.715   6.539  16.151  0.00  0.00    +0.000 A 
ATOM      9  C   UNL     1      48.630   6.738  14.759  0.00  0.00    +0.000 A 
BRANCH   8  10
ATOM     10  C   UNL     1      48.692   5.179  16.734  0.00  0.00    +0.000 A 
ATOM     11  C   UNL     1      47.498   4.474  16.912  0.00  0.00    +0.000 A 
ATOM     12  C   UNL     1      47.530   3.181  17.425  0.00  0.00    +0.000 A 
ATOM     13  C   UNL     1      48.752   2.613  17.748  0.00  0.00    +0.000 A 
ATOM     14  C   UNL     1      49.894   3.368  17.542  0.00  0.00    +0.000 A 
ATOM     15  N   UNL     1      49.893   4.627  17.042  0.00  0.00    +0.000 NA
ENDBRANCH   8  10
ENDBRANCH   1   4
BRANCH   1  16
ATOM     16  C   UNL     1      46.856   8.553  12.352  0.00  0.00    +0.000 C 
BRANCH  16  17
ATOM     17  N   UNL     1      45.882   7.816  13.180  0.00  0.00    +0.000 N 
ATOM     18  H   UNL     1      46.051   7.876  14.182  0.00  0.00    +0.000 HD
BRANCH  17  22
ATOM     19  C   UNL     1      44.364   4.172  11.693  0.00  0.00    +0.000 A 
ATOM     20  C   UNL     1      45.073   4.185  12.894  0.00  0.00    +0.000 A 
ATOM     21  C   UNL     1      45.561   5.392  13.409  0.00  0.00    +0.000 A 
ATOM     22  C   UNL     1      45.333   6.611  12.760  0.00  0.00    +0.000 A 
ATOM     23  C   UNL     1      44.634   6.576  11.544  0.00  0.00    +0.000 A 
ATOM     24  C   UNL     1      44.156   5.371  11.009  0.00  0.00    +0.000 A 
BRANCH  19  26
ATOM     25  N   UNL     1      44.532   2.433   9.995  0.00  0.00    +0.000 N 
ATOM     26  C   UNL     1      43.871   2.904  11.096  0.00  0.00    +0.000 C 
ATOM     27  O   UNL     1      42.932   2.284  11.579  0.00  0.00    +0.000 OA
ATOM     28  H   UNL     1      44.248   1.523   9.655  0.00  0.00    +0.000 HD
ATOM     29  H   UNL     1      45.441   2.776   9.718  0.00  0.00    +0.000 HD
ENDBRANCH  19  26
ENDBRANCH  17  22
ENDBRANCH  16  17
ENDBRANCH   1  16
TORSDOF 6
ENDMDL
