MODEL 1
REMARK VINA RESULT:    -7.109      0.000      0.000
REMARK INTER + INTRA:          -9.305
REMARK INTER:                  -8.772
REMARK INTRA:                  -0.533
REMARK UNBOUND:                -0.533
REMARK  Name = 
REMARK  4 active torsions:
REMARK  status: ('A' for Active; 'I' for Inactive)
REMARK    1  A    between atoms: C_2  and  C_3
REMARK    2  A    between atoms: C_6  and  N_7
REMARK    3  A    between atoms: N_7  and  C_8
REMARK    4  A    between atoms: C_8  and  C_9
REMARK                            x       y       z     vdW  Elec       q    Type
REMARK                         _______ _______ _______ _____ _____    ______ ____
ROOT
ATOM      1  N   UNL     1      43.748   3.828  10.384  0.00  0.00    +0.000 N 
ATOM      2  H   UNL     1      43.746   3.163  11.157  0.00  0.00    +0.000 HD
ENDROOT
BRANCH   1   6
ATOM      3  C   UNL     1      46.548   2.466   7.524  0.00  0.00    +0.000 A 
ATOM      4  C   UNL     1      46.240   3.828   7.586  0.00  0.00    +0.000 A 
ATOM      5  C   UNL     1      45.310   4.301   8.523  0.00  0.00    +0.000 A 
ATOM      6  C   UNL     1      44.658   3.426   9.397  0.00  0.00    +0.000 A 
ATOM      7  C   UNL     1      45.022   2.073   9.362  0.00  0.00    +0.000 A 
ATOM      8  C   UNL     1      45.940   1.589   8.421  0.00  0.00    +0.000 A 
BRANCH   3  10
ATOM      9  N   UNL     1      48.239   1.585   5.761  0.00  0.00    +0.000 NA
ATOM     10  C   UNL     1      47.481   1.978   6.551  0.00  0.00    +0.000 C 
ENDBRANCH   3  10
ENDBRANCH   1   6
BRANCH   1  11
ATOM     11  C   UNL     1      43.826   5.202  10.875  0.00  0.00    +0.000 C 
BRANCH  11  12
ATOM     12  C   UNL     1      44.986   5.358  11.834  0.00  0.00    +0.000 A 
ATOM     13  C   UNL     1      45.115   4.517  12.951  0.00  0.00    +0.000 A 
ATOM     14  C   UNL     1      46.224   4.616  13.794  0.00  0.00    +0.000 A 
ATOM     15  C   UNL     1      47.219   5.556  13.533  0.00  0.00    +0.000 A 
ATOM     16  C   UNL     1      47.101   6.404  12.435  0.00  0.00    +0.000 A 
ATOM     17  C   UNL     1      45.993   6.306  11.590  0.00  0.00    +0.000 A 
ENDBRANCH  11  12
ENDBRANCH   1  11
TORSDOF 4
ENDMDL
MODEL 2
REMARK VINA RESULT:    -6.921      1.917      5.768
REMARK INTER + INTRA:          -9.073
REMARK INTER:                  -8.584
REMARK INTRA:                  -0.489
REMARK UNBOUND:                -0.533
REMARK  Name = 
REMARK  4 active torsions:
REMARK  status: ('A' for Active; 'I' for Inactive)
REMARK    1  A    between atoms: C_2  and  C_3
REMARK    2  A    between atoms: C_6  and  N_7
REMARK    3  A    between atoms: N_7  and  C_8
REMARK    4  A    between atoms: C_8  and  C_9
REMARK                            x       y       z     vdW  Elec       q    Type
REMARK                         _______ _______ _______ _____ _____    ______ ____
ROOT
ATOM      1  N   UNL     1      44.565   4.802   9.506  0.00  0.00    +0.000 N 
ATOM      2  H   UNL     1      45.035   5.380   8.811  0.00  0.00    +0.000 HD
ENDROOT
BRANCH   1   6
ATOM      3  C   UNL     1      46.495   4.839  13.268  0.00  0.00    +0.000 A 
ATOM      4  C   UNL     1      46.632   5.939  12.417  0.00  0.00    +0.000 A 
ATOM      5  C   UNL     1      46.005   5.946  11.163  0.00  0.00    +0.000 A 
ATOM      6  C   UNL     1      45.252   4.852  10.728  0.00  0.00    +0.000 A 
ATOM      7  C   UNL     1      45.075   3.783  11.616  0.00  0.00    +0.000 A 
ATOM      8  C   UNL     1      45.707   3.762  12.866  0.00  0.00    +0.000 A 
BRANCH   3  10
ATOM      9  N   UNL     1      47.688   4.805  15.575  0.00  0.00    +0.000 NA
ATOM     10  C   UNL     1      47.154   4.821  14.542  0.00  0.00    +0.000 C 
ENDBRANCH   3  10
ENDBRANCH   1   6
BRANCH   1  11
ATOM     11  C   UNL     1      44.230   3.490   8.958  0.00  0.00    +0.000 C 
BRANCH  11  12
ATOM     12  C   UNL     1      45.417   2.900   8.228  0.00  0.00    +0.000 A 
ATOM     13  C   UNL     1      45.810   1.571   8.448  0.00  0.00    +0.000 A 
ATOM     14  C   UNL     1      46.861   1.007   7.721  0.00  0.00    +0.000 A 
ATOM     15  C   UNL     1      47.533   1.765   6.763  0.00  0.00    +0.000 A 
ATOM     16  C   UNL     1      47.163   3.089   6.541  0.00  0.00    +0.000 A 
ATOM     17  C   UNL     1      46.111   3.654   7.267  0.00  0.00    +0.000 A 
ENDBRANCH  11  12
ENDBRANCH   1  11
TORSDOF 4
ENDMDL
MODEL 3
REMARK VINA RESULT:    -6.921      1.921      5.886
REMARK INTER + INTRA:          -9.073
REMARK INTER:                  -8.548
REMARK INTRA:                  -0.525
REMARK UNBOUND:                -0.533
REMARK  Name = 
REMARK  4 active torsions:
REMARK  status: ('A' for Active; 'I' for Inactive)
REMARK    1  A    between atoms: C_2  and  C_3
REMARK    2  A    between atoms: C_6  and  N_7
REMARK    3  A    between atoms: N_7  and  C_8
REMARK    4  A    between atoms: C_8  and  C_9
REMARK                            x       y       z     vdW  Elec       q    Type
REMARK                         _______ _______ _______ _____ _____    ______ ____
ROOT
ATOM      1  N   UNL     1      44.157   4.101  10.036  0.00  0.00    +0.000 N 
ATOM      2  H   UNL     1      44.268   4.788   9.292  0.00  0.00    +0.000 HD
ENDROOT
BRANCH   1   6
ATOM      3  C   UNL     1      46.725   5.204  13.210  0.00  0.00    +0.000 A 
ATOM      4  C   UNL     1      46.101   3.954  13.237  0.00  0.00    +0.000 A 
ATOM      5  C   UNL     1      45.241   3.569  12.198  0.00  0.00    +0.000 A 
ATOM      6  C   UNL     1      44.973   4.429  11.129  0.00  0.00    +0.000 A 
ATOM      7  C   UNL     1      45.652   5.655  11.087  0.00  0.00    +0.000 A 
ATOM      8  C   UNL     1      46.503   6.052  12.126  0.00  0.00    +0.000 A 
BRANCH   3  10
ATOM      9  N   UNL     1      48.286   5.935  15.152  0.00  0.00    +0.000 NA
ATOM     10  C   UNL     1      47.586   5.607  14.283  0.00  0.00    +0.000 C 
ENDBRANCH   3  10
ENDBRANCH   1   6
BRANCH   1  11
ATOM     11  C   UNL     1      44.225   2.740   9.509  0.00  0.00    +0.000 C 
BRANCH  11  12
ATOM     12  C   UNL     1      45.357   2.613   8.512  0.00  0.00    +0.000 A 
ATOM     13  C   UNL     1      46.051   1.403   8.362  0.00  0.00    +0.000 A 
ATOM     14  C   UNL     1      47.046   1.267   7.392  0.00  0.00    +0.000 A 
ATOM     15  C   UNL     1      47.361   2.339   6.558  0.00  0.00    +0.000 A 
ATOM     16  C   UNL     1      46.689   3.550   6.702  0.00  0.00    +0.000 A 
ATOM     17  C   UNL     1      45.692   3.687   7.671  0.00  0.00    +0.000 A 
ENDBRANCH  11  12
ENDBRANCH   1  11
TORSDOF 4
ENDMDL
MODEL 4
REMARK VINA RESULT:    -6.671      1.954      6.025
REMARK INTER + INTRA:          -8.764
REMARK INTER:                  -8.340
REMARK INTRA:                  -0.424
REMARK UNBOUND:                -0.533
REMARK  Name = 
REMARK  4 active torsions:
REMARK  status: ('A' for Active; 'I' for Inactive)
REMARK    1  A    between atoms: C_2  and  C_3
REMARK    2  A    between atoms: C_6  and  N_7
REMARK    3  A    between atoms: N_7  and  C_8
REMARK    4  A    between atoms: C_8  and  C_9
REMARK                            x       y       z     vdW  Elec       q    Type
REMARK                         _______ _______ _______ _____ _____    ______ ____
ROOT
ATOM      1  N   UNL     1      44.887   2.865  10.876  0.00  0.00    +0.000 N 
ATOM      2  H   UNL     1      44.316   2.369  11.559  0.00  0.00    +0.000 HD
ENDROOT
BRANCH   1   6
ATOM      3  C   UNL     1      46.014   6.572  12.569  0.00  0.00    +0.000 A 
ATOM      4  C   UNL     1      45.396   6.551  11.315  0.00  0.00    +0.000 A 
ATOM      5  C   UNL     1      45.018   5.333  10.732  0.00  0.00    +0.000 A 
ATOM      6  C   UNL     1      45.269   4.118  11.376  0.00  0.00    +0.000 A 
ATOM      7  C   UNL     1      45.835   4.160  12.658  0.00  0.00    +0.000 A 
ATOM      8  C   UNL     1      46.226   5.371  13.243  0.00  0.00    +0.000 A 
BRANCH   3  10
ATOM      9  N   UNL     1      46.751   8.824  13.632  0.00  0.00    +0.000 NA
ATOM     10  C   UNL     1      46.420   7.816  13.155  0.00  0.00    +0.000 C 
ENDBRANCH   3  10
ENDBRANCH   1   6
BRANCH   1  11
ATOM     11  C   UNL     1      44.281   2.809   9.547  0.00  0.00    +0.000 C 
BRANCH  11  12
ATOM     12  C   UNL     1      45.341   2.588   8.490  0.00  0.00    +0.000 A 
ATOM     13  C   UNL     1      45.742   3.634   7.643  0.00  0.00    +0.000 A 
ATOM     14  C   UNL     1      46.771   3.447   6.717  0.00  0.00    +0.000 A 
ATOM     15  C   UNL     1      47.412   2.213   6.624  0.00  0.00    +0.000 A 
ATOM     16  C   UNL     1      47.018   1.162   7.449  0.00  0.00    +0.000 A 
ATOM     17  C   UNL     1      45.990   1.348   8.377  0.00  0.00    +0.000 A 
ENDBRANCH  11  12
ENDBRANCH   1  11
TORSDOF 4
ENDMDL
MODEL 5
REMARK VINA RESULT:    -6.140      1.646      2.561
REMARK INTER + INTRA:          -8.110
REMARK INTER:                  -7.700
REMARK INTRA:                  -0.410
REMARK UNBOUND:                -0.533
REMARK  Name = 
REMARK  4 active torsions:
REMARK  status: ('A' for Active; 'I' for Inactive)
REMARK    1  A    between atoms: C_2  and  C_3
REMARK    2  A    between atoms: C_6  and  N_7
REMARK    3  A    between atoms: N_7  and  C_8
REMARK    4  A    between atoms: C_8  and  C_9
REMARK                            x       y       z     vdW  Elec       q    Type
REMARK                         _______ _______ _______ _____ _____    ______ ____
ROOT
ATOM      1  N   UNL     1      43.897   5.061  10.447  0.00  0.00    +0.000 N 
ATOM      2  H   UNL     1      42.925   4.755  10.434  0.00  0.00    +0.000 HD
ENDROOT
BRANCH   1   6
ATOM      3  C   UNL     1      46.282   2.630   7.940  0.00  0.00    +0.000 A 
ATOM      4  C   UNL     1      45.392   2.027   8.833  0.00  0.00    +0.000 A 
ATOM      5  C   UNL     1      44.595   2.813   9.678  0.00  0.00    +0.000 A 
ATOM      6  C   UNL     1      44.687   4.208   9.662  0.00  0.00    +0.000 A 
ATOM      7  C   UNL     1      45.540   4.798   8.720  0.00  0.00    +0.000 A 
ATOM      8  C   UNL     1      46.348   4.021   7.880  0.00  0.00    +0.000 A 
BRANCH   3  10
ATOM      9  N   UNL     1      47.788   1.174   6.406  0.00  0.00    +0.000 NA
ATOM     10  C   UNL     1      47.113   1.826   7.092  0.00  0.00    +0.000 C 
ENDBRANCH   3  10
ENDBRANCH   1   6
BRANCH   1  11
ATOM     11  C   UNL     1      44.340   5.349  11.809  0.00  0.00    +0.000 C 
BRANCH  11  12
ATOM     12  C   UNL     1      44.752   6.800  11.937  0.00  0.00    +0.000 A 
ATOM     13  C   UNL     1      44.165   7.788  11.131  0.00  0.00    +0.000 A 
ATOM     14  C   UNL     1      44.495   9.135  11.300  0.00  0.00    +0.000 A 
ATOM     15  C   UNL     1      45.415   9.512  12.277  0.00  0.00    +0.000 A 
ATOM     16  C   UNL     1      46.013   8.542  13.078  0.00  0.00    +0.000 A 
ATOM     17  C   UNL     1      45.684   7.194  12.910  0.00  0.00    +0.000 A 
ENDBRANCH  11  12
ENDBRANCH   1  11
TORSDOF 4
ENDMDL
MODEL 6
REMARK VINA RESULT:    -5.429      2.504      6.360
REMARK INTER + INTRA:          -7.231
REMARK INTER:                  -6.795
REMARK INTRA:                  -0.436
REMARK UNBOUND:                -0.533
REMARK  Name = 
REMARK  4 active torsions:
REMARK  status: ('A' for Active; 'I' for Inactive)
REMARK    1  A    between atoms: C_2  and  C_3
REMARK    2  A    between atoms: C_6  and  N_7
REMARK    3  A    between atoms: N_7  and  C_8
REMARK    4  A    between atoms: C_8  and  C_9
REMARK                            x       y       z     vdW  Elec       q    Type
REMARK                         _______ _______ _______ _____ _____    ______ ____
ROOT
ATOM      1  N   UNL     1      45.695   6.062  11.166  0.00  0.00    +0.000 N 
ATOM      2  H   UNL     1      46.410   6.162  10.446  0.00  0.00    +0.000 HD
ENDROOT
BRANCH   1   6
ATOM      3  C   UNL     1      47.647   5.458  14.868  0.00  0.00    +0.000 A 
ATOM      4  C   UNL     1      46.716   4.514  14.422  0.00  0.00    +0.000 A 
ATOM      5  C   UNL     1      46.053   4.697  13.200  0.00  0.00    +0.000 A 
ATOM      6  C   UNL     1      46.289   5.829  12.415  0.00  0.00    +0.000 A 
ATOM      7  C   UNL     1      47.268   6.735  12.847  0.00  0.00    +0.000 A 
ATOM      8  C   UNL     1      47.926   6.567  14.071  0.00  0.00    +0.000 A 
BRANCH   3  10
ATOM      9  N   UNL     1      48.843   5.140  17.151  0.00  0.00    +0.000 NA
ATOM     10  C   UNL     1      48.308   5.282  16.128  0.00  0.00    +0.000 C 
ENDBRANCH   3  10
ENDBRANCH   1   6
BRANCH   1  11
ATOM     11  C   UNL     1      44.632   5.160  10.729  0.00  0.00    +0.000 C 
BRANCH  11  12
ATOM     12  C   UNL     1      45.158   4.177   9.706  0.00  0.00    +0.000 A 
ATOM     13  C   UNL     1      44.936   2.799   9.851  0.00  0.00    +0.000 A 
ATOM     14  C   UNL     1      45.359   1.900   8.870  0.00  0.00    +0.000 A 
ATOM     15  C   UNL     1      46.010   2.367   7.729  0.00  0.00    +0.000 A 
ATOM     16  C   UNL     1      46.247   3.731   7.575  0.00  0.00    +0.000 A 
ATOM     17  C   UNL     1      45.823   4.631   8.556  0.00  0.00    +0.000 A 
ENDBRANCH  11  12
ENDBRANCH   1  11
TORSDOF 4
ENDMDL
MODEL 7
REMARK VINA RESULT:    -5.059      3.576      5.623
REMARK INTER + INTRA:          -6.776
REMARK INTER:                  -6.417
REMARK INTRA:                  -0.359
REMARK UNBOUND:                -0.533
REMARK  Name = 
REMARK  4 active torsions:
REMARK  status: ('A' for Active; 'I' for Inactive)
REMARK    1  A    between atoms: C_2  and  C_3
REMARK    2  A    between atoms: C_6  and  N_7
REMARK    3  A    between atoms: N_7  and  C_8
REMARK    4  A    between atoms: C_8  and  C_9
REMARK                            x       y       z     vdW  Elec       q    Type
REMARK                         _______ _______ _______ _____ _____    ______ ____
ROOT
ATOM      1  N   UNL     1      47.336   5.282  15.117  0.00  0.00    +0.000 N 
ATOM      2  H   UNL     1      47.156   6.201  15.520  0.00  0.00    +0.000 HD
ENDROOT
BRANCH   1   6
ATOM      3  C   UNL     1      45.395   4.695  11.407  0.00  0.00    +0.000 A 
ATOM      4  C   UNL     1      45.948   5.945  11.700  0.00  0.00    +0.000 A 
ATOM      5  C   UNL     1      46.592   6.164  12.927  0.00  0.00    +0.000 A 
ATOM      6  C   UNL     1      46.676   5.151  13.887  0.00  0.00    +0.000 A 
ATOM      7  C   UNL     1      46.169   3.888  13.554  0.00  0.00    +0.000 A 
ATOM      8  C   UNL     1      45.514   3.663  12.336  0.00  0.00    +0.000 A 
BRANCH   3  10
ATOM      9  N   UNL     1      44.166   4.299   9.154  0.00  0.00    +0.000 NA
ATOM     10  C   UNL     1      44.717   4.477  10.162  0.00  0.00    +0.000 C 
ENDBRANCH   3  10
ENDBRANCH   1   6
BRANCH   1  11
ATOM     11  C   UNL     1      47.154   4.229  16.113  0.00  0.00    +0.000 C 
BRANCH  11  12
ATOM     12  C   UNL     1      48.489   3.801  16.683  0.00  0.00    +0.000 A 
ATOM     13  C   UNL     1      48.880   2.453  16.666  0.00  0.00    +0.000 A 
ATOM     14  C   UNL     1      50.142   2.071  17.127  0.00  0.00    +0.000 A 
ATOM     15  C   UNL     1      51.029   3.031  17.612  0.00  0.00    +0.000 A 
ATOM     16  C   UNL     1      50.652   4.370  17.645  0.00  0.00    +0.000 A 
ATOM     17  C   UNL     1      49.390   4.755  17.183  0.00  0.00    +0.000 A 
ENDBRANCH  11  12
ENDBRANCH   1  11
TORSDOF 4
ENDMDL
MODEL 8
REMARK VINA RESULT:    -4.927      2.259      3.999
REMARK INTER + INTRA:          -6.613
REMARK INTER:                  -6.030
REMARK INTRA:                  -0.583
REMARK UNBOUND:                -0.533
REMARK  Name = 
REMARK  4 active torsions:
REMARK  status: ('A' for Active; 'I' for Inactive)
REMARK    1  A    between atoms: C_2  and  C_3
REMARK    2  A    between atoms: C_6  and  N_7
REMARK    3  A    between atoms: N_7  and  C_8
REMARK    4  A    between atoms: C_8  and  C_9
REMARK                            x       y       z     vdW  Elec       q    Type
REMARK                         _______ _______ _______ _____ _____    ______ ____
ROOT
ATOM      1  N   UNL     1      44.973   6.758  13.255  0.00  0.00    +0.000 N 
ATOM      2  H   UNL     1      45.271   6.488  14.191  0.00  0.00    +0.000 HD
ENDROOT
BRANCH   1   6
ATOM      3  C   UNL     1      44.889   3.505  10.556  0.00  0.00    +0.000 A 
ATOM      4  C   UNL     1      45.111   3.262  11.914  0.00  0.00    +0.000 A 
ATOM      5  C   UNL     1      45.148   4.326  12.827  0.00  0.00    +0.000 A 
ATOM      6  C   UNL     1      44.987   5.647  12.399  0.00  0.00    +0.000 A 
ATOM      7  C   UNL     1      44.707   5.869  11.044  0.00  0.00    +0.000 A 
ATOM      8  C   UNL     1      44.680   4.813  10.124  0.00  0.00    +0.000 A 
BRANCH   3  10
ATOM      9  N   UNL     1      44.863   1.539   8.859  0.00  0.00    +0.000 NA
ATOM     10  C   UNL     1      44.874   2.419   9.619  0.00  0.00    +0.000 C 
ENDBRANCH   3  10
ENDBRANCH   1   6
BRANCH   1  11
ATOM     11  C   UNL     1      45.656   7.974  12.818  0.00  0.00    +0.000 C 
BRANCH  11  12
ATOM     12  C   UNL     1      47.156   7.771  12.821  0.00  0.00    +0.000 A 
ATOM     13  C   UNL     1      47.901   7.894  11.638  0.00  0.00    +0.000 A 
ATOM     14  C   UNL     1      49.293   7.777  11.657  0.00  0.00    +0.000 A 
ATOM     15  C   UNL     1      49.958   7.536  12.858  0.00  0.00    +0.000 A 
ATOM     16  C   UNL     1      49.232   7.401  14.038  0.00  0.00    +0.000 A 
ATOM     17  C   UNL     1      47.839   7.519  14.022  0.00  0.00    +0.000 A 
ENDBRANCH  11  12
ENDBRANCH   1  11
TORSDOF 4
ENDMDL
MODEL 9
REMARK VINA RESULT:    -4.908      3.168      6.100
REMARK INTER + INTRA:          -6.589
REMARK INTER:                  -6.162
REMARK INTRA:                  -0.427
REMARK UNBOUND:                -0.533
REMARK  Name = 
REMARK  4 active torsions:
REMARK  status: ('A' for Active; 'I' for Inactive)
REMARK    1  A    between atoms: C_2  and  C_3
REMARK    2  A    between atoms: C_6  and  N_7
REMARK    3  A    between atoms: N_7  and  C_8
REMARK    4  A    between atoms: C_8  and  C_9
REMARK                            x       y       z     vdW  Elec       q    Type
REMARK                         _______ _______ _______ _____ _____    ______ ____
ROOT
ATOM      1  N   UNL     1      45.821   5.932  13.406  0.00  0.00    +0.000 N 
ATOM      2  H   UNL     1      45.710   6.005  14.416  0.00  0.00    +0.000 HD
ENDROOT
BRANCH   1   6
ATOM      3  C   UNL     1      48.318   9.004  11.921  0.00  0.00    +0.000 A 
ATOM      4  C   UNL     1      48.825   7.707  12.041  0.00  0.00    +0.000 A 
ATOM      5  C   UNL     1      48.017   6.674  12.536  0.00  0.00    +0.000 A 
ATOM      6  C   UNL     1      46.700   6.919  12.938  0.00  0.00    +0.000 A 
ATOM      7  C   UNL     1      46.188   8.211  12.756  0.00  0.00    +0.000 A 
ATOM      8  C   UNL     1      46.992   9.252  12.274  0.00  0.00    +0.000 A 
BRANCH   3  10
ATOM      9  N   UNL     1      49.824  10.928  11.042  0.00  0.00    +0.000 NA
ATOM     10  C   UNL     1      49.151  10.066  11.436  0.00  0.00    +0.000 C 
ENDBRANCH   3  10
ENDBRANCH   1   6
BRANCH   1  11
ATOM     11  C   UNL     1      44.525   5.794  12.745  0.00  0.00    +0.000 C 
BRANCH  11  12
ATOM     12  C   UNL     1      44.644   4.910  11.523  0.00  0.00    +0.000 A 
ATOM     13  C   UNL     1      44.090   3.621  11.511  0.00  0.00    +0.000 A 
ATOM     14  C   UNL     1      44.138   2.834  10.357  0.00  0.00    +0.000 A 
ATOM     15  C   UNL     1      44.741   3.326   9.201  0.00  0.00    +0.000 A 
ATOM     16  C   UNL     1      45.305   4.599   9.200  0.00  0.00    +0.000 A 
ATOM     17  C   UNL     1      45.257   5.388  10.353  0.00  0.00    +0.000 A 
ENDBRANCH  11  12
ENDBRANCH   1  11
TORSDOF 4
ENDMDL
