MODEL 1
REMARK VINA RESULT:    -7.745      0.000      0.000
REMARK INTER + INTRA:         -11.731
REMARK INTER:                 -11.140
REMARK INTRA:                  -0.591
REMARK UNBOUND:                -0.591
REMARK  Name = 
REMARK  10 active torsions:
REMARK  status: ('A' for Active; 'I' for Inactive)
REMARK    1  A    between atoms: C_1  and  C_2
REMARK    2  A    between atoms: N_6  and  C_7
REMARK    3  A    between atoms: C_7  and  C_8
REMARK    4  A    between atoms: C_8  and  O_9
REMARK    5  A    between atoms: C_8  and  C_10
REMARK    6  A    between atoms: C_13  and  C_14
REMARK    7  A    between atoms: C_14  and  C_15
REMARK    8  A    between atoms: C_15  and  C_16
REMARK    9  A    between atoms: C_15  and  N_17
REMARK   10  A    between atoms: C_18  and  C_20
REMARK                            x       y       z     vdW  Elec       q    Type
REMARK                         _______ _______ _______ _____ _____    ______ ____
ROOT
ATOM      1  C   UNL     1      48.701   7.413  14.034  0.00  0.00    +0.000 C 
ENDROOT
BRANCH   1   5
ATOM      2  C   UNL     1      45.633   5.164  11.935  0.00  0.00    +0.000 A 
ATOM      3  C   UNL     1      46.069   6.407  11.446  0.00  0.00    +0.000 A 
ATOM      4  C   UNL     1      47.044   7.146  12.126  0.00  0.00    +0.000 A 
ATOM      5  C   UNL     1      47.604   6.664  13.314  0.00  0.00    +0.000 A 
ATOM      6  C   UNL     1      47.162   5.438  13.816  0.00  0.00    +0.000 A 
ATOM      7  C   UNL     1      46.194   4.697  13.136  0.00  0.00    +0.000 A 
BRANCH   2   8
ATOM      8  C   UNL     1      44.569   4.400  11.156  0.00  0.00    +0.000 C 
BRANCH   8   9
ATOM      9  O   UNL     1      43.948   5.301  10.239  0.00  0.00    +0.000 OA
ATOM     10  H   UNL     1      44.587   6.013  10.071  0.00  0.00    +0.000 HD
ENDBRANCH   8   9
BRANCH   8  11
ATOM     11  C   UNL     1      45.118   3.145  10.418  0.00  0.00    +0.000 C 
BRANCH  11  17
ATOM     12  C   UNL     1      46.820   4.679   8.017  0.00  0.00    +0.000 C 
ATOM     13  C   UNL     1      45.779   3.779   7.344  0.00  0.00    +0.000 C 
ATOM     14  C   UNL     1      46.365   2.403   6.993  0.00  0.00    +0.000 C 
ATOM     15  C   UNL     1      46.288   1.406   8.147  0.00  0.00    +0.000 C 
ATOM     16  C   UNL     1      44.879   1.356   8.737  0.00  0.00    +0.000 C 
ATOM     17  N   UNL     1      44.414   2.660   9.219  0.00  0.00    +0.000 NA
ATOM     18  C   UNL     1      44.450   3.648   8.126  0.00  0.00    +0.000 C 
ENDBRANCH  11  17
ENDBRANCH   8  11
ENDBRANCH   2   8
ENDBRANCH   1   5
BRANCH   1  19
ATOM     19  C   UNL     1      48.592   7.375  15.569  0.00  0.00    +0.000 C 
ATOM     20  C   UNL     1      48.534   8.792  16.147  0.00  0.00    +0.000 C 
BRANCH  19  21
ATOM     21  N   UNL     1      49.638   6.573  16.198  0.00  0.00    +0.000 N 
ATOM     22  C   UNL     1      49.389   5.492  17.006  0.00  0.00    +0.000 C 
ATOM     23  O   UNL     1      48.256   5.078  17.233  0.00  0.00    +0.000 OA
ATOM     24  H   UNL     1      50.546   7.024  16.276  0.00  0.00    +0.000 HD
BRANCH  22  25
ATOM     25  C   UNL     1      50.560   4.802  17.555  0.00  0.00    +0.000 A 
ATOM     26  C   UNL     1      51.526   5.537  18.228  0.00  0.00    +0.000 A 
ATOM     27  S   UNL     1      52.826   4.596  18.801  0.00  0.00    +0.000 S 
ATOM     28  C   UNL     1      52.161   3.179  18.133  0.00  0.00    +0.000 A 
ATOM     29  N   UNL     1      52.814   1.990  18.230  0.00  0.00    +0.000 NA
ATOM     30  C   UNL     1      52.220   1.008  17.641  0.00  0.00    +0.000 A 
ATOM     31  N   UNL     1      51.024   1.101  16.977  0.00  0.00    +0.000 N 
ATOM     32  C   UNL     1      50.296   2.265  16.917  0.00  0.00    +0.000 A 
ATOM     33  O   UNL     1      49.169   2.289  16.430  0.00  0.00    +0.000 OA
ATOM     34  C   UNL     1      50.945   3.414  17.516  0.00  0.00    +0.000 A 
ATOM     35  H   UNL     1      50.595   0.284  16.567  0.00  0.00    +0.000 HD
ENDBRANCH  22  25
ENDBRANCH  19  21
ENDBRANCH   1  19
TORSDOF 8
ENDMDL
MODEL 2
REMARK VINA RESULT:    -7.568      2.738      4.174
REMARK INTER + INTRA:         -11.477
REMARK INTER:                  -9.550
REMARK INTRA:                  -1.928
REMARK UNBOUND:                -0.591
REMARK  Name = 
REMARK  10 active torsions:
REMARK  status: ('A' for Active; 'I' for Inactive)
REMARK    1  A    between atoms: C_1  and  C_2
REMARK    2  A    between atoms: N_6  and  C_7
REMARK    3  A    between atoms: C_7  and  C_8
REMARK    4  A    between atoms: C_8  and  O_9
REMARK    5  A    between atoms: C_8  and  C_10
REMARK    6  A    between atoms: C_13  and  C_14
REMARK    7  A    between atoms: C_14  and  C_15
REMARK    8  A    between atoms: C_15  and  C_16
REMARK    9  A    between atoms: C_15  and  N_17
REMARK   10  A    between atoms: C_18  and  C_20
REMARK                            x       y       z     vdW  Elec       q    Type
REMARK                         _______ _______ _______ _____ _____    ______ ____
ROOT
ATOM      1  C   UNL     1      50.997   8.796  11.499  0.00  0.00    +0.000 C 
ENDROOT
BRANCH   1   5
ATOM      2  C   UNL     1      46.754   8.222  12.232  0.00  0.00    +0.000 A 
ATOM      3  C   UNL     1      47.556   7.151  11.810  0.00  0.00    +0.000 A 
ATOM      4  C   UNL     1      48.921   7.331  11.555  0.00  0.00    +0.000 A 
ATOM      5  C   UNL     1      49.516   8.588  11.710  0.00  0.00    +0.000 A 
ATOM      6  C   UNL     1      48.719   9.662  12.110  0.00  0.00    +0.000 A 
ATOM      7  C   UNL     1      47.359   9.483  12.371  0.00  0.00    +0.000 A 
BRANCH   2   8
ATOM      8  C   UNL     1      45.274   7.973  12.497  0.00  0.00    +0.000 C 
BRANCH   8   9
ATOM      9  O   UNL     1      44.599   9.232  12.505  0.00  0.00    +0.000 OA
ATOM     10  H   UNL     1      44.480   9.490  11.576  0.00  0.00    +0.000 HD
ENDBRANCH   8   9
BRANCH   8  11
ATOM     11  C   UNL     1      44.615   6.996  11.481  0.00  0.00    +0.000 C 
BRANCH  11  17
ATOM     12  C   UNL     1      45.208   4.550   9.318  0.00  0.00    +0.000 C 
ATOM     13  C   UNL     1      44.222   4.016  10.362  0.00  0.00    +0.000 C 
ATOM     14  C   UNL     1      44.948   3.291  11.505  0.00  0.00    +0.000 C 
ATOM     15  C   UNL     1      45.410   4.233  12.616  0.00  0.00    +0.000 C 
ATOM     16  C   UNL     1      44.270   5.143  13.073  0.00  0.00    +0.000 C 
ATOM     17  N   UNL     1      43.709   5.949  11.984  0.00  0.00    +0.000 NA
ATOM     18  C   UNL     1      43.229   5.074  10.900  0.00  0.00    +0.000 C 
ENDBRANCH  11  17
ENDBRANCH   8  11
ENDBRANCH   2   8
ENDBRANCH   1   5
BRANCH   1  19
ATOM     19  C   UNL     1      51.802   8.982  12.797  0.00  0.00    +0.000 C 
ATOM     20  C   UNL     1      53.299   9.102  12.499  0.00  0.00    +0.000 C 
BRANCH  19  21
ATOM     21  N   UNL     1      51.527   7.950  13.794  0.00  0.00    +0.000 N 
ATOM     22  C   UNL     1      51.706   8.126  15.144  0.00  0.00    +0.000 C 
ATOM     23  O   UNL     1      52.071   9.191  15.633  0.00  0.00    +0.000 OA
ATOM     24  H   UNL     1      51.500   6.997  13.440  0.00  0.00    +0.000 HD
BRANCH  22  25
ATOM     25  C   UNL     1      51.381   6.983  16.001  0.00  0.00    +0.000 A 
ATOM     26  C   UNL     1      52.400   6.348  16.699  0.00  0.00    +0.000 A 
ATOM     27  S   UNL     1      51.866   5.036  17.645  0.00  0.00    +0.000 S 
ATOM     28  C   UNL     1      50.260   5.246  17.123  0.00  0.00    +0.000 A 
ATOM     29  N   UNL     1      49.276   4.402  17.536  0.00  0.00    +0.000 NA
ATOM     30  C   UNL     1      48.116   4.649  17.028  0.00  0.00    +0.000 A 
ATOM     31  N   UNL     1      47.844   5.672  16.156  0.00  0.00    +0.000 N 
ATOM     32  C   UNL     1      48.792   6.591  15.770  0.00  0.00    +0.000 A 
ATOM     33  O   UNL     1      48.492   7.570  15.094  0.00  0.00    +0.000 OA
ATOM     34  C   UNL     1      50.126   6.327  16.269  0.00  0.00    +0.000 A 
ATOM     35  H   UNL     1      46.906   5.832  15.823  0.00  0.00    +0.000 HD
ENDBRANCH  22  25
ENDBRANCH  19  21
ENDBRANCH   1  19
TORSDOF 8
ENDMDL
MODEL 3
REMARK VINA RESULT:    -7.374      3.514      6.415
REMARK INTER + INTRA:         -11.198
REMARK INTER:                  -9.639
REMARK INTRA:                  -1.559
REMARK UNBOUND:                -0.591
REMARK  Name = 
REMARK  10 active torsions:
REMARK  status: ('A' for Active; 'I' for Inactive)
REMARK    1  A    between atoms: C_1  and  C_2
REMARK    2  A    between atoms: N_6  and  C_7
REMARK    3  A    between atoms: C_7  and  C_8
REMARK    4  A    between atoms: C_8  and  O_9
REMARK    5  A    between atoms: C_8  and  C_10
REMARK    6  A    between atoms: C_13  and  C_14
REMARK    7  A    between atoms: C_14  and  C_15
REMARK    8  A    between atoms: C_15  and  C_16
REMARK    9  A    between atoms: C_15  and  N_17
REMARK   10  A    between atoms: C_18  and  C_20
REMARK                            x       y       z     vdW  Elec       q    Type
REMARK                         _______ _______ _______ _____ _____    ______ ____
ROOT
ATOM      1  C   UNL     1      45.163   5.346  11.621  0.00  0.00    +0.000 C 
ENDROOT
BRANCH   1   5
ATOM      2  C   UNL     1      47.385   9.050  12.091  0.00  0.00    +0.000 A 
ATOM      3  C   UNL     1      45.985   9.039  12.198  0.00  0.00    +0.000 A 
ATOM      4  C   UNL     1      45.260   7.853  12.030  0.00  0.00    +0.000 A 
ATOM      5  C   UNL     1      45.916   6.650  11.746  0.00  0.00    +0.000 A 
ATOM      6  C   UNL     1      47.307   6.658  11.620  0.00  0.00    +0.000 A 
ATOM      7  C   UNL     1      48.032   7.838  11.793  0.00  0.00    +0.000 A 
BRANCH   2   8
ATOM      8  C   UNL     1      48.126  10.368  12.283  0.00  0.00    +0.000 C 
BRANCH   8   9
ATOM      9  O   UNL     1      48.054  10.728  13.663  0.00  0.00    +0.000 OA
ATOM     10  H   UNL     1      47.284  10.265  14.033  0.00  0.00    +0.000 HD
ENDBRANCH   8   9
BRANCH   8  11
ATOM     11  C   UNL     1      49.602  10.329  11.795  0.00  0.00    +0.000 C 
BRANCH  11  17
ATOM     12  C   UNL     1      51.530   7.829  10.770  0.00  0.00    +0.000 C 
ATOM     13  C   UNL     1      52.230   8.497  11.958  0.00  0.00    +0.000 C 
ATOM     14  C   UNL     1      53.231   9.567  11.496  0.00  0.00    +0.000 C 
ATOM     15  C   UNL     1      52.588  10.935  11.275  0.00  0.00    +0.000 C 
ATOM     16  C   UNL     1      51.743  11.345  12.481  0.00  0.00    +0.000 C 
ATOM     17  N   UNL     1      50.684  10.380  12.793  0.00  0.00    +0.000 NA
ATOM     18  C   UNL     1      51.267   9.048  13.036  0.00  0.00    +0.000 C 
ENDBRANCH  11  17
ENDBRANCH   8  11
ENDBRANCH   2   8
ENDBRANCH   1   5
BRANCH   1  19
ATOM     19  C   UNL     1      45.060   4.545  12.930  0.00  0.00    +0.000 C 
ATOM     20  C   UNL     1      43.602   4.425  13.383  0.00  0.00    +0.000 C 
BRANCH  19  21
ATOM     21  N   UNL     1      45.918   5.068  13.991  0.00  0.00    +0.000 N 
ATOM     22  C   UNL     1      46.969   4.372  14.534  0.00  0.00    +0.000 C 
ATOM     23  O   UNL     1      47.307   3.260  14.139  0.00  0.00    +0.000 OA
ATOM     24  H   UNL     1      45.525   5.833  14.533  0.00  0.00    +0.000 HD
BRANCH  22  25
ATOM     25  C   UNL     1      47.724   5.049  15.592  0.00  0.00    +0.000 A 
ATOM     26  C   UNL     1      48.409   6.220  15.293  0.00  0.00    +0.000 A 
ATOM     27  S   UNL     1      49.242   6.883  16.622  0.00  0.00    +0.000 S 
ATOM     28  C   UNL     1      48.750   5.606  17.634  0.00  0.00    +0.000 A 
ATOM     29  N   UNL     1      49.164   5.543  18.928  0.00  0.00    +0.000 NA
ATOM     30  C   UNL     1      48.753   4.500  19.567  0.00  0.00    +0.000 A 
ATOM     31  N   UNL     1      47.953   3.521  19.036  0.00  0.00    +0.000 N 
ATOM     32  C   UNL     1      47.453   3.582  17.757  0.00  0.00    +0.000 A 
ATOM     33  O   UNL     1      46.635   2.761  17.351  0.00  0.00    +0.000 OA
ATOM     34  C   UNL     1      47.928   4.707  16.977  0.00  0.00    +0.000 A 
ATOM     35  H   UNL     1      47.638   2.747  19.602  0.00  0.00    +0.000 HD
ENDBRANCH  22  25
ENDBRANCH  19  21
ENDBRANCH   1  19
TORSDOF 8
ENDMDL
MODEL 4
REMARK VINA RESULT:    -7.366      2.727      3.618
REMARK INTER + INTRA:         -11.186
REMARK INTER:                  -9.112
REMARK INTRA:                  -2.074
REMARK UNBOUND:                -0.591
REMARK  Name = 
REMARK  10 active torsions:
REMARK  status: ('A' for Active; 'I' for Inactive)
REMARK    1  A    between atoms: C_1  and  C_2
REMARK    2  A    between atoms: N_6  and  C_7
REMARK    3  A    between atoms: C_7  and  C_8
REMARK    4  A    between atoms: C_8  and  O_9
REMARK    5  A    between atoms: C_8  and  C_10
REMARK    6  A    between atoms: C_13  and  C_14
REMARK    7  A    between atoms: C_14  and  C_15
REMARK    8  A    between atoms: C_15  and  C_16
REMARK    9  A    between atoms: C_15  and  N_17
REMARK   10  A    between atoms: C_18  and  C_20
REMARK                            x       y       z     vdW  Elec       q    Type
REMARK                         _______ _______ _______ _____ _____    ______ ____
ROOT
ATOM      1  C   UNL     1      50.713   8.043  13.171  0.00  0.00    +0.000 C 
ENDROOT
BRANCH   1   5
ATOM      2  C   UNL     1      46.402   7.977  12.635  0.00  0.00    +0.000 A 
ATOM      3  C   UNL     1      47.224   7.095  11.916  0.00  0.00    +0.000 A 
ATOM      4  C   UNL     1      48.615   7.122  12.069  0.00  0.00    +0.000 A 
ATOM      5  C   UNL     1      49.219   8.034  12.941  0.00  0.00    +0.000 A 
ATOM      6  C   UNL     1      48.408   8.927  13.645  0.00  0.00    +0.000 A 
ATOM      7  C   UNL     1      47.021   8.898  13.497  0.00  0.00    +0.000 A 
BRANCH   2   8
ATOM      8  C   UNL     1      44.893   7.908  12.431  0.00  0.00    +0.000 C 
BRANCH   8   9
ATOM      9  O   UNL     1      44.471   9.106  11.779  0.00  0.00    +0.000 OA
ATOM     10  H   UNL     1      44.537   8.943  10.824  0.00  0.00    +0.000 HD
ENDBRANCH   8   9
BRANCH   8  11
ATOM     11  C   UNL     1      44.429   6.652  11.640  0.00  0.00    +0.000 C 
BRANCH  11  17
ATOM     12  C   UNL     1      44.470   4.226   9.374  0.00  0.00    +0.000 C 
ATOM     13  C   UNL     1      43.805   3.669  10.637  0.00  0.00    +0.000 C 
ATOM     14  C   UNL     1      44.821   2.954  11.541  0.00  0.00    +0.000 C 
ATOM     15  C   UNL     1      45.544   3.899  12.498  0.00  0.00    +0.000 C 
ATOM     16  C   UNL     1      44.550   4.786  13.249  0.00  0.00    +0.000 C 
ATOM     17  N   UNL     1      43.707   5.585  12.355  0.00  0.00    +0.000 NA
ATOM     18  C   UNL     1      42.972   4.705  11.428  0.00  0.00    +0.000 C 
ENDBRANCH  11  17
ENDBRANCH   8  11
ENDBRANCH   2   8
ENDBRANCH   1   5
BRANCH   1  19
ATOM     19  C   UNL     1      51.130   8.346  14.621  0.00  0.00    +0.000 C 
ATOM     20  C   UNL     1      52.633   8.624  14.710  0.00  0.00    +0.000 C 
BRANCH  19  21
ATOM     21  N   UNL     1      50.710   7.313  15.565  0.00  0.00    +0.000 N 
ATOM     22  C   UNL     1      49.966   7.564  16.690  0.00  0.00    +0.000 C 
ATOM     23  O   UNL     1      49.547   8.682  16.975  0.00  0.00    +0.000 OA
ATOM     24  H   UNL     1      51.248   6.450  15.535  0.00  0.00    +0.000 HD
BRANCH  22  25
ATOM     25  C   UNL     1      49.634   6.407  17.527  0.00  0.00    +0.000 A 
ATOM     26  C   UNL     1      50.174   6.318  18.803  0.00  0.00    +0.000 A 
ATOM     27  S   UNL     1      49.702   4.916  19.649  0.00  0.00    +0.000 S 
ATOM     28  C   UNL     1      48.791   4.361  18.322  0.00  0.00    +0.000 A 
ATOM     29  N   UNL     1      48.147   3.164  18.371  0.00  0.00    +0.000 NA
ATOM     30  C   UNL     1      47.533   2.846  17.282  0.00  0.00    +0.000 A 
ATOM     31  N   UNL     1      47.491   3.622  16.152  0.00  0.00    +0.000 N 
ATOM     32  C   UNL     1      48.066   4.868  16.084  0.00  0.00    +0.000 A 
ATOM     33  O   UNL     1      47.902   5.595  15.108  0.00  0.00    +0.000 OA
ATOM     34  C   UNL     1      48.815   5.251  17.264  0.00  0.00    +0.000 A 
ATOM     35  H   UNL     1      46.962   3.329  15.344  0.00  0.00    +0.000 HD
ENDBRANCH  22  25
ENDBRANCH  19  21
ENDBRANCH   1  19
TORSDOF 8
ENDMDL
MODEL 5
REMARK VINA RESULT:    -6.985      2.494      3.193
REMARK INTER + INTRA:         -10.638
REMARK INTER:                  -9.521
REMARK INTRA:                  -1.117
REMARK UNBOUND:                -0.591
REMARK  Name = 
REMARK  10 active torsions:
REMARK  status: ('A' for Active; 'I' for Inactive)
REMARK    1  A    between atoms: C_1  and  C_2
REMARK    2  A    between atoms: N_6  and  C_7
REMARK    3  A    between atoms: C_7  and  C_8
REMARK    4  A    between atoms: C_8  and  O_9
REMARK    5  A    between atoms: C_8  and  C_10
REMARK    6  A    between atoms: C_13  and  C_14
REMARK    7  A    between atoms: C_14  and  C_15
REMARK    8  A    between atoms: C_15  and  C_16
REMARK    9  A    between atoms: C_15  and  N_17
REMARK   10  A    between atoms: C_18  and  C_20
REMARK                            x       y       z     vdW  Elec       q    Type
REMARK                         _______ _______ _______ _____ _____    ______ ____
ROOT
ATOM      1  C   UNL     1      48.429   8.685  13.184  0.00  0.00    +0.000 C 
ENDROOT
BRANCH   1   5
ATOM      2  C   UNL     1      45.628   5.374  12.941  0.00  0.00    +0.000 A 
ATOM      3  C   UNL     1      46.989   5.140  13.192  0.00  0.00    +0.000 A 
ATOM      4  C   UNL     1      47.901   6.200  13.254  0.00  0.00    +0.000 A 
ATOM      5  C   UNL     1      47.476   7.519  13.062  0.00  0.00    +0.000 A 
ATOM      6  C   UNL     1      46.126   7.756  12.793  0.00  0.00    +0.000 A 
ATOM      7  C   UNL     1      45.215   6.701  12.736  0.00  0.00    +0.000 A 
BRANCH   2   8
ATOM      8  C   UNL     1      44.676   4.185  12.883  0.00  0.00    +0.000 C 
BRANCH   8   9
ATOM      9  O   UNL     1      43.337   4.681  12.843  0.00  0.00    +0.000 OA
ATOM     10  H   UNL     1      43.024   4.711  13.763  0.00  0.00    +0.000 HD
ENDBRANCH   8   9
BRANCH   8  11
ATOM     11  C   UNL     1      44.949   3.225  11.689  0.00  0.00    +0.000 C 
BRANCH  11  17
ATOM     12  C   UNL     1      46.093   5.310   9.374  0.00  0.00    +0.000 C 
ATOM     13  C   UNL     1      44.843   4.630   8.807  0.00  0.00    +0.000 C 
ATOM     14  C   UNL     1      45.203   3.385   7.982  0.00  0.00    +0.000 C 
ATOM     15  C   UNL     1      45.345   2.122   8.829  0.00  0.00    +0.000 C 
ATOM     16  C   UNL     1      44.137   1.938   9.747  0.00  0.00    +0.000 C 
ATOM     17  N   UNL     1      43.921   3.078  10.644  0.00  0.00    +0.000 NA
ATOM     18  C   UNL     1      43.755   4.316   9.862  0.00  0.00    +0.000 C 
ENDBRANCH  11  17
ENDBRANCH   8  11
ENDBRANCH   2   8
ENDBRANCH   1   5
BRANCH   1  19
ATOM     19  C   UNL     1      48.047   9.704  14.272  0.00  0.00    +0.000 C 
ATOM     20  C   UNL     1      49.033  10.876  14.293  0.00  0.00    +0.000 C 
BRANCH  19  21
ATOM     21  N   UNL     1      47.893   9.100  15.593  0.00  0.00    +0.000 N 
ATOM     22  C   UNL     1      48.917   8.500  16.282  0.00  0.00    +0.000 C 
ATOM     23  O   UNL     1      50.069   8.460  15.861  0.00  0.00    +0.000 OA
ATOM     24  H   UNL     1      46.940   8.858  15.854  0.00  0.00    +0.000 HD
BRANCH  22  25
ATOM     25  C   UNL     1      48.583   7.944  17.597  0.00  0.00    +0.000 A 
ATOM     26  C   UNL     1      48.147   8.796  18.602  0.00  0.00    +0.000 A 
ATOM     27  S   UNL     1      47.805   8.003  20.071  0.00  0.00    +0.000 S 
ATOM     28  C   UNL     1      48.268   6.498  19.425  0.00  0.00    +0.000 A 
ATOM     29  N   UNL     1      48.254   5.376  20.193  0.00  0.00    +0.000 NA
ATOM     30  C   UNL     1      48.671   4.314  19.591  0.00  0.00    +0.000 A 
ATOM     31  N   UNL     1      49.088   4.267  18.285  0.00  0.00    +0.000 N 
ATOM     32  C   UNL     1      49.050   5.361  17.453  0.00  0.00    +0.000 A 
ATOM     33  O   UNL     1      49.305   5.261  16.256  0.00  0.00    +0.000 OA
ATOM     34  C   UNL     1      48.640   6.593  18.095  0.00  0.00    +0.000 A 
ATOM     35  H   UNL     1      49.370   3.394  17.863  0.00  0.00    +0.000 HD
ENDBRANCH  22  25
ENDBRANCH  19  21
ENDBRANCH   1  19
TORSDOF 8
ENDMDL
MODEL 6
REMARK VINA RESULT:    -6.876      3.719      8.678
REMARK INTER + INTRA:         -10.481
REMARK INTER:                  -9.066
REMARK INTRA:                  -1.415
REMARK UNBOUND:                -0.591
REMARK  Name = 
REMARK  10 active torsions:
REMARK  status: ('A' for Active; 'I' for Inactive)
REMARK    1  A    between atoms: C_1  and  C_2
REMARK    2  A    between atoms: N_6  and  C_7
REMARK    3  A    between atoms: C_7  and  C_8
REMARK    4  A    between atoms: C_8  and  O_9
REMARK    5  A    between atoms: C_8  and  C_10
REMARK    6  A    between atoms: C_13  and  C_14
REMARK    7  A    between atoms: C_14  and  C_15
REMARK    8  A    between atoms: C_15  and  C_16
REMARK    9  A    between atoms: C_15  and  N_17
REMARK   10  A    between atoms: C_18  and  C_20
REMARK                            x       y       z     vdW  Elec       q    Type
REMARK                         _______ _______ _______ _____ _____    ______ ____
ROOT
ATOM      1  C   UNL     1      49.378   8.860  13.286  0.00  0.00    +0.000 C 
ENDROOT
BRANCH   1   5
ATOM      2  C   UNL     1      49.859   7.889  17.493  0.00  0.00    +0.000 A 
ATOM      3  C   UNL     1      48.635   8.378  17.008  0.00  0.00    +0.000 A 
ATOM      4  C   UNL     1      48.477   8.710  15.658  0.00  0.00    +0.000 A 
ATOM      5  C   UNL     1      49.540   8.566  14.759  0.00  0.00    +0.000 A 
ATOM      6  C   UNL     1      50.766   8.099  15.238  0.00  0.00    +0.000 A 
ATOM      7  C   UNL     1      50.923   7.762  16.584  0.00  0.00    +0.000 A 
BRANCH   2   8
ATOM      8  C   UNL     1      49.979   7.543  18.972  0.00  0.00    +0.000 C 
BRANCH   8   9
ATOM      9  O   UNL     1      49.712   8.721  19.734  0.00  0.00    +0.000 OA
ATOM     10  H   UNL     1      50.333   8.717  20.481  0.00  0.00    +0.000 HD
ENDBRANCH   8   9
BRANCH   8  11
ATOM     11  C   UNL     1      49.053   6.374  19.415  0.00  0.00    +0.000 C 
BRANCH  11  17
ATOM     12  C   UNL     1      47.335   4.160  17.637  0.00  0.00    +0.000 C 
ATOM     13  C   UNL     1      48.395   3.392  18.433  0.00  0.00    +0.000 C 
ATOM     14  C   UNL     1      49.675   3.181  17.610  0.00  0.00    +0.000 C 
ATOM     15  C   UNL     1      50.647   4.356  17.700  0.00  0.00    +0.000 C 
ATOM     16  C   UNL     1      50.895   4.753  19.156  0.00  0.00    +0.000 C 
ATOM     17  N   UNL     1      49.665   5.113  19.868  0.00  0.00    +0.000 NA
ATOM     18  C   UNL     1      48.707   3.993  19.824  0.00  0.00    +0.000 C 
ENDBRANCH  11  17
ENDBRANCH   8  11
ENDBRANCH   2   8
ENDBRANCH   1   5
BRANCH   1  19
ATOM     19  C   UNL     1      49.372   7.610  12.387  0.00  0.00    +0.000 C 
ATOM     20  C   UNL     1      50.287   7.805  11.175  0.00  0.00    +0.000 C 
BRANCH  19  21
ATOM     21  N   UNL     1      48.028   7.196  11.993  0.00  0.00    +0.000 N 
ATOM     22  C   UNL     1      47.233   6.368  12.746  0.00  0.00    +0.000 C 
ATOM     23  O   UNL     1      47.571   5.940  13.846  0.00  0.00    +0.000 OA
ATOM     24  H   UNL     1      47.817   7.282  11.002  0.00  0.00    +0.000 HD
BRANCH  22  25
ATOM     25  C   UNL     1      45.910   6.054  12.198  0.00  0.00    +0.000 A 
ATOM     26  C   UNL     1      45.159   7.067  11.618  0.00  0.00    +0.000 A 
ATOM     27  S   UNL     1      43.646   6.547  11.033  0.00  0.00    +0.000 S 
ATOM     28  C   UNL     1      43.926   4.957  11.572  0.00  0.00    +0.000 A 
ATOM     29  N   UNL     1      42.981   3.992  11.417  0.00  0.00    +0.000 NA
ATOM     30  C   UNL     1      43.306   2.845  11.910  0.00  0.00    +0.000 A 
ATOM     31  N   UNL     1      44.498   2.569  12.531  0.00  0.00    +0.000 N 
ATOM     32  C   UNL     1      45.509   3.494  12.643  0.00  0.00    +0.000 A 
ATOM     33  O   UNL     1      46.611   3.184  13.085  0.00  0.00    +0.000 OA
ATOM     34  C   UNL     1      45.174   4.816  12.154  0.00  0.00    +0.000 A 
ATOM     35  H   UNL     1      44.704   1.639  12.864  0.00  0.00    +0.000 HD
ENDBRANCH  22  25
ENDBRANCH  19  21
ENDBRANCH   1  19
TORSDOF 8
ENDMDL
MODEL 7
REMARK VINA RESULT:    -6.809      1.661      2.324
REMARK INTER + INTRA:         -10.385
REMARK INTER:                  -9.428
REMARK INTRA:                  -0.956
REMARK UNBOUND:                -0.591
REMARK  Name = 
REMARK  10 active torsions:
REMARK  status: ('A' for Active; 'I' for Inactive)
REMARK    1  A    between atoms: C_1  and  C_2
REMARK    2  A    between atoms: N_6  and  C_7
REMARK    3  A    between atoms: C_7  and  C_8
REMARK    4  A    between atoms: C_8  and  O_9
REMARK    5  A    between atoms: C_8  and  C_10
REMARK    6  A    between atoms: C_13  and  C_14
REMARK    7  A    between atoms: C_14  and  C_15
REMARK    8  A    between atoms: C_15  and  C_16
REMARK    9  A    between atoms: C_15  and  N_17
REMARK   10  A    between atoms: C_18  and  C_20
REMARK                            x       y       z     vdW  Elec       q    Type
REMARK                         _______ _______ _______ _____ _____    ______ ____
ROOT
ATOM      1  C   UNL     1      47.064   8.293  13.454  0.00  0.00    +0.000 C 
ENDROOT
BRANCH   1   5
ATOM      2  C   UNL     1      44.884   5.002  11.641  0.00  0.00    +0.000 A 
ATOM      3  C   UNL     1      44.604   6.329  11.279  0.00  0.00    +0.000 A 
ATOM      4  C   UNL     1      45.290   7.396  11.870  0.00  0.00    +0.000 A 
ATOM      5  C   UNL     1      46.268   7.164  12.843  0.00  0.00    +0.000 A 
ATOM      6  C   UNL     1      46.537   5.847  13.223  0.00  0.00    +0.000 A 
ATOM      7  C   UNL     1      45.859   4.781  12.629  0.00  0.00    +0.000 A 
BRANCH   2   8
ATOM      8  C   UNL     1      44.109   3.876  10.967  0.00  0.00    +0.000 C 
BRANCH   8   9
ATOM      9  O   UNL     1      43.131   4.458  10.103  0.00  0.00    +0.000 OA
ATOM     10  H   UNL     1      42.641   3.721   9.700  0.00  0.00    +0.000 HD
ENDBRANCH   8   9
BRANCH   8  11
ATOM     11  C   UNL     1      45.012   2.876  10.190  0.00  0.00    +0.000 C 
BRANCH  11  17
ATOM     12  C   UNL     1      46.719   4.753   8.051  0.00  0.00    +0.000 C 
ATOM     13  C   UNL     1      45.918   3.733   7.235  0.00  0.00    +0.000 C 
ATOM     14  C   UNL     1      46.750   2.480   6.925  0.00  0.00    +0.000 C 
ATOM     15  C   UNL     1      46.698   1.434   8.037  0.00  0.00    +0.000 C 
ATOM     16  C   UNL     1      45.255   1.144   8.450  0.00  0.00    +0.000 C 
ATOM     17  N   UNL     1      44.538   2.339   8.903  0.00  0.00    +0.000 NA
ATOM     18  C   UNL     1      44.545   3.367   7.846  0.00  0.00    +0.000 C 
ENDBRANCH  11  17
ENDBRANCH   8  11
ENDBRANCH   2   8
ENDBRANCH   1   5
BRANCH   1  19
ATOM     19  C   UNL     1      48.562   8.276  13.101  0.00  0.00    +0.000 C 
ATOM     20  C   UNL     1      48.775   7.862  11.642  0.00  0.00    +0.000 C 
BRANCH  19  21
ATOM     21  N   UNL     1      49.357   7.464  14.018  0.00  0.00    +0.000 N 
ATOM     22  C   UNL     1      50.080   7.981  15.065  0.00  0.00    +0.000 C 
ATOM     23  O   UNL     1      50.082   9.175  15.346  0.00  0.00    +0.000 OA
ATOM     24  H   UNL     1      49.613   6.542  13.675  0.00  0.00    +0.000 HD
BRANCH  22  25
ATOM     25  C   UNL     1      50.822   7.019  15.885  0.00  0.00    +0.000 A 
ATOM     26  C   UNL     1      52.198   7.158  16.014  0.00  0.00    +0.000 A 
ATOM     27  S   UNL     1      52.917   5.963  16.992  0.00  0.00    +0.000 S 
ATOM     28  C   UNL     1      51.419   5.195  17.245  0.00  0.00    +0.000 A 
ATOM     29  N   UNL     1      51.335   4.054  17.980  0.00  0.00    +0.000 NA
ATOM     30  C   UNL     1      50.148   3.554  18.053  0.00  0.00    +0.000 A 
ATOM     31  N   UNL     1      49.032   4.099  17.471  0.00  0.00    +0.000 N 
ATOM     32  C   UNL     1      49.058   5.288  16.782  0.00  0.00    +0.000 A 
ATOM     33  O   UNL     1      48.025   5.819  16.385  0.00  0.00    +0.000 OA
ATOM     34  C   UNL     1      50.378   5.864  16.624  0.00  0.00    +0.000 A 
ATOM     35  H   UNL     1      48.125   3.676  17.597  0.00  0.00    +0.000 HD
ENDBRANCH  22  25
ENDBRANCH  19  21
ENDBRANCH   1  19
TORSDOF 8
ENDMDL
MODEL 8
REMARK VINA RESULT:    -6.776      3.912      6.549
REMARK INTER + INTRA:         -10.338
REMARK INTER:                  -8.712
REMARK INTRA:                  -1.626
REMARK UNBOUND:                -0.591
REMARK  Name = 
REMARK  10 active torsions:
REMARK  status: ('A' for Active; 'I' for Inactive)
REMARK    1  A    between atoms: C_1  and  C_2
REMARK    2  A    between atoms: N_6  and  C_7
REMARK    3  A    between atoms: C_7  and  C_8
REMARK    4  A    between atoms: C_8  and  O_9
REMARK    5  A    between atoms: C_8  and  C_10
REMARK    6  A    between atoms: C_13  and  C_14
REMARK    7  A    between atoms: C_14  and  C_15
REMARK    8  A    between atoms: C_15  and  C_16
REMARK    9  A    between atoms: C_15  and  N_17
REMARK   10  A    between atoms: C_18  and  C_20
REMARK                            x       y       z     vdW  Elec       q    Type
REMARK                         _______ _______ _______ _____ _____    ______ ____
ROOT
ATOM      1  C   UNL     1      45.201   6.613  12.662  0.00  0.00    +0.000 C 
ENDROOT
BRANCH   1   5
ATOM      2  C   UNL     1      48.783   9.009  12.111  0.00  0.00    +0.000 A 
ATOM      3  C   UNL     1      47.710   9.495  12.876  0.00  0.00    +0.000 A 
ATOM      4  C   UNL     1      46.546   8.737  13.044  0.00  0.00    +0.000 A 
ATOM      5  C   UNL     1      46.422   7.477  12.447  0.00  0.00    +0.000 A 
ATOM      6  C   UNL     1      47.478   6.997  11.669  0.00  0.00    +0.000 A 
ATOM      7  C   UNL     1      48.642   7.749  11.506  0.00  0.00    +0.000 A 
BRANCH   2   8
ATOM      8  C   UNL     1      50.028   9.874  11.959  0.00  0.00    +0.000 C 
BRANCH   8   9
ATOM      9  O   UNL     1      50.490  10.231  13.263  0.00  0.00    +0.000 OA
ATOM     10  H   UNL     1      51.002  11.051  13.162  0.00  0.00    +0.000 HD
ENDBRANCH   8   9
BRANCH   8  11
ATOM     11  C   UNL     1      51.160   9.198  11.134  0.00  0.00    +0.000 C 
BRANCH  11  17
ATOM     12  C   UNL     1      52.744   6.675   9.671  0.00  0.00    +0.000 C 
ATOM     13  C   UNL     1      53.807   7.620  10.242  0.00  0.00    +0.000 C 
ATOM     14  C   UNL     1      54.282   8.635   9.192  0.00  0.00    +0.000 C 
ATOM     15  C   UNL     1      53.402   9.882   9.119  0.00  0.00    +0.000 C 
ATOM     16  C   UNL     1      53.176  10.476  10.509  0.00  0.00    +0.000 C 
ATOM     17  N   UNL     1      52.562   9.528  11.444  0.00  0.00    +0.000 NA
ATOM     18  C   UNL     1      53.395   8.318  11.560  0.00  0.00    +0.000 C 
ENDBRANCH  11  17
ENDBRANCH   8  11
ENDBRANCH   2   8
ENDBRANCH   1   5
BRANCH   1  19
ATOM     19  C   UNL     1      45.513   5.178  13.124  0.00  0.00    +0.000 C 
ATOM     20  C   UNL     1      44.239   4.329  13.163  0.00  0.00    +0.000 C 
BRANCH  19  21
ATOM     21  N   UNL     1      46.239   5.129  14.390  0.00  0.00    +0.000 N 
ATOM     22  C   UNL     1      47.067   4.096  14.755  0.00  0.00    +0.000 C 
ATOM     23  O   UNL     1      47.302   3.141  14.021  0.00  0.00    +0.000 OA
ATOM     24  H   UNL     1      45.874   5.727  15.126  0.00  0.00    +0.000 HD
BRANCH  22  25
ATOM     25  C   UNL     1      47.717   4.210  16.064  0.00  0.00    +0.000 A 
ATOM     26  C   UNL     1      47.449   3.258  17.038  0.00  0.00    +0.000 A 
ATOM     27  S   UNL     1      48.273   3.530  18.504  0.00  0.00    +0.000 S 
ATOM     28  C   UNL     1      48.985   4.953  17.900  0.00  0.00    +0.000 A 
ATOM     29  N   UNL     1      49.795   5.715  18.683  0.00  0.00    +0.000 NA
ATOM     30  C   UNL     1      50.229   6.788  18.114  0.00  0.00    +0.000 A 
ATOM     31  N   UNL     1      49.942   7.162  16.826  0.00  0.00    +0.000 N 
ATOM     32  C   UNL     1      49.189   6.386  15.977  0.00  0.00    +0.000 A 
ATOM     33  O   UNL     1      49.056   6.681  14.793  0.00  0.00    +0.000 OA
ATOM     34  C   UNL     1      48.630   5.195  16.584  0.00  0.00    +0.000 A 
ATOM     35  H   UNL     1      50.344   7.998  16.429  0.00  0.00    +0.000 HD
ENDBRANCH  22  25
ENDBRANCH  19  21
ENDBRANCH   1  19
TORSDOF 8
ENDMDL
MODEL 9
REMARK VINA RESULT:    -6.577      5.144      8.500
REMARK INTER + INTRA:         -10.051
REMARK INTER:                  -9.181
REMARK INTRA:                  -0.870
REMARK UNBOUND:                -0.591
REMARK  Name = 
REMARK  10 active torsions:
REMARK  status: ('A' for Active; 'I' for Inactive)
REMARK    1  A    between atoms: C_1  and  C_2
REMARK    2  A    between atoms: N_6  and  C_7
REMARK    3  A    between atoms: C_7  and  C_8
REMARK    4  A    between atoms: C_8  and  O_9
REMARK    5  A    between atoms: C_8  and  C_10
REMARK    6  A    between atoms: C_13  and  C_14
REMARK    7  A    between atoms: C_14  and  C_15
REMARK    8  A    between atoms: C_15  and  C_16
REMARK    9  A    between atoms: C_15  and  N_17
REMARK   10  A    between atoms: C_18  and  C_20
REMARK                            x       y       z     vdW  Elec       q    Type
REMARK                         _______ _______ _______ _____ _____    ______ ____
ROOT
ATOM      1  C   UNL     1      46.242   9.225  13.024  0.00  0.00    +0.000 C 
ENDROOT
BRANCH   1   5
ATOM      2  C   UNL     1      50.493   8.786  12.246  0.00  0.00    +0.000 A 
ATOM      3  C   UNL     1      49.880   8.069  13.287  0.00  0.00    +0.000 A 
ATOM      4  C   UNL     1      48.514   8.218  13.555  0.00  0.00    +0.000 A 
ATOM      5  C   UNL     1      47.729   9.091  12.794  0.00  0.00    +0.000 A 
ATOM      6  C   UNL     1      48.337   9.821  11.770  0.00  0.00    +0.000 A 
ATOM      7  C   UNL     1      49.697   9.669  11.497  0.00  0.00    +0.000 A 
BRANCH   2   8
ATOM      8  C   UNL     1      51.983   8.587  11.996  0.00  0.00    +0.000 C 
BRANCH   8   9
ATOM      9  O   UNL     1      52.551   7.946  13.139  0.00  0.00    +0.000 OA
ATOM     10  H   UNL     1      53.459   7.699  12.898  0.00  0.00    +0.000 HD
ENDBRANCH   8   9
BRANCH   8  11
ATOM     11  C   UNL     1      52.296   7.789  10.698  0.00  0.00    +0.000 C 
BRANCH  11  17
ATOM     12  C   UNL     1      54.388   5.226  10.431  0.00  0.00    +0.000 C 
ATOM     13  C   UNL     1      54.870   6.319   9.472  0.00  0.00    +0.000 C 
ATOM     14  C   UNL     1      54.309   6.114   8.056  0.00  0.00    +0.000 C 
ATOM     15  C   UNL     1      52.928   6.736   7.861  0.00  0.00    +0.000 C 
ATOM     16  C   UNL     1      52.906   8.188   8.341  0.00  0.00    +0.000 C 
ATOM     17  N   UNL     1      53.285   8.330   9.750  0.00  0.00    +0.000 NA
ATOM     18  C   UNL     1      54.626   7.761   9.975  0.00  0.00    +0.000 C 
ENDBRANCH  11  17
ENDBRANCH   8  11
ENDBRANCH   2   8
ENDBRANCH   1   5
BRANCH   1  19
ATOM     19  C   UNL     1      45.382   8.991  11.768  0.00  0.00    +0.000 C 
ATOM     20  C   UNL     1      44.254  10.022  11.680  0.00  0.00    +0.000 C 
BRANCH  19  21
ATOM     21  N   UNL     1      44.880   7.624  11.665  0.00  0.00    +0.000 N 
ATOM     22  C   UNL     1      45.649   6.555  11.278  0.00  0.00    +0.000 C 
ATOM     23  O   UNL     1      46.847   6.653  11.028  0.00  0.00    +0.000 OA
ATOM     24  H   UNL     1      43.870   7.534  11.584  0.00  0.00    +0.000 HD
BRANCH  22  25
ATOM     25  C   UNL     1      44.981   5.251  11.228  0.00  0.00    +0.000 A 
ATOM     26  C   UNL     1      44.262   4.816  12.333  0.00  0.00    +0.000 A 
ATOM     27  S   UNL     1      43.550   3.282  12.125  0.00  0.00    +0.000 S 
ATOM     28  C   UNL     1      44.213   3.130  10.564  0.00  0.00    +0.000 A 
ATOM     29  N   UNL     1      44.016   2.002   9.831  0.00  0.00    +0.000 NA
ATOM     30  C   UNL     1      44.612   2.002   8.686  0.00  0.00    +0.000 A 
ATOM     31  N   UNL     1      45.373   3.033   8.199  0.00  0.00    +0.000 N 
ATOM     32  C   UNL     1      45.538   4.219   8.875  0.00  0.00    +0.000 A 
ATOM     33  O   UNL     1      46.114   5.172   8.360  0.00  0.00    +0.000 OA
ATOM     34  C   UNL     1      44.934   4.251  10.192  0.00  0.00    +0.000 A 
ATOM     35  H   UNL     1      45.783   2.983   7.279  0.00  0.00    +0.000 HD
ENDBRANCH  22  25
ENDBRANCH  19  21
ENDBRANCH   1  19
TORSDOF 8
ENDMDL
