MODEL 1
REMARK VINA RESULT:    -8.492      0.000      0.000
REMARK INTER + INTRA:         -10.871
REMARK INTER:                 -10.478
REMARK INTRA:                  -0.393
REMARK UNBOUND:                -0.393
REMARK  Name = 
REMARK  4 active torsions:
REMARK  status: ('A' for Active; 'I' for Inactive)
REMARK    1  A    between atoms: C_2  and  C_3
REMARK    2  A    between atoms: C_6  and  N_7
REMARK    3  A    between atoms: N_7  and  C_8
REMARK    4  A    between atoms: C_8  and  C_9
REMARK                            x       y       z     vdW  Elec       q    Type
REMARK                         _______ _______ _______ _____ _____    ______ ____
ROOT
ATOM      1  C   UNL     1      44.203   4.715  11.965  0.00  0.00    +0.000 C 
ATOM      2  C   UNL     1      43.395   3.695  12.751  0.00  0.00    +0.000 C 
ATOM      3  C   UNL     1      43.059   5.140  12.881  0.00  0.00    +0.000 C 
ENDROOT
BRANCH   1   4
ATOM      4  C   UNL     1      45.560   5.190  12.463  0.00  0.00    +0.000 A 
ATOM      5  C   UNL     1      46.303   6.159  11.787  0.00  0.00    +0.000 A 
ATOM      6  C   UNL     1      47.430   6.679  12.396  0.00  0.00    +0.000 A 
ATOM      7  N   UNL     1      47.871   6.291  13.612  0.00  0.00    +0.000 NA
ATOM      8  C   UNL     1      47.208   5.303  14.248  0.00  0.00    +0.000 A 
ATOM      9  N   UNL     1      47.699   4.860  15.450  0.00  0.00    +0.000 N 
ATOM     10  C   UNL     1      48.267   5.828  16.391  0.00  0.00    +0.000 C 
ATOM     11  C   UNL     1      49.458   5.178  17.110  0.00  0.00    +0.000 C 
ATOM     12  O   UNL     1      49.089   3.930  17.732  0.00  0.00    +0.000 OA
ATOM     13  C   UNL     1      48.590   3.010  16.748  0.00  0.00    +0.000 C 
ATOM     14  C   UNL     1      47.351   3.568  16.034  0.00  0.00    +0.000 C 
ATOM     15  C   UNL     1      46.071   4.740  13.682  0.00  0.00    +0.000 A 
ENDBRANCH   1   4
BRANCH   1  16
ATOM     16  N   UNL     1      44.036   4.758  10.509  0.00  0.00    +0.000 N 
ATOM     17  H   UNL     1      43.177   5.139  10.133  0.00  0.00    +0.000 HD
BRANCH  16  21
ATOM     18  C   UNL     1      46.469   2.650   7.741  0.00  0.00    +0.000 A 
ATOM     19  C   UNL     1      45.706   1.938   8.668  0.00  0.00    +0.000 A 
ATOM     20  C   UNL     1      44.895   2.619   9.591  0.00  0.00    +0.000 A 
ATOM     21  C   UNL     1      44.800   4.014   9.583  0.00  0.00    +0.000 A 
ATOM     22  C   UNL     1      45.592   4.715   8.658  0.00  0.00    +0.000 A 
ATOM     23  C   UNL     1      46.415   4.044   7.747  0.00  0.00    +0.000 A 
BRANCH  18  25
ATOM     24  N   UNL     1      48.016   1.421   6.058  0.00  0.00    +0.000 NA
ATOM     25  C   UNL     1      47.315   1.963   6.807  0.00  0.00    +0.000 C 
ENDBRANCH  18  25
ENDBRANCH  16  21
ENDBRANCH   1  16
TORSDOF 4
ENDMDL
MODEL 2
REMARK VINA RESULT:    -8.404      2.238      3.282
REMARK INTER + INTRA:         -10.763
REMARK INTER:                  -9.986
REMARK INTRA:                  -0.777
REMARK UNBOUND:                -0.393
REMARK  Name = 
REMARK  4 active torsions:
REMARK  status: ('A' for Active; 'I' for Inactive)
REMARK    1  A    between atoms: C_2  and  C_3
REMARK    2  A    between atoms: C_6  and  N_7
REMARK    3  A    between atoms: N_7  and  C_8
REMARK    4  A    between atoms: C_8  and  C_9
REMARK                            x       y       z     vdW  Elec       q    Type
REMARK                         _______ _______ _______ _____ _____    ______ ____
ROOT
ATOM      1  C   UNL     1      44.062   4.720  11.556  0.00  0.00    +0.000 C 
ATOM      2  C   UNL     1      43.041   3.702  12.041  0.00  0.00    +0.000 C 
ATOM      3  C   UNL     1      42.806   5.147  12.310  0.00  0.00    +0.000 C 
ENDROOT
BRANCH   1   4
ATOM      4  C   UNL     1      45.336   4.984  12.344  0.00  0.00    +0.000 A 
ATOM      5  C   UNL     1      45.906   4.023  13.180  0.00  0.00    +0.000 A 
ATOM      6  C   UNL     1      47.160   4.263  13.711  0.00  0.00    +0.000 A 
ATOM      7  N   UNL     1      47.870   5.388  13.480  0.00  0.00    +0.000 NA
ATOM      8  C   UNL     1      47.304   6.359  12.734  0.00  0.00    +0.000 A 
ATOM      9  N   UNL     1      47.996   7.531  12.560  0.00  0.00    +0.000 N 
ATOM     10  C   UNL     1      49.449   7.485  12.382  0.00  0.00    +0.000 C 
ATOM     11  C   UNL     1      50.071   8.703  13.079  0.00  0.00    +0.000 C 
ATOM     12  O   UNL     1      49.482   9.938  12.623  0.00  0.00    +0.000 OA
ATOM     13  C   UNL     1      48.067   9.939  12.875  0.00  0.00    +0.000 C 
ATOM     14  C   UNL     1      47.366   8.783  12.149  0.00  0.00    +0.000 C 
ATOM     15  C   UNL     1      46.043   6.177  12.179  0.00  0.00    +0.000 A 
ENDBRANCH   1   4
BRANCH   1  16
ATOM     16  N   UNL     1      44.173   4.956  10.114  0.00  0.00    +0.000 N 
ATOM     17  H   UNL     1      43.461   5.517   9.661  0.00  0.00    +0.000 HD
BRANCH  16  21
ATOM     18  C   UNL     1      46.731   2.822   7.483  0.00  0.00    +0.000 A 
ATOM     19  C   UNL     1      45.858   2.118   8.315  0.00  0.00    +0.000 A 
ATOM     20  C   UNL     1      45.004   2.808   9.191  0.00  0.00    +0.000 A 
ATOM     21  C   UNL     1      44.977   4.206   9.229  0.00  0.00    +0.000 A 
ATOM     22  C   UNL     1      45.877   4.897   8.401  0.00  0.00    +0.000 A 
ATOM     23  C   UNL     1      46.743   4.216   7.537  0.00  0.00    +0.000 A 
BRANCH  18  25
ATOM     24  N   UNL     1      48.336   1.543   5.895  0.00  0.00    +0.000 NA
ATOM     25  C   UNL     1      47.621   2.125   6.599  0.00  0.00    +0.000 C 
ENDBRANCH  18  25
ENDBRANCH  16  21
ENDBRANCH   1  16
TORSDOF 4
ENDMDL
MODEL 3
REMARK VINA RESULT:    -8.081      2.664      3.155
REMARK INTER + INTRA:         -10.364
REMARK INTER:                  -9.742
REMARK INTRA:                  -0.621
REMARK UNBOUND:                -0.393
REMARK  Name = 
REMARK  4 active torsions:
REMARK  status: ('A' for Active; 'I' for Inactive)
REMARK    1  A    between atoms: C_2  and  C_3
REMARK    2  A    between atoms: C_6  and  N_7
REMARK    3  A    between atoms: N_7  and  C_8
REMARK    4  A    between atoms: C_8  and  C_9
REMARK                            x       y       z     vdW  Elec       q    Type
REMARK                         _______ _______ _______ _____ _____    ______ ____
ROOT
ATOM      1  C   UNL     1      44.531   4.480  11.565  0.00  0.00    +0.000 C 
ATOM      2  C   UNL     1      45.092   3.466  12.550  0.00  0.00    +0.000 C 
ATOM      3  C   UNL     1      43.762   4.080  12.821  0.00  0.00    +0.000 C 
ENDROOT
BRANCH   1   4
ATOM      4  C   UNL     1      44.985   5.931  11.593  0.00  0.00    +0.000 A 
ATOM      5  C   UNL     1      44.136   6.983  11.244  0.00  0.00    +0.000 A 
ATOM      6  C   UNL     1      44.554   8.280  11.477  0.00  0.00    +0.000 A 
ATOM      7  N   UNL     1      45.751   8.598  12.013  0.00  0.00    +0.000 NA
ATOM      8  C   UNL     1      46.614   7.598  12.287  0.00  0.00    +0.000 A 
ATOM      9  N   UNL     1      47.859   7.927  12.763  0.00  0.00    +0.000 N 
ATOM     10  C   UNL     1      47.993   9.037  13.710  0.00  0.00    +0.000 C 
ATOM     11  C   UNL     1      49.305   9.778  13.417  0.00  0.00    +0.000 C 
ATOM     12  O   UNL     1      50.437   8.885  13.426  0.00  0.00    +0.000 OA
ATOM     13  C   UNL     1      50.266   7.853  12.441  0.00  0.00    +0.000 C 
ATOM     14  C   UNL     1      49.004   7.022  12.712  0.00  0.00    +0.000 C 
ATOM     15  C   UNL     1      46.253   6.275  12.069  0.00  0.00    +0.000 A 
ENDBRANCH   1   4
BRANCH   1  16
ATOM     16  N   UNL     1      44.096   4.000  10.250  0.00  0.00    +0.000 N 
ATOM     17  H   UNL     1      43.114   3.799  10.110  0.00  0.00    +0.000 HD
BRANCH  16  21
ATOM     18  C   UNL     1      46.774   2.535   7.299  0.00  0.00    +0.000 A 
ATOM     19  C   UNL     1      46.135   1.636   8.155  0.00  0.00    +0.000 A 
ATOM     20  C   UNL     1      45.246   2.103   9.137  0.00  0.00    +0.000 A 
ATOM     21  C   UNL     1      44.948   3.465   9.259  0.00  0.00    +0.000 A 
ATOM     22  C   UNL     1      45.617   4.356   8.404  0.00  0.00    +0.000 A 
ATOM     23  C   UNL     1      46.517   3.900   7.434  0.00  0.00    +0.000 A 
BRANCH  18  25
ATOM     24  N   UNL     1      48.439   1.672   5.505  0.00  0.00    +0.000 NA
ATOM     25  C   UNL     1      47.699   2.069   6.306  0.00  0.00    +0.000 C 
ENDBRANCH  18  25
ENDBRANCH  16  21
ENDBRANCH   1  16
TORSDOF 4
ENDMDL
MODEL 4
REMARK VINA RESULT:    -5.929      3.648      6.877
REMARK INTER + INTRA:          -7.709
REMARK INTER:                  -7.604
REMARK INTRA:                  -0.105
REMARK UNBOUND:                -0.393
REMARK  Name = 
REMARK  4 active torsions:
REMARK  status: ('A' for Active; 'I' for Inactive)
REMARK    1  A    between atoms: C_2  and  C_3
REMARK    2  A    between atoms: C_6  and  N_7
REMARK    3  A    between atoms: N_7  and  C_8
REMARK    4  A    between atoms: C_8  and  C_9
REMARK                            x       y       z     vdW  Elec       q    Type
REMARK                         _______ _______ _______ _____ _____    ______ ____
ROOT
ATOM      1  C   UNL     1      48.342   8.004  12.843  0.00  0.00    +0.000 C 
ATOM      2  C   UNL     1      49.852   8.179  12.795  0.00  0.00    +0.000 C 
ATOM      3  C   UNL     1      49.117   7.890  11.533  0.00  0.00    +0.000 C 
ENDROOT
BRANCH   1   4
ATOM      4  C   UNL     1      47.721   6.684  13.273  0.00  0.00    +0.000 A 
ATOM      5  C   UNL     1      48.008   6.094  14.505  0.00  0.00    +0.000 A 
ATOM      6  C   UNL     1      47.265   5.000  14.908  0.00  0.00    +0.000 A 
ATOM      7  N   UNL     1      46.277   4.452  14.169  0.00  0.00    +0.000 NA
ATOM      8  C   UNL     1      46.035   4.962  12.945  0.00  0.00    +0.000 A 
ATOM      9  N   UNL     1      45.081   4.358  12.166  0.00  0.00    +0.000 N 
ATOM     10  C   UNL     1      43.859   3.851  12.795  0.00  0.00    +0.000 C 
ATOM     11  C   UNL     1      43.439   2.556  12.084  0.00  0.00    +0.000 C 
ATOM     12  O   UNL     1      43.307   2.747  10.661  0.00  0.00    +0.000 OA
ATOM     13  C   UNL     1      44.553   3.194  10.100  0.00  0.00    +0.000 C 
ATOM     14  C   UNL     1      45.001   4.525  10.717  0.00  0.00    +0.000 C 
ATOM     15  C   UNL     1      46.754   6.058  12.483  0.00  0.00    +0.000 A 
ENDBRANCH   1   4
BRANCH   1  16
ATOM     16  N   UNL     1      47.517   9.185  13.111  0.00  0.00    +0.000 N 
ATOM     17  H   UNL     1      47.470   9.536  14.060  0.00  0.00    +0.000 HD
BRANCH  16  21
ATOM     18  C   UNL     1      44.368  10.632  10.658  0.00  0.00    +0.000 A 
ATOM     19  C   UNL     1      45.558  11.356  10.748  0.00  0.00    +0.000 A 
ATOM     20  C   UNL     1      46.611  10.892  11.554  0.00  0.00    +0.000 A 
ATOM     21  C   UNL     1      46.512   9.685  12.253  0.00  0.00    +0.000 A 
ATOM     22  C   UNL     1      45.300   8.981  12.169  0.00  0.00    +0.000 A 
ATOM     23  C   UNL     1      44.240   9.445  11.381  0.00  0.00    +0.000 A 
BRANCH  18  25
ATOM     24  N   UNL     1      42.391  11.500   9.218  0.00  0.00    +0.000 NA
ATOM     25  C   UNL     1      43.280  11.108   9.852  0.00  0.00    +0.000 C 
ENDBRANCH  18  25
ENDBRANCH  16  21
ENDBRANCH   1  16
TORSDOF 4
ENDMDL
MODEL 5
REMARK VINA RESULT:    -5.870      3.077      4.625
REMARK INTER + INTRA:          -7.636
REMARK INTER:                  -7.604
REMARK INTRA:                  -0.031
REMARK UNBOUND:                -0.393
REMARK  Name = 
REMARK  4 active torsions:
REMARK  status: ('A' for Active; 'I' for Inactive)
REMARK    1  A    between atoms: C_2  and  C_3
REMARK    2  A    between atoms: C_6  and  N_7
REMARK    3  A    between atoms: N_7  and  C_8
REMARK    4  A    between atoms: C_8  and  C_9
REMARK                            x       y       z     vdW  Elec       q    Type
REMARK                         _______ _______ _______ _____ _____    ______ ____
ROOT
ATOM      1  C   UNL     1      48.045   7.864  13.027  0.00  0.00    +0.000 C 
ATOM      2  C   UNL     1      48.350   8.990  12.052  0.00  0.00    +0.000 C 
ATOM      3  C   UNL     1      48.547   7.581  11.614  0.00  0.00    +0.000 C 
ENDROOT
BRANCH   1   4
ATOM      4  C   UNL     1      49.050   7.463  14.097  0.00  0.00    +0.000 A 
ATOM      5  C   UNL     1      50.365   7.933  14.095  0.00  0.00    +0.000 A 
ATOM      6  C   UNL     1      51.162   7.683  15.197  0.00  0.00    +0.000 A 
ATOM      7  N   UNL     1      50.748   6.992  16.280  0.00  0.00    +0.000 NA
ATOM      8  C   UNL     1      49.506   6.468  16.268  0.00  0.00    +0.000 A 
ATOM      9  N   UNL     1      49.112   5.704  17.339  0.00  0.00    +0.000 N 
ATOM     10  C   UNL     1      49.524   6.098  18.688  0.00  0.00    +0.000 C 
ATOM     11  C   UNL     1      49.801   4.830  19.509  0.00  0.00    +0.000 C 
ATOM     12  O   UNL     1      48.674   3.931  19.499  0.00  0.00    +0.000 OA
ATOM     13  C   UNL     1      48.356   3.543  18.152  0.00  0.00    +0.000 C 
ATOM     14  C   UNL     1      47.999   4.760  17.287  0.00  0.00    +0.000 C 
ATOM     15  C   UNL     1      48.661   6.681  15.186  0.00  0.00    +0.000 A 
ENDBRANCH   1   4
BRANCH   1  16
ATOM     16  N   UNL     1      46.645   7.611  13.377  0.00  0.00    +0.000 N 
ATOM     17  H   UNL     1      46.257   8.081  14.186  0.00  0.00    +0.000 HD
BRANCH  16  21
ATOM     18  C   UNL     1      44.352   4.260  12.140  0.00  0.00    +0.000 A 
ATOM     19  C   UNL     1      43.982   5.538  11.720  0.00  0.00    +0.000 A 
ATOM     20  C   UNL     1      44.729   6.659  12.120  0.00  0.00    +0.000 A 
ATOM     21  C   UNL     1      45.876   6.523  12.910  0.00  0.00    +0.000 A 
ATOM     22  C   UNL     1      46.220   5.231  13.340  0.00  0.00    +0.000 A 
ATOM     23  C   UNL     1      45.471   4.112  12.960  0.00  0.00    +0.000 A 
BRANCH  18  25
ATOM     24  N   UNL     1      42.972   2.171  11.453  0.00  0.00    +0.000 NA
ATOM     25  C   UNL     1      43.583   3.111  11.753  0.00  0.00    +0.000 C 
ENDBRANCH  18  25
ENDBRANCH  16  21
ENDBRANCH   1  16
TORSDOF 4
ENDMDL
MODEL 6
REMARK VINA RESULT:    -5.736      3.746      8.423
REMARK INTER + INTRA:          -7.471
REMARK INTER:                  -7.236
REMARK INTRA:                  -0.235
REMARK UNBOUND:                -0.393
REMARK  Name = 
REMARK  4 active torsions:
REMARK  status: ('A' for Active; 'I' for Inactive)
REMARK    1  A    between atoms: C_2  and  C_3
REMARK    2  A    between atoms: C_6  and  N_7
REMARK    3  A    between atoms: N_7  and  C_8
REMARK    4  A    between atoms: C_8  and  C_9
REMARK                            x       y       z     vdW  Elec       q    Type
REMARK                         _______ _______ _______ _____ _____    ______ ____
ROOT
ATOM      1  C   UNL     1      48.412   3.415  17.171  0.00  0.00    +0.000 C 
ATOM      2  C   UNL     1      48.170   3.480  18.671  0.00  0.00    +0.000 C 
ATOM      3  C   UNL     1      47.124   2.885  17.793  0.00  0.00    +0.000 C 
ENDROOT
BRANCH   1   4
ATOM      4  C   UNL     1      48.179   4.632  16.288  0.00  0.00    +0.000 A 
ATOM      5  C   UNL     1      48.946   5.793  16.403  0.00  0.00    +0.000 A 
ATOM      6  C   UNL     1      48.807   6.780  15.445  0.00  0.00    +0.000 A 
ATOM      7  N   UNL     1      47.955   6.697  14.401  0.00  0.00    +0.000 NA
ATOM      8  C   UNL     1      47.153   5.616  14.315  0.00  0.00    +0.000 A 
ATOM      9  N   UNL     1      46.237   5.567  13.294  0.00  0.00    +0.000 N 
ATOM     10  C   UNL     1      46.611   6.076  11.972  0.00  0.00    +0.000 C 
ATOM     11  C   UNL     1      45.385   6.749  11.338  0.00  0.00    +0.000 C 
ATOM     12  O   UNL     1      44.247   5.864  11.305  0.00  0.00    +0.000 OA
ATOM     13  C   UNL     1      43.902   5.444  12.636  0.00  0.00    +0.000 C 
ATOM     14  C   UNL     1      45.063   4.699  13.308  0.00  0.00    +0.000 C 
ATOM     15  C   UNL     1      47.244   4.594  15.251  0.00  0.00    +0.000 A 
ENDBRANCH   1   4
BRANCH   1  16
ATOM     16  N   UNL     1      49.429   2.484  16.674  0.00  0.00    +0.000 N 
ATOM     17  H   UNL     1      49.133   1.718  16.081  0.00  0.00    +0.000 HD
BRANCH  16  21
ATOM     18  C   UNL     1      53.293   2.184  18.406  0.00  0.00    +0.000 A 
ATOM     19  C   UNL     1      52.644   1.028  17.969  0.00  0.00    +0.000 A 
ATOM     20  C   UNL     1      51.365   1.109  17.394  0.00  0.00    +0.000 A 
ATOM     21  C   UNL     1      50.728   2.340  17.208  0.00  0.00    +0.000 A 
ATOM     22  C   UNL     1      51.387   3.490  17.673  0.00  0.00    +0.000 A 
ATOM     23  C   UNL     1      52.654   3.416  18.263  0.00  0.00    +0.000 A 
BRANCH  18  25
ATOM     24  N   UNL     1      55.635   2.064  19.518  0.00  0.00    +0.000 NA
ATOM     25  C   UNL     1      54.591   2.109  19.013  0.00  0.00    +0.000 C 
ENDBRANCH  18  25
ENDBRANCH  16  21
ENDBRANCH   1  16
TORSDOF 4
ENDMDL
MODEL 7
REMARK VINA RESULT:    -5.492      3.468      5.454
REMARK INTER + INTRA:          -7.170
REMARK INTER:                  -6.444
REMARK INTRA:                  -0.725
REMARK UNBOUND:                -0.393
REMARK  Name = 
REMARK  4 active torsions:
REMARK  status: ('A' for Active; 'I' for Inactive)
REMARK    1  A    between atoms: C_2  and  C_3
REMARK    2  A    between atoms: C_6  and  N_7
REMARK    3  A    between atoms: N_7  and  C_8
REMARK    4  A    between atoms: C_8  and  C_9
REMARK                            x       y       z     vdW  Elec       q    Type
REMARK                         _______ _______ _______ _____ _____    ______ ____
ROOT
ATOM      1  C   UNL     1      49.484   7.801  13.515  0.00  0.00    +0.000 C 
ATOM      2  C   UNL     1      49.720   8.935  12.529  0.00  0.00    +0.000 C 
ATOM      3  C   UNL     1      50.893   8.267  13.157  0.00  0.00    +0.000 C 
ENDROOT
BRANCH   1   4
ATOM      4  C   UNL     1      49.123   8.087  14.964  0.00  0.00    +0.000 A 
ATOM      5  C   UNL     1      48.648   9.332  15.381  0.00  0.00    +0.000 A 
ATOM      6  C   UNL     1      48.160   9.462  16.667  0.00  0.00    +0.000 A 
ATOM      7  N   UNL     1      48.128   8.451  17.562  0.00  0.00    +0.000 NA
ATOM      8  C   UNL     1      48.650   7.261  17.202  0.00  0.00    +0.000 A 
ATOM      9  N   UNL     1      48.683   6.257  18.137  0.00  0.00    +0.000 N 
ATOM     10  C   UNL     1      47.555   6.100  19.059  0.00  0.00    +0.000 C 
ATOM     11  C   UNL     1      48.094   5.662  20.428  0.00  0.00    +0.000 C 
ATOM     12  O   UNL     1      48.912   4.479  20.326  0.00  0.00    +0.000 OA
ATOM     13  C   UNL     1      50.027   4.717  19.449  0.00  0.00    +0.000 C 
ATOM     14  C   UNL     1      49.560   5.093  18.037  0.00  0.00    +0.000 C 
ATOM     15  C   UNL     1      49.160   7.073  15.924  0.00  0.00    +0.000 A 
ENDBRANCH   1   4
BRANCH   1  16
ATOM     16  N   UNL     1      48.975   6.528  12.996  0.00  0.00    +0.000 N 
ATOM     17  H   UNL     1      49.635   5.869  12.602  0.00  0.00    +0.000 HD
BRANCH  16  21
ATOM     18  C   UNL     1      44.878   5.730  12.223  0.00  0.00    +0.000 A 
ATOM     19  C   UNL     1      45.573   6.618  11.401  0.00  0.00    +0.000 A 
ATOM     20  C   UNL     1      46.929   6.894  11.642  0.00  0.00    +0.000 A 
ATOM     21  C   UNL     1      47.625   6.264  12.678  0.00  0.00    +0.000 A 
ATOM     22  C   UNL     1      46.904   5.390  13.509  0.00  0.00    +0.000 A 
ATOM     23  C   UNL     1      45.549   5.123  13.286  0.00  0.00    +0.000 A 
BRANCH  18  25
ATOM     24  N   UNL     1      42.358   5.258  11.814  0.00  0.00    +0.000 NA
ATOM     25  C   UNL     1      43.487   5.458  11.997  0.00  0.00    +0.000 C 
ENDBRANCH  18  25
ENDBRANCH  16  21
ENDBRANCH   1  16
TORSDOF 4
ENDMDL
