MODEL 1
REMARK VINA RESULT:    -7.821      0.000      0.000
REMARK INTER + INTRA:         -12.361
REMARK INTER:                 -11.250
REMARK INTRA:                  -1.111
REMARK UNBOUND:                -1.111
REMARK  Name = 
REMARK  8 active torsions:
REMARK  status: ('A' for Active; 'I' for Inactive)
REMARK    1  A    between atoms: N_1  and  C_2
REMARK    2  A    between atoms: C_2  and  C_3
REMARK    3  A    between atoms: C_6  and  C_7
REMARK    4  A    between atoms: N_9  and  C_10
REMARK    5  A    between atoms: C_10  and  C_11
REMARK    6  A    between atoms: C_14  and  C_15
REMARK    7  A    between atoms: C_15  and  N_16
REMARK    8  A    between atoms: C_17  and  C_19
REMARK                            x       y       z     vdW  Elec       q    Type
REMARK                         _______ _______ _______ _____ _____    ______ ____
ROOT
ATOM      1  C   UNL     1      45.234   6.746  11.482  0.00  0.00    +0.000 A 
ATOM      2  C   UNL     1      46.497   6.216  11.782  0.00  0.00    +0.000 A 
ATOM      3  C   UNL     1      47.385   6.893  12.635  0.00  0.00    +0.000 A 
ATOM      4  C   UNL     1      47.029   8.119  13.217  0.00  0.00    +0.000 A 
ATOM      5  C   UNL     1      45.779   8.664  12.891  0.00  0.00    +0.000 A 
ATOM      6  C   UNL     1      44.887   7.981  12.049  0.00  0.00    +0.000 A 
ENDROOT
BRANCH   1   7
ATOM      7  C   UNL     1      44.272   6.008  10.577  0.00  0.00    +0.000 C 
BRANCH   7  10
ATOM      8  C   UNL     1      44.561   3.724   9.674  0.00  0.00    +0.000 C 
ATOM      9  O   UNL     1      43.636   3.284  10.344  0.00  0.00    +0.000 OA
ATOM     10  N   UNL     1      44.943   5.052   9.726  0.00  0.00    +0.000 N 
ATOM     11  H   UNL     1      45.737   5.363   9.190  0.00  0.00    +0.000 HD
BRANCH   8  15
ATOM     12  C   UNL     1      46.643   2.435   6.959  0.00  0.00    +0.000 A 
ATOM     13  C   UNL     1      46.440   1.253   7.641  0.00  0.00    +0.000 A 
ATOM     14  C   UNL     1      45.622   1.542   8.761  0.00  0.00    +0.000 A 
ATOM     15  C   UNL     1      45.333   2.899   8.759  0.00  0.00    +0.000 A 
ATOM     16  N   UNL     1      45.956   3.416   7.637  0.00  0.00    +0.000 N 
ATOM     17  H   UNL     1      45.941   4.393   7.365  0.00  0.00    +0.000 HD
BRANCH  12  18
ATOM     18  C   UNL     1      47.409   2.707   5.712  0.00  0.00    +0.000 C 
BRANCH  18  19
ATOM     19  N   UNL     1      48.587   1.853   5.640  0.00  0.00    +0.000 NA
ATOM     20  H   UNL     1      49.413   2.448   5.607  0.00  0.00    +0.000 HD
ATOM     21  H   UNL     1      48.570   1.359   4.749  0.00  0.00    +0.000 HD
ENDBRANCH  18  19
ENDBRANCH  12  18
ENDBRANCH   8  15
ENDBRANCH   7  10
ENDBRANCH   1   7
BRANCH   4  22
ATOM     22  C   UNL     1      47.957   8.852  14.162  0.00  0.00    +0.000 C 
BRANCH  22  23
ATOM     23  N   UNL     1      48.230   8.089  15.354  0.00  0.00    +0.000 N 
ATOM     24  C   UNL     1      49.473   7.556  15.611  0.00  0.00    +0.000 C 
ATOM     25  O   UNL     1      50.427   7.715  14.858  0.00  0.00    +0.000 OA
ATOM     26  H   UNL     1      47.428   7.679  15.818  0.00  0.00    +0.000 HD
BRANCH  24  27
ATOM     27  C   UNL     1      49.607   6.832  16.886  0.00  0.00    +0.000 A 
ATOM     28  C   UNL     1      50.378   7.359  17.913  0.00  0.00    +0.000 A 
ATOM     29  S   UNL     1      50.374   6.402  19.328  0.00  0.00    +0.000 S 
ATOM     30  C   UNL     1      49.389   5.223  18.597  0.00  0.00    +0.000 A 
ATOM     31  N   UNL     1      49.026   4.095  19.265  0.00  0.00    +0.000 NA
ATOM     32  C   UNL     1      48.304   3.275  18.575  0.00  0.00    +0.000 A 
ATOM     33  N   UNL     1      47.903   3.486  17.282  0.00  0.00    +0.000 N 
ATOM     34  C   UNL     1      48.205   4.630  16.586  0.00  0.00    +0.000 A 
ATOM     35  O   UNL     1      47.767   4.820  15.457  0.00  0.00    +0.000 OA
ATOM     36  C   UNL     1      49.042   5.572  17.304  0.00  0.00    +0.000 A 
ATOM     37  H   UNL     1      47.320   2.816  16.803  0.00  0.00    +0.000 HD
ENDBRANCH  24  27
ENDBRANCH  22  23
ENDBRANCH   4  22
TORSDOF 8
ENDMDL
MODEL 2
REMARK VINA RESULT:    -7.531      1.281      1.530
REMARK INTER + INTRA:         -11.945
REMARK INTER:                 -11.015
REMARK INTRA:                  -0.929
REMARK UNBOUND:                -1.111
REMARK  Name = 
REMARK  8 active torsions:
REMARK  status: ('A' for Active; 'I' for Inactive)
REMARK    1  A    between atoms: N_1  and  C_2
REMARK    2  A    between atoms: C_2  and  C_3
REMARK    3  A    between atoms: C_6  and  C_7
REMARK    4  A    between atoms: N_9  and  C_10
REMARK    5  A    between atoms: C_10  and  C_11
REMARK    6  A    between atoms: C_14  and  C_15
REMARK    7  A    between atoms: C_15  and  N_16
REMARK    8  A    between atoms: C_17  and  C_19
REMARK                            x       y       z     vdW  Elec       q    Type
REMARK                         _______ _______ _______ _____ _____    ______ ____
ROOT
ATOM      1  C   UNL     1      45.347   6.720  11.790  0.00  0.00    +0.000 A 
ATOM      2  C   UNL     1      45.247   8.094  12.056  0.00  0.00    +0.000 A 
ATOM      3  C   UNL     1      46.157   8.735  12.914  0.00  0.00    +0.000 A 
ATOM      4  C   UNL     1      47.198   8.018  13.524  0.00  0.00    +0.000 A 
ATOM      5  C   UNL     1      47.277   6.640  13.282  0.00  0.00    +0.000 A 
ATOM      6  C   UNL     1      46.375   6.002  12.416  0.00  0.00    +0.000 A 
ENDROOT
BRANCH   1   7
ATOM      7  C   UNL     1      44.376   6.033  10.854  0.00  0.00    +0.000 C 
BRANCH   7  10
ATOM      8  C   UNL     1      44.547   3.825   9.755  0.00  0.00    +0.000 C 
ATOM      9  O   UNL     1      43.533   3.413  10.302  0.00  0.00    +0.000 OA
ATOM     10  N   UNL     1      45.035   5.100   9.969  0.00  0.00    +0.000 N 
ATOM     11  H   UNL     1      45.896   5.384   9.530  0.00  0.00    +0.000 HD
BRANCH   8  15
ATOM     12  C   UNL     1      46.611   2.586   7.003  0.00  0.00    +0.000 A 
ATOM     13  C   UNL     1      46.450   1.401   7.689  0.00  0.00    +0.000 A 
ATOM     14  C   UNL     1      45.645   1.669   8.823  0.00  0.00    +0.000 A 
ATOM     15  C   UNL     1      45.323   3.019   8.826  0.00  0.00    +0.000 A 
ATOM     16  N   UNL     1      45.913   3.551   7.694  0.00  0.00    +0.000 N 
ATOM     17  H   UNL     1      45.869   4.527   7.422  0.00  0.00    +0.000 HD
BRANCH  12  18
ATOM     18  C   UNL     1      47.349   2.877   5.743  0.00  0.00    +0.000 C 
BRANCH  18  19
ATOM     19  N   UNL     1      48.456   1.946   5.573  0.00  0.00    +0.000 NA
ATOM     20  H   UNL     1      49.328   2.466   5.652  0.00  0.00    +0.000 HD
ATOM     21  H   UNL     1      48.433   1.594   4.616  0.00  0.00    +0.000 HD
ENDBRANCH  18  19
ENDBRANCH  12  18
ENDBRANCH   8  15
ENDBRANCH   7  10
ENDBRANCH   1   7
BRANCH   4  22
ATOM     22  C   UNL     1      48.208   8.693  14.427  0.00  0.00    +0.000 C 
BRANCH  22  23
ATOM     23  N   UNL     1      49.154   7.755  14.977  0.00  0.00    +0.000 N 
ATOM     24  C   UNL     1      49.184   7.446  16.318  0.00  0.00    +0.000 C 
ATOM     25  O   UNL     1      48.397   7.931  17.122  0.00  0.00    +0.000 OA
ATOM     26  H   UNL     1      49.991   7.587  14.428  0.00  0.00    +0.000 HD
BRANCH  24  27
ATOM     27  C   UNL     1      50.182   6.443  16.722  0.00  0.00    +0.000 A 
ATOM     28  C   UNL     1      51.518   6.796  16.849  0.00  0.00    +0.000 A 
ATOM     29  S   UNL     1      52.516   5.513  17.372  0.00  0.00    +0.000 S 
ATOM     30  C   UNL     1      51.207   4.427  17.392  0.00  0.00    +0.000 A 
ATOM     31  N   UNL     1      51.379   3.120  17.727  0.00  0.00    +0.000 NA
ATOM     32  C   UNL     1      50.303   2.406  17.668  0.00  0.00    +0.000 A 
ATOM     33  N   UNL     1      49.069   2.884  17.315  0.00  0.00    +0.000 N 
ATOM     34  C   UNL     1      48.839   4.204  17.016  0.00  0.00    +0.000 A 
ATOM     35  O   UNL     1      47.708   4.612  16.777  0.00  0.00    +0.000 OA
ATOM     36  C   UNL     1      50.020   5.044  17.036  0.00  0.00    +0.000 A 
ATOM     37  H   UNL     1      48.260   2.280  17.308  0.00  0.00    +0.000 HD
ENDBRANCH  24  27
ENDBRANCH  22  23
ENDBRANCH   4  22
TORSDOF 8
ENDMDL
MODEL 3
REMARK VINA RESULT:    -7.065      4.358      8.770
REMARK INTER + INTRA:         -11.274
REMARK INTER:                 -10.194
REMARK INTRA:                  -1.079
REMARK UNBOUND:                -1.111
REMARK  Name = 
REMARK  8 active torsions:
REMARK  status: ('A' for Active; 'I' for Inactive)
REMARK    1  A    between atoms: N_1  and  C_2
REMARK    2  A    between atoms: C_2  and  C_3
REMARK    3  A    between atoms: C_6  and  C_7
REMARK    4  A    between atoms: N_9  and  C_10
REMARK    5  A    between atoms: C_10  and  C_11
REMARK    6  A    between atoms: C_14  and  C_15
REMARK    7  A    between atoms: C_15  and  N_16
REMARK    8  A    between atoms: C_17  and  C_19
REMARK                            x       y       z     vdW  Elec       q    Type
REMARK                         _______ _______ _______ _____ _____    ______ ____
ROOT
ATOM      1  C   UNL     1      49.548   4.615  17.578  0.00  0.00    +0.000 A 
ATOM      2  C   UNL     1      50.295   5.755  17.248  0.00  0.00    +0.000 A 
ATOM      3  C   UNL     1      49.874   6.630  16.231  0.00  0.00    +0.000 A 
ATOM      4  C   UNL     1      48.688   6.390  15.522  0.00  0.00    +0.000 A 
ATOM      5  C   UNL     1      47.959   5.233  15.831  0.00  0.00    +0.000 A 
ATOM      6  C   UNL     1      48.373   4.366  16.854  0.00  0.00    +0.000 A 
ENDROOT
BRANCH   1   7
ATOM      7  C   UNL     1      49.993   3.682  18.683  0.00  0.00    +0.000 C 
BRANCH   7  10
ATOM      8  C   UNL     1      51.435   1.971  17.632  0.00  0.00    +0.000 C 
ATOM      9  O   UNL     1      50.480   1.404  17.117  0.00  0.00    +0.000 OA
ATOM     10  N   UNL     1      51.288   3.097  18.419  0.00  0.00    +0.000 N 
ATOM     11  H   UNL     1      52.096   3.507  18.857  0.00  0.00    +0.000 HD
BRANCH   8  15
ATOM     12  C   UNL     1      54.482   0.081  16.916  0.00  0.00    +0.000 A 
ATOM     13  C   UNL     1      55.064   1.268  17.307  0.00  0.00    +0.000 A 
ATOM     14  C   UNL     1      54.020   2.164  17.646  0.00  0.00    +0.000 A 
ATOM     15  C   UNL     1      52.806   1.519  17.457  0.00  0.00    +0.000 A 
ATOM     16  N   UNL     1      53.119   0.243  17.027  0.00  0.00    +0.000 N 
ATOM     17  H   UNL     1      52.440  -0.471  16.790  0.00  0.00    +0.000 HD
BRANCH  12  18
ATOM     18  C   UNL     1      55.105  -1.196  16.472  0.00  0.00    +0.000 C 
BRANCH  18  19
ATOM     19  N   UNL     1      54.269  -1.853  15.476  0.00  0.00    +0.000 NA
ATOM     20  H   UNL     1      53.507  -1.223  15.230  0.00  0.00    +0.000 HD
ATOM     21  H   UNL     1      53.825  -2.660  15.914  0.00  0.00    +0.000 HD
ENDBRANCH  18  19
ENDBRANCH  12  18
ENDBRANCH   8  15
ENDBRANCH   7  10
ENDBRANCH   1   7
BRANCH   4  22
ATOM     22  C   UNL     1      48.199   7.334  14.444  0.00  0.00    +0.000 C 
BRANCH  22  23
ATOM     23  N   UNL     1      46.964   6.886  13.852  0.00  0.00    +0.000 N 
ATOM     24  C   UNL     1      46.801   6.783  12.489  0.00  0.00    +0.000 C 
ATOM     25  O   UNL     1      47.700   7.044  11.697  0.00  0.00    +0.000 OA
ATOM     26  H   UNL     1      46.134   6.968  14.428  0.00  0.00    +0.000 HD
BRANCH  24  27
ATOM     27  C   UNL     1      45.496   6.275  12.037  0.00  0.00    +0.000 A 
ATOM     28  C   UNL     1      44.562   7.140  11.483  0.00  0.00    +0.000 A 
ATOM     29  S   UNL     1      43.129   6.361  10.974  0.00  0.00    +0.000 S 
ATOM     30  C   UNL     1      43.685   4.852  11.529  0.00  0.00    +0.000 A 
ATOM     31  N   UNL     1      42.914   3.735  11.427  0.00  0.00    +0.000 NA
ATOM     32  C   UNL     1      43.452   2.668  11.918  0.00  0.00    +0.000 A 
ATOM     33  N   UNL     1      44.695   2.613  12.492  0.00  0.00    +0.000 N 
ATOM     34  C   UNL     1      45.527   3.703  12.572  0.00  0.00    +0.000 A 
ATOM     35  O   UNL     1      46.662   3.602  13.023  0.00  0.00    +0.000 OA
ATOM     36  C   UNL     1      44.958   4.936  12.064  0.00  0.00    +0.000 A 
ATOM     37  H   UNL     1      45.069   1.742  12.839  0.00  0.00    +0.000 HD
ENDBRANCH  24  27
ENDBRANCH  22  23
ENDBRANCH   4  22
TORSDOF 8
ENDMDL
MODEL 4
REMARK VINA RESULT:    -6.714      4.008      9.009
REMARK INTER + INTRA:         -10.769
REMARK INTER:                  -9.775
REMARK INTRA:                  -0.995
REMARK UNBOUND:                -1.111
REMARK  Name = 
REMARK  8 active torsions:
REMARK  status: ('A' for Active; 'I' for Inactive)
REMARK    1  A    between atoms: N_1  and  C_2
REMARK    2  A    between atoms: C_2  and  C_3
REMARK    3  A    between atoms: C_6  and  C_7
REMARK    4  A    between atoms: N_9  and  C_10
REMARK    5  A    between atoms: C_10  and  C_11
REMARK    6  A    between atoms: C_14  and  C_15
REMARK    7  A    between atoms: C_15  and  N_16
REMARK    8  A    between atoms: C_17  and  C_19
REMARK                            x       y       z     vdW  Elec       q    Type
REMARK                         _______ _______ _______ _____ _____    ______ ____
ROOT
ATOM      1  C   UNL     1      49.671   6.172  16.828  0.00  0.00    +0.000 A 
ATOM      2  C   UNL     1      48.470   5.764  16.229  0.00  0.00    +0.000 A 
ATOM      3  C   UNL     1      48.125   6.189  14.934  0.00  0.00    +0.000 A 
ATOM      4  C   UNL     1      48.977   7.027  14.201  0.00  0.00    +0.000 A 
ATOM      5  C   UNL     1      50.162   7.459  14.813  0.00  0.00    +0.000 A 
ATOM      6  C   UNL     1      50.512   7.026  16.102  0.00  0.00    +0.000 A 
ENDROOT
BRANCH   1   7
ATOM      7  C   UNL     1      50.049   5.702  18.216  0.00  0.00    +0.000 C 
BRANCH   7  10
ATOM      8  C   UNL     1      51.053   3.454  17.989  0.00  0.00    +0.000 C 
ATOM      9  O   UNL     1      49.964   2.927  17.802  0.00  0.00    +0.000 OA
ATOM     10  N   UNL     1      51.188   4.813  18.202  0.00  0.00    +0.000 N 
ATOM     11  H   UNL     1      52.098   5.198  18.393  0.00  0.00    +0.000 HD
BRANCH   8  15
ATOM     12  C   UNL     1      53.635   0.868  18.089  0.00  0.00    +0.000 A 
ATOM     13  C   UNL     1      54.451   1.965  17.916  0.00  0.00    +0.000 A 
ATOM     14  C   UNL     1      53.619   3.111  17.860  0.00  0.00    +0.000 A 
ATOM     15  C   UNL     1      52.299   2.705  17.995  0.00  0.00    +0.000 A 
ATOM     16  N   UNL     1      52.341   1.331  18.150  0.00  0.00    +0.000 N 
ATOM     17  H   UNL     1      51.527   0.736  18.260  0.00  0.00    +0.000 HD
BRANCH  12  18
ATOM     18  C   UNL     1      53.978  -0.575  18.225  0.00  0.00    +0.000 C 
BRANCH  18  19
ATOM     19  N   UNL     1      52.923  -1.286  18.934  0.00  0.00    +0.000 NA
ATOM     20  H   UNL     1      53.338  -2.085  19.411  0.00  0.00    +0.000 HD
ATOM     21  H   UNL     1      52.284  -1.682  18.244  0.00  0.00    +0.000 HD
ENDBRANCH  18  19
ENDBRANCH  12  18
ENDBRANCH   8  15
ENDBRANCH   7  10
ENDBRANCH   1   7
BRANCH   4  22
ATOM     22  C   UNL     1      48.641   7.472  12.793  0.00  0.00    +0.000 C 
BRANCH  22  23
ATOM     23  N   UNL     1      47.809   6.516  12.107  0.00  0.00    +0.000 N 
ATOM     24  C   UNL     1      46.539   6.826  11.679  0.00  0.00    +0.000 C 
ATOM     25  O   UNL     1      46.045   7.937  11.834  0.00  0.00    +0.000 OA
ATOM     26  H   UNL     1      48.044   5.539  12.241  0.00  0.00    +0.000 HD
BRANCH  24  27
ATOM     27  C   UNL     1      45.827   5.757  10.961  0.00  0.00    +0.000 A 
ATOM     28  C   UNL     1      45.916   5.661   9.579  0.00  0.00    +0.000 A 
ATOM     29  S   UNL     1      45.062   4.330   8.932  0.00  0.00    +0.000 S 
ATOM     30  C   UNL     1      44.497   3.872  10.469  0.00  0.00    +0.000 A 
ATOM     31  N   UNL     1      43.669   2.804  10.627  0.00  0.00    +0.000 NA
ATOM     32  C   UNL     1      43.295   2.592  11.845  0.00  0.00    +0.000 A 
ATOM     33  N   UNL     1      43.682   3.346  12.922  0.00  0.00    +0.000 N 
ATOM     34  C   UNL     1      44.554   4.402  12.818  0.00  0.00    +0.000 A 
ATOM     35  O   UNL     1      44.938   5.007  13.812  0.00  0.00    +0.000 OA
ATOM     36  C   UNL     1      44.980   4.702  11.465  0.00  0.00    +0.000 A 
ATOM     37  H   UNL     1      43.372   3.117  13.855  0.00  0.00    +0.000 HD
ENDBRANCH  24  27
ENDBRANCH  22  23
ENDBRANCH   4  22
TORSDOF 8
ENDMDL
MODEL 5
REMARK VINA RESULT:    -6.540      5.597      7.712
REMARK INTER + INTRA:         -10.518
REMARK INTER:                  -9.594
REMARK INTRA:                  -0.924
REMARK UNBOUND:                -1.111
REMARK  Name = 
REMARK  8 active torsions:
REMARK  status: ('A' for Active; 'I' for Inactive)
REMARK    1  A    between atoms: N_1  and  C_2
REMARK    2  A    between atoms: C_2  and  C_3
REMARK    3  A    between atoms: C_6  and  C_7
REMARK    4  A    between atoms: N_9  and  C_10
REMARK    5  A    between atoms: C_10  and  C_11
REMARK    6  A    between atoms: C_14  and  C_15
REMARK    7  A    between atoms: C_15  and  N_16
REMARK    8  A    between atoms: C_17  and  C_19
REMARK                            x       y       z     vdW  Elec       q    Type
REMARK                         _______ _______ _______ _____ _____    ______ ____
ROOT
ATOM      1  C   UNL     1      48.246   8.208  12.145  0.00  0.00    +0.000 A 
ATOM      2  C   UNL     1      48.372   9.596  11.992  0.00  0.00    +0.000 A 
ATOM      3  C   UNL     1      49.569  10.170  11.532  0.00  0.00    +0.000 A 
ATOM      4  C   UNL     1      50.672   9.368  11.205  0.00  0.00    +0.000 A 
ATOM      5  C   UNL     1      50.556   7.983  11.389  0.00  0.00    +0.000 A 
ATOM      6  C   UNL     1      49.356   7.409  11.837  0.00  0.00    +0.000 A 
ENDROOT
BRANCH   1   7
ATOM      7  C   UNL     1      46.952   7.589  12.626  0.00  0.00    +0.000 C 
BRANCH   7  10
ATOM      8  C   UNL     1      45.281   6.379  11.261  0.00  0.00    +0.000 C 
ATOM      9  O   UNL     1      44.434   7.246  11.431  0.00  0.00    +0.000 OA
ATOM     10  N   UNL     1      46.546   6.465  11.812  0.00  0.00    +0.000 N 
ATOM     11  H   UNL     1      47.198   5.709  11.681  0.00  0.00    +0.000 HD
BRANCH   8  15
ATOM     12  C   UNL     1      45.185   3.825   8.647  0.00  0.00    +0.000 A 
ATOM     13  C   UNL     1      44.441   3.167   9.604  0.00  0.00    +0.000 A 
ATOM     14  C   UNL     1      44.349   4.019  10.733  0.00  0.00    +0.000 A 
ATOM     15  C   UNL     1      45.041   5.190  10.460  0.00  0.00    +0.000 A 
ATOM     16  N   UNL     1      45.527   5.050   9.173  0.00  0.00    +0.000 N 
ATOM     17  H   UNL     1      46.090   5.740   8.688  0.00  0.00    +0.000 HD
BRANCH  12  18
ATOM     18  C   UNL     1      45.578   3.402   7.275  0.00  0.00    +0.000 C 
BRANCH  18  19
ATOM     19  N   UNL     1      46.742   4.151   6.823  0.00  0.00    +0.000 NA
ATOM     20  H   UNL     1      47.051   3.761   5.935  0.00  0.00    +0.000 HD
ATOM     21  H   UNL     1      47.506   3.980   7.477  0.00  0.00    +0.000 HD
ENDBRANCH  18  19
ENDBRANCH  12  18
ENDBRANCH   8  15
ENDBRANCH   7  10
ENDBRANCH   1   7
BRANCH   4  22
ATOM     22  C   UNL     1      51.962   9.961  10.679  0.00  0.00    +0.000 C 
BRANCH  22  23
ATOM     23  N   UNL     1      52.367   9.358   9.433  0.00  0.00    +0.000 N 
ATOM     24  C   UNL     1      53.587   8.741   9.282  0.00  0.00    +0.000 C 
ATOM     25  O   UNL     1      54.395   8.646  10.199  0.00  0.00    +0.000 OA
ATOM     26  H   UNL     1      51.888   9.684   8.601  0.00  0.00    +0.000 HD
BRANCH  24  27
ATOM     27  C   UNL     1      53.842   8.141   7.963  0.00  0.00    +0.000 A 
ATOM     28  C   UNL     1      54.085   8.949   6.860  0.00  0.00    +0.000 A 
ATOM     29  S   UNL     1      54.405   8.072   5.430  0.00  0.00    +0.000 S 
ATOM     30  C   UNL     1      54.173   6.584   6.222  0.00  0.00    +0.000 A 
ATOM     31  N   UNL     1      54.271   5.405   5.550  0.00  0.00    +0.000 NA
ATOM     32  C   UNL     1      54.039   4.358   6.272  0.00  0.00    +0.000 A 
ATOM     33  N   UNL     1      53.729   4.383   7.606  0.00  0.00    +0.000 N 
ATOM     34  C   UNL     1      53.667   5.545   8.335  0.00  0.00    +0.000 A 
ATOM     35  O   UNL     1      53.462   5.526   9.543  0.00  0.00    +0.000 OA
ATOM     36  C   UNL     1      53.888   6.754   7.565  0.00  0.00    +0.000 A 
ATOM     37  H   UNL     1      53.580   3.528   8.121  0.00  0.00    +0.000 HD
ENDBRANCH  24  27
ENDBRANCH  22  23
ENDBRANCH   4  22
TORSDOF 8
ENDMDL
MODEL 6
REMARK VINA RESULT:    -6.477      4.658      7.647
REMARK INTER + INTRA:         -10.429
REMARK INTER:                  -9.482
REMARK INTRA:                  -0.947
REMARK UNBOUND:                -1.111
REMARK  Name = 
REMARK  8 active torsions:
REMARK  status: ('A' for Active; 'I' for Inactive)
REMARK    1  A    between atoms: N_1  and  C_2
REMARK    2  A    between atoms: C_2  and  C_3
REMARK    3  A    between atoms: C_6  and  C_7
REMARK    4  A    between atoms: N_9  and  C_10
REMARK    5  A    between atoms: C_10  and  C_11
REMARK    6  A    between atoms: C_14  and  C_15
REMARK    7  A    between atoms: C_15  and  N_16
REMARK    8  A    between atoms: C_17  and  C_19
REMARK                            x       y       z     vdW  Elec       q    Type
REMARK                         _______ _______ _______ _____ _____    ______ ____
ROOT
ATOM      1  C   UNL     1      50.578   8.588  11.971  0.00  0.00    +0.000 A 
ATOM      2  C   UNL     1      50.215   7.633  12.931  0.00  0.00    +0.000 A 
ATOM      3  C   UNL     1      48.871   7.448  13.299  0.00  0.00    +0.000 A 
ATOM      4  C   UNL     1      47.853   8.211  12.708  0.00  0.00    +0.000 A 
ATOM      5  C   UNL     1      48.221   9.188  11.772  0.00  0.00    +0.000 A 
ATOM      6  C   UNL     1      49.562   9.364  11.396  0.00  0.00    +0.000 A 
ENDROOT
BRANCH   1   7
ATOM      7  C   UNL     1      52.024   8.776  11.564  0.00  0.00    +0.000 C 
BRANCH   7  10
ATOM      8  C   UNL     1      53.123   7.109  10.105  0.00  0.00    +0.000 C 
ATOM      9  O   UNL     1      53.656   6.549  11.055  0.00  0.00    +0.000 OA
ATOM     10  N   UNL     1      52.305   8.211  10.263  0.00  0.00    +0.000 N 
ATOM     11  H   UNL     1      51.920   8.666   9.451  0.00  0.00    +0.000 HD
BRANCH   8  15
ATOM     12  C   UNL     1      53.671   5.186   7.045  0.00  0.00    +0.000 A 
ATOM     13  C   UNL     1      53.436   6.419   6.473  0.00  0.00    +0.000 A 
ATOM     14  C   UNL     1      53.201   7.339   7.524  0.00  0.00    +0.000 A 
ATOM     15  C   UNL     1      53.291   6.662   8.732  0.00  0.00    +0.000 A 
ATOM     16  N   UNL     1      53.595   5.352   8.409  0.00  0.00    +0.000 N 
ATOM     17  H   UNL     1      53.714   4.602   9.081  0.00  0.00    +0.000 HD
BRANCH  12  18
ATOM     18  C   UNL     1      53.983   3.875   6.411  0.00  0.00    +0.000 C 
BRANCH  18  19
ATOM     19  N   UNL     1      53.068   2.847   6.888  0.00  0.00    +0.000 NA
ATOM     20  H   UNL     1      52.326   2.733   6.200  0.00  0.00    +0.000 HD
ATOM     21  H   UNL     1      52.609   3.193   7.730  0.00  0.00    +0.000 HD
ENDBRANCH  18  19
ENDBRANCH  12  18
ENDBRANCH   8  15
ENDBRANCH   7  10
ENDBRANCH   1   7
BRANCH   4  22
ATOM     22  C   UNL     1      46.396   8.009  13.066  0.00  0.00    +0.000 C 
BRANCH  22  23
ATOM     23  N   UNL     1      45.919   6.705  12.680  0.00  0.00    +0.000 N 
ATOM     24  C   UNL     1      44.927   6.536  11.741  0.00  0.00    +0.000 C 
ATOM     25  O   UNL     1      44.404   7.480  11.160  0.00  0.00    +0.000 OA
ATOM     26  H   UNL     1      46.087   5.953  13.340  0.00  0.00    +0.000 HD
BRANCH  24  27
ATOM     27  C   UNL     1      44.574   5.143  11.426  0.00  0.00    +0.000 A 
ATOM     28  C   UNL     1      43.827   4.390  12.322  0.00  0.00    +0.000 A 
ATOM     29  S   UNL     1      43.476   2.815  11.762  0.00  0.00    +0.000 S 
ATOM     30  C   UNL     1      44.358   3.066  10.329  0.00  0.00    +0.000 A 
ATOM     31  N   UNL     1      44.490   2.081   9.400  0.00  0.00    +0.000 NA
ATOM     32  C   UNL     1      45.213   2.403   8.378  0.00  0.00    +0.000 A 
ATOM     33  N   UNL     1      45.807   3.624   8.196  0.00  0.00    +0.000 N 
ATOM     34  C   UNL     1      45.662   4.663   9.083  0.00  0.00    +0.000 A 
ATOM     35  O   UNL     1      46.144   5.765   8.852  0.00  0.00    +0.000 OA
ATOM     36  C   UNL     1      44.885   4.344  10.265  0.00  0.00    +0.000 A 
ATOM     37  H   UNL     1      46.343   3.822   7.364  0.00  0.00    +0.000 HD
ENDBRANCH  24  27
ENDBRANCH  22  23
ENDBRANCH   4  22
TORSDOF 8
ENDMDL
MODEL 7
REMARK VINA RESULT:    -6.431      3.489      9.183
REMARK INTER + INTRA:         -10.362
REMARK INTER:                  -9.354
REMARK INTRA:                  -1.008
REMARK UNBOUND:                -1.111
REMARK  Name = 
REMARK  8 active torsions:
REMARK  status: ('A' for Active; 'I' for Inactive)
REMARK    1  A    between atoms: N_1  and  C_2
REMARK    2  A    between atoms: C_2  and  C_3
REMARK    3  A    between atoms: C_6  and  C_7
REMARK    4  A    between atoms: N_9  and  C_10
REMARK    5  A    between atoms: C_10  and  C_11
REMARK    6  A    between atoms: C_14  and  C_15
REMARK    7  A    between atoms: C_15  and  N_16
REMARK    8  A    between atoms: C_17  and  C_19
REMARK                            x       y       z     vdW  Elec       q    Type
REMARK                         _______ _______ _______ _____ _____    ______ ____
ROOT
ATOM      1  C   UNL     1      49.831   7.638  15.845  0.00  0.00    +0.000 A 
ATOM      2  C   UNL     1      48.965   6.588  15.508  0.00  0.00    +0.000 A 
ATOM      3  C   UNL     1      48.206   6.624  14.326  0.00  0.00    +0.000 A 
ATOM      4  C   UNL     1      48.299   7.712  13.445  0.00  0.00    +0.000 A 
ATOM      5  C   UNL     1      49.140   8.776  13.799  0.00  0.00    +0.000 A 
ATOM      6  C   UNL     1      49.908   8.733  14.973  0.00  0.00    +0.000 A 
ENDROOT
BRANCH   1   7
ATOM      7  C   UNL     1      50.661   7.591  17.110  0.00  0.00    +0.000 C 
BRANCH   7  10
ATOM      8  C   UNL     1      51.450   5.514  18.195  0.00  0.00    +0.000 C 
ATOM      9  O   UNL     1      50.664   5.638  19.126  0.00  0.00    +0.000 OA
ATOM     10  N   UNL     1      51.517   6.428  17.161  0.00  0.00    +0.000 N 
ATOM     11  H   UNL     1      52.207   6.310  16.436  0.00  0.00    +0.000 HD
BRANCH   8  15
ATOM     12  C   UNL     1      53.015   2.218  17.980  0.00  0.00    +0.000 A 
ATOM     13  C   UNL     1      54.150   2.992  17.856  0.00  0.00    +0.000 A 
ATOM     14  C   UNL     1      53.750   4.349  17.925  0.00  0.00    +0.000 A 
ATOM     15  C   UNL     1      52.372   4.396  18.087  0.00  0.00    +0.000 A 
ATOM     16  N   UNL     1      51.953   3.079  18.134  0.00  0.00    +0.000 N 
ATOM     17  H   UNL     1      50.988   2.781  18.233  0.00  0.00    +0.000 HD
BRANCH  12  18
ATOM     18  C   UNL     1      52.857   0.737  17.988  0.00  0.00    +0.000 C 
BRANCH  18  19
ATOM     19  N   UNL     1      51.449   0.375  18.088  0.00  0.00    +0.000 NA
ATOM     20  H   UNL     1      50.911   1.222  18.263  0.00  0.00    +0.000 HD
ATOM     21  H   UNL     1      51.326  -0.204  18.919  0.00  0.00    +0.000 HD
ENDBRANCH  18  19
ENDBRANCH  12  18
ENDBRANCH   8  15
ENDBRANCH   7  10
ENDBRANCH   1   7
BRANCH   4  22
ATOM     22  C   UNL     1      47.513   7.760  12.151  0.00  0.00    +0.000 C 
BRANCH  22  23
ATOM     23  N   UNL     1      46.800   6.532  11.905  0.00  0.00    +0.000 N 
ATOM     24  C   UNL     1      45.425   6.480  11.869  0.00  0.00    +0.000 C 
ATOM     25  O   UNL     1      44.724   7.474  12.021  0.00  0.00    +0.000 OA
ATOM     26  H   UNL     1      47.307   5.673  12.089  0.00  0.00    +0.000 HD
BRANCH  24  27
ATOM     27  C   UNL     1      44.842   5.162  11.570  0.00  0.00    +0.000 A 
ATOM     28  C   UNL     1      44.090   4.495  12.528  0.00  0.00    +0.000 A 
ATOM     29  S   UNL     1      43.458   3.005  11.982  0.00  0.00    +0.000 S 
ATOM     30  C   UNL     1      44.215   3.173  10.468  0.00  0.00    +0.000 A 
ATOM     31  N   UNL     1      44.106   2.209   9.514  0.00  0.00    +0.000 NA
ATOM     32  C   UNL     1      44.758   2.457   8.427  0.00  0.00    +0.000 A 
ATOM     33  N   UNL     1      45.502   3.586   8.203  0.00  0.00    +0.000 N 
ATOM     34  C   UNL     1      45.601   4.606   9.117  0.00  0.00    +0.000 A 
ATOM     35  O   UNL     1      46.212   5.635   8.854  0.00  0.00    +0.000 OA
ATOM     36  C   UNL     1      44.912   4.364  10.369  0.00  0.00    +0.000 A 
ATOM     37  H   UNL     1      45.972   3.732   7.322  0.00  0.00    +0.000 HD
ENDBRANCH  24  27
ENDBRANCH  22  23
ENDBRANCH   4  22
TORSDOF 8
ENDMDL
MODEL 8
REMARK VINA RESULT:    -6.372      5.347      7.971
REMARK INTER + INTRA:         -10.276
REMARK INTER:                  -9.382
REMARK INTRA:                  -0.895
REMARK UNBOUND:                -1.111
REMARK  Name = 
REMARK  8 active torsions:
REMARK  status: ('A' for Active; 'I' for Inactive)
REMARK    1  A    between atoms: N_1  and  C_2
REMARK    2  A    between atoms: C_2  and  C_3
REMARK    3  A    between atoms: C_6  and  C_7
REMARK    4  A    between atoms: N_9  and  C_10
REMARK    5  A    between atoms: C_10  and  C_11
REMARK    6  A    between atoms: C_14  and  C_15
REMARK    7  A    between atoms: C_15  and  N_16
REMARK    8  A    between atoms: C_17  and  C_19
REMARK                            x       y       z     vdW  Elec       q    Type
REMARK                         _______ _______ _______ _____ _____    ______ ____
ROOT
ATOM      1  C   UNL     1      49.086   7.103  14.005  0.00  0.00    +0.000 A 
ATOM      2  C   UNL     1      50.236   7.655  14.588  0.00  0.00    +0.000 A 
ATOM      3  C   UNL     1      51.127   8.439  13.836  0.00  0.00    +0.000 A 
ATOM      4  C   UNL     1      50.886   8.699  12.479  0.00  0.00    +0.000 A 
ATOM      5  C   UNL     1      49.753   8.121  11.889  0.00  0.00    +0.000 A 
ATOM      6  C   UNL     1      48.857   7.348  12.643  0.00  0.00    +0.000 A 
ENDROOT
BRANCH   1   7
ATOM      7  C   UNL     1      48.118   6.272  14.819  0.00  0.00    +0.000 C 
BRANCH   7  10
ATOM      8  C   UNL     1      46.861   4.501  13.636  0.00  0.00    +0.000 C 
ATOM      9  O   UNL     1      47.691   3.647  13.920  0.00  0.00    +0.000 OA
ATOM     10  N   UNL     1      46.992   5.818  14.036  0.00  0.00    +0.000 N 
ATOM     11  H   UNL     1      46.307   6.496  13.746  0.00  0.00    +0.000 HD
BRANCH   8  15
ATOM     12  C   UNL     1      43.693   4.645  11.818  0.00  0.00    +0.000 A 
ATOM     13  C   UNL     1      43.983   3.312  11.618  0.00  0.00    +0.000 A 
ATOM     14  C   UNL     1      45.210   3.040  12.272  0.00  0.00    +0.000 A 
ATOM     15  C   UNL     1      45.663   4.210  12.865  0.00  0.00    +0.000 A 
ATOM     16  N   UNL     1      44.708   5.170  12.585  0.00  0.00    +0.000 N 
ATOM     17  H   UNL     1      44.760   6.140  12.874  0.00  0.00    +0.000 HD
BRANCH  12  18
ATOM     18  C   UNL     1      42.527   5.454  11.366  0.00  0.00    +0.000 C 
BRANCH  18  19
ATOM     19  N   UNL     1      42.898   6.857  11.243  0.00  0.00    +0.000 NA
ATOM     20  H   UNL     1      43.280   7.008  10.311  0.00  0.00    +0.000 HD
ATOM     21  H   UNL     1      43.667   7.043  11.886  0.00  0.00    +0.000 HD
ENDBRANCH  18  19
ENDBRANCH  12  18
ENDBRANCH   8  15
ENDBRANCH   7  10
ENDBRANCH   1   7
BRANCH   4  22
ATOM     22  C   UNL     1      51.815   9.566  11.656  0.00  0.00    +0.000 C 
BRANCH  22  23
ATOM     23  N   UNL     1      52.006   9.044  10.326  0.00  0.00    +0.000 N 
ATOM     24  C   UNL     1      53.256   8.765   9.822  0.00  0.00    +0.000 C 
ATOM     25  O   UNL     1      54.280   8.923  10.478  0.00  0.00    +0.000 OA
ATOM     26  H   UNL     1      51.249   9.199   9.669  0.00  0.00    +0.000 HD
BRANCH  24  27
ATOM     27  C   UNL     1      53.288   8.203   8.463  0.00  0.00    +0.000 A 
ATOM     28  C   UNL     1      53.092   9.023   7.360  0.00  0.00    +0.000 A 
ATOM     29  S   UNL     1      53.212   8.200   5.868  0.00  0.00    +0.000 S 
ATOM     30  C   UNL     1      53.473   6.710   6.646  0.00  0.00    +0.000 A 
ATOM     31  N   UNL     1      53.627   5.560   5.935  0.00  0.00    +0.000 NA
ATOM     32  C   UNL     1      53.786   4.502   6.658  0.00  0.00    +0.000 A 
ATOM     33  N   UNL     1      53.815   4.489   8.028  0.00  0.00    +0.000 N 
ATOM     34  C   UNL     1      53.713   5.630   8.785  0.00  0.00    +0.000 A 
ATOM     35  O   UNL     1      53.819   5.592  10.006  0.00  0.00    +0.000 OA
ATOM     36  C   UNL     1      53.501   6.845   8.023  0.00  0.00    +0.000 A 
ATOM     37  H   UNL     1      53.964   3.630   8.537  0.00  0.00    +0.000 HD
ENDBRANCH  24  27
ENDBRANCH  22  23
ENDBRANCH   4  22
TORSDOF 8
ENDMDL
MODEL 9
REMARK VINA RESULT:    -6.061      5.662      7.770
REMARK INTER + INTRA:          -9.829
REMARK INTER:                  -8.978
REMARK INTRA:                  -0.851
REMARK UNBOUND:                -1.111
REMARK  Name = 
REMARK  8 active torsions:
REMARK  status: ('A' for Active; 'I' for Inactive)
REMARK    1  A    between atoms: N_1  and  C_2
REMARK    2  A    between atoms: C_2  and  C_3
REMARK    3  A    between atoms: C_6  and  C_7
REMARK    4  A    between atoms: N_9  and  C_10
REMARK    5  A    between atoms: C_10  and  C_11
REMARK    6  A    between atoms: C_14  and  C_15
REMARK    7  A    between atoms: C_15  and  N_16
REMARK    8  A    between atoms: C_17  and  C_19
REMARK                            x       y       z     vdW  Elec       q    Type
REMARK                         _______ _______ _______ _____ _____    ______ ____
ROOT
ATOM      1  C   UNL     1      51.840   9.178  10.309  0.00  0.00    +0.000 A 
ATOM      2  C   UNL     1      51.586   7.806  10.456  0.00  0.00    +0.000 A 
ATOM      3  C   UNL     1      50.513   7.347  11.239  0.00  0.00    +0.000 A 
ATOM      4  C   UNL     1      49.659   8.250  11.890  0.00  0.00    +0.000 A 
ATOM      5  C   UNL     1      49.933   9.619  11.767  0.00  0.00    +0.000 A 
ATOM      6  C   UNL     1      50.998  10.078  10.976  0.00  0.00    +0.000 A 
ENDROOT
BRANCH   1   7
ATOM      7  C   UNL     1      52.986   9.672   9.453  0.00  0.00    +0.000 C 
BRANCH   7  10
ATOM      8  C   UNL     1      53.296   8.600   7.246  0.00  0.00    +0.000 C 
ATOM      9  O   UNL     1      52.619   9.448   6.679  0.00  0.00    +0.000 OA
ATOM     10  N   UNL     1      53.528   8.632   8.608  0.00  0.00    +0.000 N 
ATOM     11  H   UNL     1      54.057   7.892   9.040  0.00  0.00    +0.000 HD
BRANCH   8  15
ATOM     12  C   UNL     1      54.334   5.325   5.997  0.00  0.00    +0.000 A 
ATOM     13  C   UNL     1      55.122   6.114   5.185  0.00  0.00    +0.000 A 
ATOM     14  C   UNL     1      54.869   7.465   5.526  0.00  0.00    +0.000 A 
ATOM     15  C   UNL     1      53.924   7.494   6.542  0.00  0.00    +0.000 A 
ATOM     16  N   UNL     1      53.628   6.172   6.821  0.00  0.00    +0.000 N 
ATOM     17  H   UNL     1      52.957   5.863   7.515  0.00  0.00    +0.000 HD
BRANCH  12  18
ATOM     18  C   UNL     1      54.212   3.844   6.074  0.00  0.00    +0.000 C 
BRANCH  18  19
ATOM     19  N   UNL     1      53.047   3.468   6.863  0.00  0.00    +0.000 NA
ATOM     20  H   UNL     1      52.346   3.077   6.236  0.00  0.00    +0.000 HD
ATOM     21  H   UNL     1      52.630   4.318   7.243  0.00  0.00    +0.000 HD
ENDBRANCH  18  19
ENDBRANCH  12  18
ENDBRANCH   8  15
ENDBRANCH   7  10
ENDBRANCH   1   7
BRANCH   4  22
ATOM     22  C   UNL     1      48.479   7.779  12.713  0.00  0.00    +0.000 C 
BRANCH  22  23
ATOM     23  N   UNL     1      47.718   6.760  12.035  0.00  0.00    +0.000 N 
ATOM     24  C   UNL     1      46.398   6.942  11.690  0.00  0.00    +0.000 C 
ATOM     25  O   UNL     1      45.795   7.985  11.917  0.00  0.00    +0.000 OA
ATOM     26  H   UNL     1      48.065   5.811  12.117  0.00  0.00    +0.000 HD
BRANCH  24  27
ATOM     27  C   UNL     1      45.765   5.826  10.970  0.00  0.00    +0.000 A 
ATOM     28  C   UNL     1      45.908   5.708   9.594  0.00  0.00    +0.000 A 
ATOM     29  S   UNL     1      45.145   4.325   8.945  0.00  0.00    +0.000 S 
ATOM     30  C   UNL     1      44.549   3.867  10.471  0.00  0.00    +0.000 A 
ATOM     31  N   UNL     1      43.770   2.761  10.621  0.00  0.00    +0.000 NA
ATOM     32  C   UNL     1      43.365   2.554  11.830  0.00  0.00    +0.000 A 
ATOM     33  N   UNL     1      43.675   3.346  12.905  0.00  0.00    +0.000 N 
ATOM     34  C   UNL     1      44.497   4.442  12.809  0.00  0.00    +0.000 A 
ATOM     35  O   UNL     1      44.815   5.084  13.803  0.00  0.00    +0.000 OA
ATOM     36  C   UNL     1      44.955   4.739  11.466  0.00  0.00    +0.000 A 
ATOM     37  H   UNL     1      43.344   3.118  13.831  0.00  0.00    +0.000 HD
ENDBRANCH  24  27
ENDBRANCH  22  23
ENDBRANCH   4  22
TORSDOF 8
ENDMDL
