MODEL 1
REMARK VINA RESULT:    -8.704      0.000      0.000
REMARK INTER + INTRA:         -12.447
REMARK INTER:                 -11.503
REMARK INTRA:                  -0.944
REMARK UNBOUND:                -0.944
REMARK  Name = 
REMARK  6 active torsions:
REMARK  status: ('A' for Active; 'I' for Inactive)
REMARK    1  A    between atoms: C_2  and  C_19
REMARK    2  A    between atoms: N_3  and  C_4
REMARK    3  A    between atoms: C_4  and  C_5
REMARK    4  A    between atoms: C_8  and  C_9
REMARK    5  A    between atoms: C_9  and  O_10
REMARK    6  A    between atoms: C_9  and  C_11
REMARK                            x       y       z     vdW  Elec       q    Type
REMARK                         _______ _______ _______ _____ _____    ______ ____
ROOT
ATOM      1  C   UNL     1      46.810   7.706  13.243  0.00  0.00    +0.000 C 
ENDROOT
BRANCH   1   2
ATOM      2  C   UNL     1      46.244   6.697  12.280  0.00  0.00    +0.000 A 
ATOM      3  C   UNL     1      45.323   5.740  12.721  0.00  0.00    +0.000 A 
ATOM      4  C   UNL     1      44.748   4.837  11.822  0.00  0.00    +0.000 A 
ATOM      5  C   UNL     1      45.096   4.859  10.462  0.00  0.00    +0.000 A 
ATOM      6  C   UNL     1      46.065   5.782  10.036  0.00  0.00    +0.000 A 
ATOM      7  C   UNL     1      46.632   6.691  10.934  0.00  0.00    +0.000 A 
BRANCH   5   8
ATOM      8  C   UNL     1      44.419   3.907   9.486  0.00  0.00    +0.000 C 
BRANCH   8   9
ATOM      9  C   UNL     1      45.387   3.154   8.588  0.00  0.00    +0.000 A 
ATOM     10  C   UNL     1      45.568   1.771   8.760  0.00  0.00    +0.000 A 
ATOM     11  C   UNL     1      46.474   1.066   7.964  0.00  0.00    +0.000 A 
ATOM     12  C   UNL     1      47.203   1.729   6.981  0.00  0.00    +0.000 A 
ATOM     13  C   UNL     1      47.018   3.094   6.780  0.00  0.00    +0.000 A 
ATOM     14  C   UNL     1      46.113   3.800   7.574  0.00  0.00    +0.000 A 
ENDBRANCH   8   9
BRANCH   8  15
ATOM     15  O   UNL     1      43.460   4.622   8.700  0.00  0.00    +0.000 OA
ATOM     16  H   UNL     1      43.193   5.404   9.210  0.00  0.00    +0.000 HD
ENDBRANCH   8  15
ENDBRANCH   5   8
ENDBRANCH   1   2
BRANCH   1  19
ATOM     17  O   UNL     1      49.468   6.931  13.728  0.00  0.00    +0.000 OA
ATOM     18  C   UNL     1      48.630   6.760  14.610  0.00  0.00    +0.000 C 
ATOM     19  N   UNL     1      47.308   7.083  14.440  0.00  0.00    +0.000 N 
ATOM     20  H   UNL     1      46.690   7.088  15.244  0.00  0.00    +0.000 HD
BRANCH  18  21
ATOM     21  C   UNL     1      48.988   6.139  15.889  0.00  0.00    +0.000 A 
ATOM     22  C   UNL     1      49.979   6.712  16.679  0.00  0.00    +0.000 A 
ATOM     23  S   UNL     1      50.267   5.868  18.131  0.00  0.00    +0.000 S 
ATOM     24  C   UNL     1      49.052   4.735  17.779  0.00  0.00    +0.000 A 
ATOM     25  N   UNL     1      48.748   3.740  18.657  0.00  0.00    +0.000 NA
ATOM     26  C   UNL     1      47.778   2.976  18.280  0.00  0.00    +0.000 A 
ATOM     27  N   UNL     1      47.091   3.105  17.096  0.00  0.00    +0.000 N 
ATOM     28  C   UNL     1      47.425   4.036  16.144  0.00  0.00    +0.000 A 
ATOM     29  O   UNL     1      46.902   4.023  15.035  0.00  0.00    +0.000 OA
ATOM     30  C   UNL     1      48.459   4.966  16.545  0.00  0.00    +0.000 A 
ATOM     31  H   UNL     1      46.372   2.445  16.845  0.00  0.00    +0.000 HD
ENDBRANCH  18  21
ENDBRANCH   1  19
TORSDOF 6
ENDMDL
MODEL 2
REMARK VINA RESULT:    -8.565      1.799      2.372
REMARK INTER + INTRA:         -12.264
REMARK INTER:                 -11.349
REMARK INTRA:                  -0.915
REMARK UNBOUND:                -0.944
REMARK  Name = 
REMARK  6 active torsions:
REMARK  status: ('A' for Active; 'I' for Inactive)
REMARK    1  A    between atoms: C_2  and  C_19
REMARK    2  A    between atoms: N_3  and  C_4
REMARK    3  A    between atoms: C_4  and  C_5
REMARK    4  A    between atoms: C_8  and  C_9
REMARK    5  A    between atoms: C_9  and  O_10
REMARK    6  A    between atoms: C_9  and  C_11
REMARK                            x       y       z     vdW  Elec       q    Type
REMARK                         _______ _______ _______ _____ _____    ______ ____
ROOT
ATOM      1  C   UNL     1      47.495   6.794  13.656  0.00  0.00    +0.000 C 
ENDROOT
BRANCH   1   2
ATOM      2  C   UNL     1      46.662   6.044  12.652  0.00  0.00    +0.000 A 
ATOM      3  C   UNL     1      46.431   6.586  11.382  0.00  0.00    +0.000 A 
ATOM      4  C   UNL     1      45.708   5.870  10.423  0.00  0.00    +0.000 A 
ATOM      5  C   UNL     1      45.183   4.603  10.719  0.00  0.00    +0.000 A 
ATOM      6  C   UNL     1      45.367   4.089  12.013  0.00  0.00    +0.000 A 
ATOM      7  C   UNL     1      46.098   4.801  12.968  0.00  0.00    +0.000 A 
BRANCH   5   8
ATOM      8  C   UNL     1      44.447   3.813   9.645  0.00  0.00    +0.000 C 
BRANCH   8   9
ATOM      9  C   UNL     1      45.367   3.099   8.667  0.00  0.00    +0.000 A 
ATOM     10  C   UNL     1      45.577   1.716   8.787  0.00  0.00    +0.000 A 
ATOM     11  C   UNL     1      46.440   1.046   7.916  0.00  0.00    +0.000 A 
ATOM     12  C   UNL     1      47.097   1.747   6.909  0.00  0.00    +0.000 A 
ATOM     13  C   UNL     1      46.882   3.115   6.760  0.00  0.00    +0.000 A 
ATOM     14  C   UNL     1      46.020   3.785   7.629  0.00  0.00    +0.000 A 
ENDBRANCH   8   9
BRANCH   8  15
ATOM     15  O   UNL     1      43.543   4.674   8.945  0.00  0.00    +0.000 OA
ATOM     16  H   UNL     1      42.951   4.109   8.423  0.00  0.00    +0.000 HD
ENDBRANCH   8  15
ENDBRANCH   5   8
ENDBRANCH   1   2
BRANCH   1  19
ATOM     17  O   UNL     1      49.724   6.645  15.362  0.00  0.00    +0.000 OA
ATOM     18  C   UNL     1      48.674   6.110  15.710  0.00  0.00    +0.000 C 
ATOM     19  N   UNL     1      47.552   6.111  14.921  0.00  0.00    +0.000 N 
ATOM     20  H   UNL     1      46.667   5.814  15.315  0.00  0.00    +0.000 HD
BRANCH  18  21
ATOM     21  C   UNL     1      48.576   5.379  16.977  0.00  0.00    +0.000 A 
ATOM     22  C   UNL     1      48.668   3.992  16.981  0.00  0.00    +0.000 A 
ATOM     23  S   UNL     1      48.538   3.303  18.534  0.00  0.00    +0.000 S 
ATOM     24  C   UNL     1      48.398   4.832  19.261  0.00  0.00    +0.000 A 
ATOM     25  N   UNL     1      48.298   4.957  20.614  0.00  0.00    +0.000 NA
ATOM     26  C   UNL     1      48.240   6.177  21.031  0.00  0.00    +0.000 A 
ATOM     27  N   UNL     1      48.258   7.287  20.220  0.00  0.00    +0.000 N 
ATOM     28  C   UNL     1      48.267   7.204  18.851  0.00  0.00    +0.000 A 
ATOM     29  O   UNL     1      48.121   8.202  18.154  0.00  0.00    +0.000 OA
ATOM     30  C   UNL     1      48.405   5.860  18.328  0.00  0.00    +0.000 A 
ATOM     31  H   UNL     1      48.165   8.210  20.613  0.00  0.00    +0.000 HD
ENDBRANCH  18  21
ENDBRANCH   1  19
TORSDOF 6
ENDMDL
MODEL 3
REMARK VINA RESULT:    -8.419      2.403      4.375
REMARK INTER + INTRA:         -12.070
REMARK INTER:                 -10.804
REMARK INTRA:                  -1.266
REMARK UNBOUND:                -0.944
REMARK  Name = 
REMARK  6 active torsions:
REMARK  status: ('A' for Active; 'I' for Inactive)
REMARK    1  A    between atoms: C_2  and  C_19
REMARK    2  A    between atoms: N_3  and  C_4
REMARK    3  A    between atoms: C_4  and  C_5
REMARK    4  A    between atoms: C_8  and  C_9
REMARK    5  A    between atoms: C_9  and  O_10
REMARK    6  A    between atoms: C_9  and  C_11
REMARK                            x       y       z     vdW  Elec       q    Type
REMARK                         _______ _______ _______ _____ _____    ______ ____
ROOT
ATOM      1  C   UNL     1      46.727   4.999  14.310  0.00  0.00    +0.000 C 
ENDROOT
BRANCH   1   2
ATOM      2  C   UNL     1      46.082   4.593  13.011  0.00  0.00    +0.000 A 
ATOM      3  C   UNL     1      45.926   5.526  11.979  0.00  0.00    +0.000 A 
ATOM      4  C   UNL     1      45.383   5.143  10.750  0.00  0.00    +0.000 A 
ATOM      5  C   UNL     1      44.964   3.821  10.531  0.00  0.00    +0.000 A 
ATOM      6  C   UNL     1      45.068   2.904  11.590  0.00  0.00    +0.000 A 
ATOM      7  C   UNL     1      45.621   3.284  12.815  0.00  0.00    +0.000 A 
BRANCH   5   8
ATOM      8  C   UNL     1      44.427   3.407   9.168  0.00  0.00    +0.000 C 
BRANCH   8   9
ATOM      9  C   UNL     1      45.482   2.828   8.240  0.00  0.00    +0.000 A 
ATOM     10  C   UNL     1      46.011   3.615   7.204  0.00  0.00    +0.000 A 
ATOM     11  C   UNL     1      46.961   3.093   6.323  0.00  0.00    +0.000 A 
ATOM     12  C   UNL     1      47.403   1.781   6.471  0.00  0.00    +0.000 A 
ATOM     13  C   UNL     1      46.907   0.993   7.507  0.00  0.00    +0.000 A 
ATOM     14  C   UNL     1      45.959   1.514   8.388  0.00  0.00    +0.000 A 
ENDBRANCH   8   9
BRANCH   8  15
ATOM     15  O   UNL     1      43.772   4.519   8.549  0.00  0.00    +0.000 OA
ATOM     16  H   UNL     1      43.001   4.742   9.095  0.00  0.00    +0.000 HD
ENDBRANCH   8  15
ENDBRANCH   5   8
ENDBRANCH   1   2
BRANCH   1  19
ATOM     17  O   UNL     1      49.101   5.975  15.457  0.00  0.00    +0.000 OA
ATOM     18  C   UNL     1      48.378   6.751  14.837  0.00  0.00    +0.000 C 
ATOM     19  N   UNL     1      47.190   6.360  14.275  0.00  0.00    +0.000 N 
ATOM     20  H   UNL     1      46.716   6.983  13.630  0.00  0.00    +0.000 HD
BRANCH  18  21
ATOM     21  C   UNL     1      48.720   8.172  14.711  0.00  0.00    +0.000 A 
ATOM     22  C   UNL     1      48.822   8.959  15.852  0.00  0.00    +0.000 A 
ATOM     23  S   UNL     1      49.229  10.582  15.527  0.00  0.00    +0.000 S 
ATOM     24  C   UNL     1      49.328  10.282  13.858  0.00  0.00    +0.000 A 
ATOM     25  N   UNL     1      49.688  11.267  12.990  0.00  0.00    +0.000 NA
ATOM     26  C   UNL     1      49.762  10.889  11.758  0.00  0.00    +0.000 A 
ATOM     27  N   UNL     1      49.495   9.618  11.309  0.00  0.00    +0.000 N 
ATOM     28  C   UNL     1      49.042   8.620  12.136  0.00  0.00    +0.000 A 
ATOM     29  O   UNL     1      48.660   7.547  11.683  0.00  0.00    +0.000 OA
ATOM     30  C   UNL     1      49.009   8.968  13.541  0.00  0.00    +0.000 A 
ATOM     31  H   UNL     1      49.530   9.404  10.325  0.00  0.00    +0.000 HD
ENDBRANCH  18  21
ENDBRANCH   1  19
TORSDOF 6
ENDMDL
MODEL 4
REMARK VINA RESULT:    -8.062      1.151      1.465
REMARK INTER + INTRA:         -11.598
REMARK INTER:                 -10.497
REMARK INTRA:                  -1.101
REMARK UNBOUND:                -0.944
REMARK  Name = 
REMARK  6 active torsions:
REMARK  status: ('A' for Active; 'I' for Inactive)
REMARK    1  A    between atoms: C_2  and  C_19
REMARK    2  A    between atoms: N_3  and  C_4
REMARK    3  A    between atoms: C_4  and  C_5
REMARK    4  A    between atoms: C_8  and  C_9
REMARK    5  A    between atoms: C_9  and  O_10
REMARK    6  A    between atoms: C_9  and  C_11
REMARK                            x       y       z     vdW  Elec       q    Type
REMARK                         _______ _______ _______ _____ _____    ______ ____
ROOT
ATOM      1  C   UNL     1      47.595   8.327  13.652  0.00  0.00    +0.000 C 
ENDROOT
BRANCH   1   2
ATOM      2  C   UNL     1      46.685   7.362  12.939  0.00  0.00    +0.000 A 
ATOM      3  C   UNL     1      45.645   7.838  12.132  0.00  0.00    +0.000 A 
ATOM      4  C   UNL     1      44.833   6.951  11.419  0.00  0.00    +0.000 A 
ATOM      5  C   UNL     1      45.030   5.564  11.514  0.00  0.00    +0.000 A 
ATOM      6  C   UNL     1      46.037   5.090  12.371  0.00  0.00    +0.000 A 
ATOM      7  C   UNL     1      46.855   5.978  13.075  0.00  0.00    +0.000 A 
BRANCH   5   8
ATOM      8  C   UNL     1      44.174   4.615  10.688  0.00  0.00    +0.000 C 
BRANCH   8   9
ATOM      9  C   UNL     1      44.943   3.882   9.599  0.00  0.00    +0.000 A 
ATOM     10  C   UNL     1      44.954   2.477   9.577  0.00  0.00    +0.000 A 
ATOM     11  C   UNL     1      45.676   1.784   8.603  0.00  0.00    +0.000 A 
ATOM     12  C   UNL     1      46.389   2.485   7.633  0.00  0.00    +0.000 A 
ATOM     13  C   UNL     1      46.369   3.877   7.626  0.00  0.00    +0.000 A 
ATOM     14  C   UNL     1      45.648   4.570   8.598  0.00  0.00    +0.000 A 
ENDBRANCH   8   9
BRANCH   8  15
ATOM     15  O   UNL     1      43.067   5.327  10.125  0.00  0.00    +0.000 OA
ATOM     16  H   UNL     1      42.537   4.688   9.623  0.00  0.00    +0.000 HD
ENDBRANCH   8  15
ENDBRANCH   5   8
ENDBRANCH   1   2
BRANCH   1  19
ATOM     17  O   UNL     1      49.929   6.979  14.448  0.00  0.00    +0.000 OA
ATOM     18  C   UNL     1      49.085   7.255  15.297  0.00  0.00    +0.000 C 
ATOM     19  N   UNL     1      47.907   7.884  14.984  0.00  0.00    +0.000 N 
ATOM     20  H   UNL     1      47.323   8.246  15.730  0.00  0.00    +0.000 HD
BRANCH  18  21
ATOM     21  C   UNL     1      49.265   6.872  16.701  0.00  0.00    +0.000 A 
ATOM     22  C   UNL     1      49.898   7.746  17.577  0.00  0.00    +0.000 A 
ATOM     23  S   UNL     1      50.020   7.148  19.168  0.00  0.00    +0.000 S 
ATOM     24  C   UNL     1      49.195   5.722  18.755  0.00  0.00    +0.000 A 
ATOM     25  N   UNL     1      48.919   4.776  19.695  0.00  0.00    +0.000 NA
ATOM     26  C   UNL     1      48.252   3.764  19.250  0.00  0.00    +0.000 A 
ATOM     27  N   UNL     1      47.846   3.603  17.947  0.00  0.00    +0.000 N 
ATOM     28  C   UNL     1      48.179   4.486  16.952  0.00  0.00    +0.000 A 
ATOM     29  O   UNL     1      47.941   4.235  15.776  0.00  0.00    +0.000 OA
ATOM     30  C   UNL     1      48.867   5.677  17.407  0.00  0.00    +0.000 A 
ATOM     31  H   UNL     1      47.365   2.765  17.661  0.00  0.00    +0.000 HD
ENDBRANCH  18  21
ENDBRANCH   1  19
TORSDOF 6
ENDMDL
MODEL 5
REMARK VINA RESULT:    -7.949      2.828      3.997
REMARK INTER + INTRA:         -11.450
REMARK INTER:                 -10.242
REMARK INTRA:                  -1.208
REMARK UNBOUND:                -0.944
REMARK  Name = 
REMARK  6 active torsions:
REMARK  status: ('A' for Active; 'I' for Inactive)
REMARK    1  A    between atoms: C_2  and  C_19
REMARK    2  A    between atoms: N_3  and  C_4
REMARK    3  A    between atoms: C_4  and  C_5
REMARK    4  A    between atoms: C_8  and  C_9
REMARK    5  A    between atoms: C_9  and  O_10
REMARK    6  A    between atoms: C_9  and  C_11
REMARK                            x       y       z     vdW  Elec       q    Type
REMARK                         _______ _______ _______ _____ _____    ______ ____
ROOT
ATOM      1  C   UNL     1      46.874   5.739  14.024  0.00  0.00    +0.000 C 
ENDROOT
BRANCH   1   2
ATOM      2  C   UNL     1      46.205   5.138  12.817  0.00  0.00    +0.000 A 
ATOM      3  C   UNL     1      45.971   5.920  11.679  0.00  0.00    +0.000 A 
ATOM      4  C   UNL     1      45.405   5.355  10.532  0.00  0.00    +0.000 A 
ATOM      5  C   UNL     1      45.042   4.000  10.504  0.00  0.00    +0.000 A 
ATOM      6  C   UNL     1      45.225   3.235  11.668  0.00  0.00    +0.000 A 
ATOM      7  C   UNL     1      45.800   3.797  12.811  0.00  0.00    +0.000 A 
BRANCH   5   8
ATOM      8  C   UNL     1      44.479   3.388   9.228  0.00  0.00    +0.000 C 
BRANCH   8   9
ATOM      9  C   UNL     1      45.534   2.770   8.325  0.00  0.00    +0.000 A 
ATOM     10  C   UNL     1      45.836   1.403   8.436  0.00  0.00    +0.000 A 
ATOM     11  C   UNL     1      46.822   0.822   7.635  0.00  0.00    +0.000 A 
ATOM     12  C   UNL     1      47.512   1.596   6.705  0.00  0.00    +0.000 A 
ATOM     13  C   UNL     1      47.208   2.947   6.564  0.00  0.00    +0.000 A 
ATOM     14  C   UNL     1      46.224   3.529   7.364  0.00  0.00    +0.000 A 
ENDBRANCH   8   9
BRANCH   8  15
ATOM     15  O   UNL     1      43.721   4.370   8.514  0.00  0.00    +0.000 OA
ATOM     16  H   UNL     1      42.786   4.231   8.736  0.00  0.00    +0.000 HD
ENDBRANCH   8  15
ENDBRANCH   5   8
ENDBRANCH   1   2
BRANCH   1  19
ATOM     17  O   UNL     1      47.301   8.517  13.984  0.00  0.00    +0.000 OA
ATOM     18  C   UNL     1      48.237   7.769  13.713  0.00  0.00    +0.000 C 
ATOM     19  N   UNL     1      48.102   6.405  13.681  0.00  0.00    +0.000 N 
ATOM     20  H   UNL     1      48.931   5.824  13.625  0.00  0.00    +0.000 HD
BRANCH  18  21
ATOM     21  C   UNL     1      49.554   8.300  13.347  0.00  0.00    +0.000 A 
ATOM     22  C   UNL     1      49.680   9.115  12.228  0.00  0.00    +0.000 A 
ATOM     23  S   UNL     1      51.275   9.648  11.948  0.00  0.00    +0.000 S 
ATOM     24  C   UNL     1      51.845   8.847  13.333  0.00  0.00    +0.000 A 
ATOM     25  N   UNL     1      53.152   8.936  13.704  0.00  0.00    +0.000 NA
ATOM     26  C   UNL     1      53.438   8.311  14.797  0.00  0.00    +0.000 A 
ATOM     27  N   UNL     1      52.539   7.593  15.549  0.00  0.00    +0.000 N 
ATOM     28  C   UNL     1      51.236   7.403  15.164  0.00  0.00    +0.000 A 
ATOM     29  O   UNL     1      50.503   6.628  15.768  0.00  0.00    +0.000 OA
ATOM     30  C   UNL     1      50.842   8.140  13.982  0.00  0.00    +0.000 A 
ATOM     31  H   UNL     1      52.841   7.093  16.370  0.00  0.00    +0.000 HD
ENDBRANCH  18  21
ENDBRANCH   1  19
TORSDOF 6
ENDMDL
MODEL 6
REMARK VINA RESULT:    -7.772      2.749      3.725
REMARK INTER + INTRA:         -11.215
REMARK INTER:                 -10.244
REMARK INTRA:                  -0.971
REMARK UNBOUND:                -0.944
REMARK  Name = 
REMARK  6 active torsions:
REMARK  status: ('A' for Active; 'I' for Inactive)
REMARK    1  A    between atoms: C_2  and  C_19
REMARK    2  A    between atoms: N_3  and  C_4
REMARK    3  A    between atoms: C_4  and  C_5
REMARK    4  A    between atoms: C_8  and  C_9
REMARK    5  A    between atoms: C_9  and  O_10
REMARK    6  A    between atoms: C_9  and  C_11
REMARK                            x       y       z     vdW  Elec       q    Type
REMARK                         _______ _______ _______ _____ _____    ______ ____
ROOT
ATOM      1  C   UNL     1      47.394   4.832  14.819  0.00  0.00    +0.000 C 
ENDROOT
BRANCH   1   2
ATOM      2  C   UNL     1      46.564   4.565  13.592  0.00  0.00    +0.000 A 
ATOM      3  C   UNL     1      46.251   5.607  12.711  0.00  0.00    +0.000 A 
ATOM      4  C   UNL     1      45.532   5.357  11.539  0.00  0.00    +0.000 A 
ATOM      5  C   UNL     1      45.092   4.061  11.230  0.00  0.00    +0.000 A 
ATOM      6  C   UNL     1      45.358   3.029  12.145  0.00  0.00    +0.000 A 
ATOM      7  C   UNL     1      46.086   3.278  13.312  0.00  0.00    +0.000 A 
BRANCH   5   8
ATOM      8  C   UNL     1      44.360   3.796   9.922  0.00  0.00    +0.000 C 
BRANCH   8   9
ATOM      9  C   UNL     1      45.246   3.229   8.824  0.00  0.00    +0.000 A 
ATOM     10  C   UNL     1      45.516   1.852   8.786  0.00  0.00    +0.000 A 
ATOM     11  C   UNL     1      46.351   1.315   7.802  0.00  0.00    +0.000 A 
ATOM     12  C   UNL     1      46.917   2.145   6.838  0.00  0.00    +0.000 A 
ATOM     13  C   UNL     1      46.640   3.509   6.847  0.00  0.00    +0.000 A 
ATOM     14  C   UNL     1      45.807   4.047   7.828  0.00  0.00    +0.000 A 
ENDBRANCH   8   9
BRANCH   8  15
ATOM     15  O   UNL     1      43.716   4.995   9.477  0.00  0.00    +0.000 OA
ATOM     16  H   UNL     1      42.815   4.990   9.838  0.00  0.00    +0.000 HD
ENDBRANCH   8  15
ENDBRANCH   5   8
ENDBRANCH   1   2
BRANCH   1  19
ATOM     17  O   UNL     1      49.716   6.001  15.889  0.00  0.00    +0.000 OA
ATOM     18  C   UNL     1      48.801   6.731  15.518  0.00  0.00    +0.000 C 
ATOM     19  N   UNL     1      47.625   6.238  15.014  0.00  0.00    +0.000 N 
ATOM     20  H   UNL     1      46.973   6.871  14.562  0.00  0.00    +0.000 HD
BRANCH  18  21
ATOM     21  C   UNL     1      48.892   8.189  15.648  0.00  0.00    +0.000 A 
ATOM     22  C   UNL     1      49.389   8.945  14.593  0.00  0.00    +0.000 A 
ATOM     23  S   UNL     1      49.422  10.619  14.909  0.00  0.00    +0.000 S 
ATOM     24  C   UNL     1      48.734  10.400  16.446  0.00  0.00    +0.000 A 
ATOM     25  N   UNL     1      48.450  11.466  17.244  0.00  0.00    +0.000 NA
ATOM     26  C   UNL     1      47.893  11.155  18.367  0.00  0.00    +0.000 A 
ATOM     27  N   UNL     1      47.607   9.874  18.774  0.00  0.00    +0.000 N 
ATOM     28  C   UNL     1      47.958   8.768  18.042  0.00  0.00    +0.000 A 
ATOM     29  O   UNL     1      47.835   7.638  18.502  0.00  0.00    +0.000 OA
ATOM     30  C   UNL     1      48.521   9.060  16.740  0.00  0.00    +0.000 A 
ATOM     31  H   UNL     1      47.210   9.702  19.684  0.00  0.00    +0.000 HD
ENDBRANCH  18  21
ENDBRANCH   1  19
TORSDOF 6
ENDMDL
MODEL 7
REMARK VINA RESULT:    -7.404      1.984      2.343
REMARK INTER + INTRA:         -10.729
REMARK INTER:                  -9.699
REMARK INTRA:                  -1.030
REMARK UNBOUND:                -0.944
REMARK  Name = 
REMARK  6 active torsions:
REMARK  status: ('A' for Active; 'I' for Inactive)
REMARK    1  A    between atoms: C_2  and  C_19
REMARK    2  A    between atoms: N_3  and  C_4
REMARK    3  A    between atoms: C_4  and  C_5
REMARK    4  A    between atoms: C_8  and  C_9
REMARK    5  A    between atoms: C_9  and  O_10
REMARK    6  A    between atoms: C_9  and  C_11
REMARK                            x       y       z     vdW  Elec       q    Type
REMARK                         _______ _______ _______ _____ _____    ______ ____
ROOT
ATOM      1  C   UNL     1      47.562   7.936  13.841  0.00  0.00    +0.000 C 
ENDROOT
BRANCH   1   2
ATOM      2  C   UNL     1      46.664   7.041  13.028  0.00  0.00    +0.000 A 
ATOM      3  C   UNL     1      45.785   7.590  12.088  0.00  0.00    +0.000 A 
ATOM      4  C   UNL     1      44.991   6.763  11.288  0.00  0.00    +0.000 A 
ATOM      5  C   UNL     1      45.045   5.367  11.424  0.00  0.00    +0.000 A 
ATOM      6  C   UNL     1      45.886   4.824  12.409  0.00  0.00    +0.000 A 
ATOM      7  C   UNL     1      46.687   5.651  13.202  0.00  0.00    +0.000 A 
BRANCH   5   8
ATOM      8  C   UNL     1      44.217   4.479  10.506  0.00  0.00    +0.000 C 
BRANCH   8   9
ATOM      9  C   UNL     1      45.035   3.745   9.455  0.00  0.00    +0.000 A 
ATOM     10  C   UNL     1      45.724   4.474   8.471  0.00  0.00    +0.000 A 
ATOM     11  C   UNL     1      46.458   3.819   7.480  0.00  0.00    +0.000 A 
ATOM     12  C   UNL     1      46.523   2.428   7.465  0.00  0.00    +0.000 A 
ATOM     13  C   UNL     1      45.867   1.690   8.447  0.00  0.00    +0.000 A 
ATOM     14  C   UNL     1      45.133   2.344   9.438  0.00  0.00    +0.000 A 
ENDBRANCH   8   9
BRANCH   8  15
ATOM     15  O   UNL     1      43.186   5.254   9.885  0.00  0.00    +0.000 OA
ATOM     16  H   UNL     1      42.335   4.889  10.177  0.00  0.00    +0.000 HD
ENDBRANCH   8  15
ENDBRANCH   5   8
ENDBRANCH   1   2
BRANCH   1  19
ATOM     17  O   UNL     1      48.415   8.768  16.386  0.00  0.00    +0.000 OA
ATOM     18  C   UNL     1      48.740   7.653  15.987  0.00  0.00    +0.000 C 
ATOM     19  N   UNL     1      48.390   7.186  14.746  0.00  0.00    +0.000 N 
ATOM     20  H   UNL     1      48.528   6.206  14.526  0.00  0.00    +0.000 HD
BRANCH  18  21
ATOM     21  C   UNL     1      49.580   6.769  16.801  0.00  0.00    +0.000 A 
ATOM     22  C   UNL     1      50.846   6.416  16.349  0.00  0.00    +0.000 A 
ATOM     23  S   UNL     1      51.689   5.388  17.416  0.00  0.00    +0.000 S 
ATOM     24  C   UNL     1      50.413   5.413  18.537  0.00  0.00    +0.000 A 
ATOM     25  N   UNL     1      50.512   4.752  19.724  0.00  0.00    +0.000 NA
ATOM     26  C   UNL     1      49.486   4.890  20.495  0.00  0.00    +0.000 A 
ATOM     27  N   UNL     1      48.361   5.616  20.184  0.00  0.00    +0.000 N 
ATOM     28  C   UNL     1      48.183   6.221  18.965  0.00  0.00    +0.000 A 
ATOM     29  O   UNL     1      47.108   6.724  18.658  0.00  0.00    +0.000 OA
ATOM     30  C   UNL     1      49.333   6.159  18.087  0.00  0.00    +0.000 A 
ATOM     31  H   UNL     1      47.578   5.645  20.817  0.00  0.00    +0.000 HD
ENDBRANCH  18  21
ENDBRANCH   1  19
TORSDOF 6
ENDMDL
MODEL 8
REMARK VINA RESULT:    -7.310      2.242      3.333
REMARK INTER + INTRA:         -10.604
REMARK INTER:                  -9.380
REMARK INTRA:                  -1.224
REMARK UNBOUND:                -0.944
REMARK  Name = 
REMARK  6 active torsions:
REMARK  status: ('A' for Active; 'I' for Inactive)
REMARK    1  A    between atoms: C_2  and  C_19
REMARK    2  A    between atoms: N_3  and  C_4
REMARK    3  A    between atoms: C_4  and  C_5
REMARK    4  A    between atoms: C_8  and  C_9
REMARK    5  A    between atoms: C_9  and  O_10
REMARK    6  A    between atoms: C_9  and  C_11
REMARK                            x       y       z     vdW  Elec       q    Type
REMARK                         _______ _______ _______ _____ _____    ______ ____
ROOT
ATOM      1  C   UNL     1      48.122   8.035  13.717  0.00  0.00    +0.000 C 
ENDROOT
BRANCH   1   2
ATOM      2  C   UNL     1      47.112   7.181  12.997  0.00  0.00    +0.000 A 
ATOM      3  C   UNL     1      46.147   7.773  12.173  0.00  0.00    +0.000 A 
ATOM      4  C   UNL     1      45.244   6.985  11.455  0.00  0.00    +0.000 A 
ATOM      5  C   UNL     1      45.272   5.585  11.559  0.00  0.00    +0.000 A 
ATOM      6  C   UNL     1      46.204   4.999  12.432  0.00  0.00    +0.000 A 
ATOM      7  C   UNL     1      47.114   5.788  13.142  0.00  0.00    +0.000 A 
BRANCH   5   8
ATOM      8  C   UNL     1      44.319   4.739  10.727  0.00  0.00    +0.000 C 
BRANCH   8   9
ATOM      9  C   UNL     1      45.005   3.932   9.635  0.00  0.00    +0.000 A 
ATOM     10  C   UNL     1      45.698   4.594   8.608  0.00  0.00    +0.000 A 
ATOM     11  C   UNL     1      46.311   3.873   7.581  0.00  0.00    +0.000 A 
ATOM     12  C   UNL     1      46.248   2.482   7.570  0.00  0.00    +0.000 A 
ATOM     13  C   UNL     1      45.586   1.809   8.594  0.00  0.00    +0.000 A 
ATOM     14  C   UNL     1      44.973   2.528   9.621  0.00  0.00    +0.000 A 
ENDBRANCH   8   9
BRANCH   8  15
ATOM     15  O   UNL     1      43.297   5.571  10.167  0.00  0.00    +0.000 OA
ATOM     16  H   UNL     1      42.442   5.203  10.444  0.00  0.00    +0.000 HD
ENDBRANCH   8  15
ENDBRANCH   5   8
ENDBRANCH   1   2
BRANCH   1  19
ATOM     17  O   UNL     1      48.279   8.162  16.520  0.00  0.00    +0.000 OA
ATOM     18  C   UNL     1      48.983   7.352  15.922  0.00  0.00    +0.000 C 
ATOM     19  N   UNL     1      48.987   7.250  14.555  0.00  0.00    +0.000 N 
ATOM     20  H   UNL     1      49.447   6.460  14.116  0.00  0.00    +0.000 HD
BRANCH  18  21
ATOM     21  C   UNL     1      49.915   6.478  16.642  0.00  0.00    +0.000 A 
ATOM     22  C   UNL     1      49.423   5.543  17.546  0.00  0.00    +0.000 A 
ATOM     23  S   UNL     1      50.638   4.608  18.290  0.00  0.00    +0.000 S 
ATOM     24  C   UNL     1      51.859   5.386  17.401  0.00  0.00    +0.000 A 
ATOM     25  N   UNL     1      53.163   5.019  17.534  0.00  0.00    +0.000 NA
ATOM     26  C   UNL     1      53.978   5.666  16.770  0.00  0.00    +0.000 A 
ATOM     27  N   UNL     1      53.612   6.659  15.893  0.00  0.00    +0.000 N 
ATOM     28  C   UNL     1      52.324   7.121  15.794  0.00  0.00    +0.000 A 
ATOM     29  O   UNL     1      52.056   8.112  15.123  0.00  0.00    +0.000 OA
ATOM     30  C   UNL     1      51.355   6.383  16.576  0.00  0.00    +0.000 A 
ATOM     31  H   UNL     1      54.308   7.153  15.358  0.00  0.00    +0.000 HD
ENDBRANCH  18  21
ENDBRANCH   1  19
TORSDOF 6
ENDMDL
