MODEL 1
REMARK VINA RESULT:    -8.468      0.000      0.000
REMARK INTER + INTRA:         -13.325
REMARK INTER:                 -11.933
REMARK INTRA:                  -1.391
REMARK UNBOUND:                -1.391
REMARK  Name = 
REMARK  8 active torsions:
REMARK  status: ('A' for Active; 'I' for Inactive)
REMARK    1  A    between atoms: C_1  and  C_2
REMARK    2  A    between atoms: C_2  and  N_3
REMARK    3  A    between atoms: C_2  and  C_26
REMARK    4  A    between atoms: N_3  and  C_4
REMARK    5  A    between atoms: C_4  and  C_5
REMARK    6  A    between atoms: C_8  and  C_9
REMARK    7  A    between atoms: C_9  and  N_10
REMARK    8  A    between atoms: C_11  and  C_13
REMARK                            x       y       z     vdW  Elec       q    Type
REMARK                         _______ _______ _______ _____ _____    ______ ____
ROOT
ATOM      1  C   UNL     1      44.575   5.665  10.965  0.00  0.00    +0.000 A 
ATOM      2  C   UNL     1      44.077   6.238  12.146  0.00  0.00    +0.000 A 
ATOM      3  C   UNL     1      44.881   7.064  12.937  0.00  0.00    +0.000 A 
ATOM      4  C   UNL     1      46.200   7.348  12.557  0.00  0.00    +0.000 A 
ATOM      5  C   UNL     1      46.691   6.767  11.386  0.00  0.00    +0.000 A 
ATOM      6  F   UNL     1      47.957   6.992  11.006  0.00  0.00    +0.000 F 
ATOM      7  C   UNL     1      45.896   5.940  10.593  0.00  0.00    +0.000 A 
ENDROOT
BRANCH   1   8
ATOM      8  C   UNL     1      43.722   4.722  10.148  0.00  0.00    +0.000 C 
BRANCH   8   9
ATOM      9  N   UNL     1      44.426   4.264   8.954  0.00  0.00    +0.000 NA
ATOM     10  H   UNL     1      45.118   4.972   8.697  0.00  0.00    +0.000 HD
BRANCH   9  12
ATOM     11  C   UNL     1      44.226   1.797   9.400  0.00  0.00    +0.000 C 
ATOM     12  C   UNL     1      45.155   2.994   9.158  0.00  0.00    +0.000 C 
BRANCH  12  13
ATOM     13  C   UNL     1      46.051   2.689   7.957  0.00  0.00    +0.000 A 
ATOM     14  C   UNL     1      46.221   3.632   6.942  0.00  0.00    +0.000 A 
ATOM     15  C   UNL     1      47.008   3.312   5.842  0.00  0.00    +0.000 A 
ATOM     16  C   UNL     1      47.613   2.064   5.783  0.00  0.00    +0.000 A 
ATOM     17  C   UNL     1      47.409   1.188   6.835  0.00  0.00    +0.000 A 
ATOM     18  N   UNL     1      46.645   1.468   7.916  0.00  0.00    +0.000 NA
ENDBRANCH  12  13
ENDBRANCH   9  12
ENDBRANCH   8   9
ENDBRANCH   1   8
BRANCH   4  19
ATOM     19  C   UNL     1      47.069   8.220  13.420  0.00  0.00    +0.000 C 
BRANCH  19  20
ATOM     20  N   UNL     1      47.532   7.490  14.573  0.00  0.00    +0.000 N 
ATOM     21  C   UNL     1      48.768   6.895  14.630  0.00  0.00    +0.000 C 
ATOM     22  O   UNL     1      49.601   7.011  13.738  0.00  0.00    +0.000 OA
ATOM     23  H   UNL     1      46.804   7.150  15.192  0.00  0.00    +0.000 HD
BRANCH  21  24
ATOM     24  C   UNL     1      49.062   6.172  15.874  0.00  0.00    +0.000 A 
ATOM     25  C   UNL     1      50.106   6.586  16.690  0.00  0.00    +0.000 A 
ATOM     26  S   UNL     1      50.255   5.669  18.121  0.00  0.00    +0.000 S 
ATOM     27  C   UNL     1      48.960   4.656  17.676  0.00  0.00    +0.000 A 
ATOM     28  N   UNL     1      48.564   3.626  18.472  0.00  0.00    +0.000 NA
ATOM     29  C   UNL     1      47.583   2.932  17.998  0.00  0.00    +0.000 A 
ATOM     30  N   UNL     1      46.961   3.174  16.801  0.00  0.00    +0.000 N 
ATOM     31  C   UNL     1      47.314   4.209  15.975  0.00  0.00    +0.000 A 
ATOM     32  O   UNL     1      46.713   4.425  14.927  0.00  0.00    +0.000 OA
ATOM     33  C   UNL     1      48.414   5.023  16.459  0.00  0.00    +0.000 A 
ATOM     34  H   UNL     1      46.187   2.602  16.492  0.00  0.00    +0.000 HD
ENDBRANCH  21  24
ENDBRANCH  19  20
ENDBRANCH   4  19
TORSDOF 7
ENDMDL
MODEL 2
REMARK VINA RESULT:    -8.113      2.617      3.215
REMARK INTER + INTRA:         -12.824
REMARK INTER:                 -11.721
REMARK INTRA:                  -1.103
REMARK UNBOUND:                -1.391
REMARK  Name = 
REMARK  8 active torsions:
REMARK  status: ('A' for Active; 'I' for Inactive)
REMARK    1  A    between atoms: C_1  and  C_2
REMARK    2  A    between atoms: C_2  and  N_3
REMARK    3  A    between atoms: C_2  and  C_26
REMARK    4  A    between atoms: N_3  and  C_4
REMARK    5  A    between atoms: C_4  and  C_5
REMARK    6  A    between atoms: C_8  and  C_9
REMARK    7  A    between atoms: C_9  and  N_10
REMARK    8  A    between atoms: C_11  and  C_13
REMARK                            x       y       z     vdW  Elec       q    Type
REMARK                         _______ _______ _______ _____ _____    ______ ____
ROOT
ATOM      1  C   UNL     1      45.321   4.341  12.242  0.00  0.00    +0.000 A 
ATOM      2  C   UNL     1      46.021   3.831  13.347  0.00  0.00    +0.000 A 
ATOM      3  C   UNL     1      47.021   4.581  13.971  0.00  0.00    +0.000 A 
ATOM      4  C   UNL     1      47.337   5.867  13.513  0.00  0.00    +0.000 A 
ATOM      5  C   UNL     1      46.644   6.365  12.408  0.00  0.00    +0.000 A 
ATOM      6  F   UNL     1      46.938   7.579  11.923  0.00  0.00    +0.000 F 
ATOM      7  C   UNL     1      45.645   5.621  11.778  0.00  0.00    +0.000 A 
ENDROOT
BRANCH   1   8
ATOM      8  C   UNL     1      44.285   3.501  11.531  0.00  0.00    +0.000 C 
BRANCH   8   9
ATOM      9  N   UNL     1      44.905   2.569  10.595  0.00  0.00    +0.000 NA
ATOM     10  H   UNL     1      44.600   1.622  10.833  0.00  0.00    +0.000 HD
BRANCH   9  12
ATOM     11  C   UNL     1      44.157   4.276   8.906  0.00  0.00    +0.000 C 
ATOM     12  C   UNL     1      44.521   2.812   9.188  0.00  0.00    +0.000 C 
BRANCH  12  13
ATOM     13  C   UNL     1      45.646   2.391   8.242  0.00  0.00    +0.000 A 
ATOM     14  C   UNL     1      46.154   3.290   7.302  0.00  0.00    +0.000 A 
ATOM     15  C   UNL     1      47.149   2.868   6.427  0.00  0.00    +0.000 A 
ATOM     16  C   UNL     1      47.619   1.565   6.514  0.00  0.00    +0.000 A 
ATOM     17  C   UNL     1      47.076   0.738   7.482  0.00  0.00    +0.000 A 
ATOM     18  N   UNL     1      46.104   1.117   8.344  0.00  0.00    +0.000 NA
ENDBRANCH  12  13
ENDBRANCH   9  12
ENDBRANCH   8   9
ENDBRANCH   1   8
BRANCH   4  19
ATOM     19  C   UNL     1      48.427   6.664  14.174  0.00  0.00    +0.000 C 
BRANCH  19  20
ATOM     20  N   UNL     1      48.158   6.820  15.581  0.00  0.00    +0.000 N 
ATOM     21  C   UNL     1      49.025   6.393  16.556  0.00  0.00    +0.000 C 
ATOM     22  O   UNL     1      50.129   5.924  16.302  0.00  0.00    +0.000 OA
ATOM     23  H   UNL     1      47.181   6.943  15.825  0.00  0.00    +0.000 HD
BRANCH  21  24
ATOM     24  C   UNL     1      48.576   6.612  17.937  0.00  0.00    +0.000 A 
ATOM     25  C   UNL     1      48.573   5.560  18.844  0.00  0.00    +0.000 A 
ATOM     26  S   UNL     1      48.085   6.018  20.413  0.00  0.00    +0.000 S 
ATOM     27  C   UNL     1      47.813   7.626  19.923  0.00  0.00    +0.000 A 
ATOM     28  N   UNL     1      47.361   8.563  20.799  0.00  0.00    +0.000 NA
ATOM     29  C   UNL     1      47.182   9.734  20.283  0.00  0.00    +0.000 A 
ATOM     30  N   UNL     1      47.416  10.053  18.971  0.00  0.00    +0.000 N 
ATOM     31  C   UNL     1      47.888   9.147  18.057  0.00  0.00    +0.000 A 
ATOM     32  O   UNL     1      48.125   9.472  16.898  0.00  0.00    +0.000 OA
ATOM     33  C   UNL     1      48.105   7.813  18.584  0.00  0.00    +0.000 A 
ATOM     34  H   UNL     1      47.271  10.995  18.631  0.00  0.00    +0.000 HD
ENDBRANCH  21  24
ENDBRANCH  19  20
ENDBRANCH   4  19
TORSDOF 7
ENDMDL
MODEL 3
REMARK VINA RESULT:    -7.447      1.979      2.414
REMARK INTER + INTRA:         -11.886
REMARK INTER:                 -11.028
REMARK INTRA:                  -0.858
REMARK UNBOUND:                -1.391
REMARK  Name = 
REMARK  8 active torsions:
REMARK  status: ('A' for Active; 'I' for Inactive)
REMARK    1  A    between atoms: C_1  and  C_2
REMARK    2  A    between atoms: C_2  and  N_3
REMARK    3  A    between atoms: C_2  and  C_26
REMARK    4  A    between atoms: N_3  and  C_4
REMARK    5  A    between atoms: C_4  and  C_5
REMARK    6  A    between atoms: C_8  and  C_9
REMARK    7  A    between atoms: C_9  and  N_10
REMARK    8  A    between atoms: C_11  and  C_13
REMARK                            x       y       z     vdW  Elec       q    Type
REMARK                         _______ _______ _______ _____ _____    ______ ____
ROOT
ATOM      1  C   UNL     1      44.992   5.564  11.592  0.00  0.00    +0.000 A 
ATOM      2  C   UNL     1      45.759   6.672  11.200  0.00  0.00    +0.000 A 
ATOM      3  C   UNL     1      46.924   7.019  11.891  0.00  0.00    +0.000 A 
ATOM      4  C   UNL     1      47.356   6.257  12.985  0.00  0.00    +0.000 A 
ATOM      5  C   UNL     1      46.583   5.162  13.375  0.00  0.00    +0.000 A 
ATOM      6  F   UNL     1      46.948   4.426  14.435  0.00  0.00    +0.000 F 
ATOM      7  C   UNL     1      45.418   4.810  12.692  0.00  0.00    +0.000 A 
ENDROOT
BRANCH   1   8
ATOM      8  C   UNL     1      43.700   5.231  10.881  0.00  0.00    +0.000 C 
BRANCH   8   9
ATOM      9  N   UNL     1      43.946   4.485   9.651  0.00  0.00    +0.000 NA
ATOM     10  H   UNL     1      44.449   5.094   9.001  0.00  0.00    +0.000 HD
BRANCH   9  12
ATOM     11  C   UNL     1      43.959   2.044  10.255  0.00  0.00    +0.000 C 
ATOM     12  C   UNL     1      44.776   3.279   9.854  0.00  0.00    +0.000 C 
BRANCH  12  13
ATOM     13  C   UNL     1      45.575   2.955   8.591  0.00  0.00    +0.000 A 
ATOM     14  C   UNL     1      46.080   1.670   8.383  0.00  0.00    +0.000 A 
ATOM     15  C   UNL     1      46.837   1.415   7.245  0.00  0.00    +0.000 A 
ATOM     16  C   UNL     1      47.066   2.441   6.340  0.00  0.00    +0.000 A 
ATOM     17  C   UNL     1      46.519   3.684   6.609  0.00  0.00    +0.000 A 
ATOM     18  N   UNL     1      45.783   3.966   7.708  0.00  0.00    +0.000 NA
ENDBRANCH  12  13
ENDBRANCH   9  12
ENDBRANCH   8   9
ENDBRANCH   1   8
BRANCH   4  19
ATOM     19  C   UNL     1      48.597   6.644  13.739  0.00  0.00    +0.000 C 
BRANCH  19  20
ATOM     20  N   UNL     1      48.345   6.655  15.158  0.00  0.00    +0.000 N 
ATOM     21  C   UNL     1      49.043   7.451  16.031  0.00  0.00    +0.000 C 
ATOM     22  O   UNL     1      49.873   8.273  15.660  0.00  0.00    +0.000 OA
ATOM     23  H   UNL     1      47.883   5.829  15.523  0.00  0.00    +0.000 HD
BRANCH  21  24
ATOM     24  C   UNL     1      48.669   7.314  17.445  0.00  0.00    +0.000 A 
ATOM     25  C   UNL     1      48.124   8.391  18.130  0.00  0.00    +0.000 A 
ATOM     26  S   UNL     1      47.692   8.026  19.739  0.00  0.00    +0.000 S 
ATOM     27  C   UNL     1      48.263   6.429  19.591  0.00  0.00    +0.000 A 
ATOM     28  N   UNL     1      48.205   5.559  20.636  0.00  0.00    +0.000 NA
ATOM     29  C   UNL     1      48.693   4.389  20.384  0.00  0.00    +0.000 A 
ATOM     30  N   UNL     1      49.233   4.009  19.184  0.00  0.00    +0.000 N 
ATOM     31  C   UNL     1      49.298   4.845  18.099  0.00  0.00    +0.000 A 
ATOM     32  O   UNL     1      49.752   4.465  17.025  0.00  0.00    +0.000 OA
ATOM     33  C   UNL     1      48.764   6.176  18.327  0.00  0.00    +0.000 A 
ATOM     34  H   UNL     1      49.586   3.072  19.045  0.00  0.00    +0.000 HD
ENDBRANCH  21  24
ENDBRANCH  19  20
ENDBRANCH   4  19
TORSDOF 7
ENDMDL
MODEL 4
REMARK VINA RESULT:    -7.284      4.307      9.485
REMARK INTER + INTRA:         -11.656
REMARK INTER:                 -10.328
REMARK INTRA:                  -1.328
REMARK UNBOUND:                -1.391
REMARK  Name = 
REMARK  8 active torsions:
REMARK  status: ('A' for Active; 'I' for Inactive)
REMARK    1  A    between atoms: C_1  and  C_2
REMARK    2  A    between atoms: C_2  and  N_3
REMARK    3  A    between atoms: C_2  and  C_26
REMARK    4  A    between atoms: N_3  and  C_4
REMARK    5  A    between atoms: C_4  and  C_5
REMARK    6  A    between atoms: C_8  and  C_9
REMARK    7  A    between atoms: C_9  and  N_10
REMARK    8  A    between atoms: C_11  and  C_13
REMARK                            x       y       z     vdW  Elec       q    Type
REMARK                         _______ _______ _______ _____ _____    ______ ____
ROOT
ATOM      1  C   UNL     1      51.096   4.155  18.460  0.00  0.00    +0.000 A 
ATOM      2  C   UNL     1      50.032   5.005  18.802  0.00  0.00    +0.000 A 
ATOM      3  C   UNL     1      48.737   4.755  18.337  0.00  0.00    +0.000 A 
ATOM      4  C   UNL     1      48.474   3.640  17.529  0.00  0.00    +0.000 A 
ATOM      5  C   UNL     1      49.539   2.805  17.186  0.00  0.00    +0.000 A 
ATOM      6  F   UNL     1      49.331   1.746  16.391  0.00  0.00    +0.000 F 
ATOM      7  C   UNL     1      50.834   3.049  17.644  0.00  0.00    +0.000 A 
ENDROOT
BRANCH   1   8
ATOM      8  C   UNL     1      52.505   4.466  18.912  0.00  0.00    +0.000 C 
BRANCH   8   9
ATOM      9  N   UNL     1      52.937   3.559  19.972  0.00  0.00    +0.000 NA
ATOM     10  H   UNL     1      52.335   2.732  19.952  0.00  0.00    +0.000 HD
BRANCH   9  12
ATOM     11  C   UNL     1      54.927   2.514  21.099  0.00  0.00    +0.000 C 
ATOM     12  C   UNL     1      54.329   3.092  19.809  0.00  0.00    +0.000 C 
BRANCH  12  13
ATOM     13  C   UNL     1      54.418   2.036  18.707  0.00  0.00    +0.000 A 
ATOM     14  C   UNL     1      55.212   2.253  17.579  0.00  0.00    +0.000 A 
ATOM     15  C   UNL     1      55.241   1.293  16.574  0.00  0.00    +0.000 A 
ATOM     16  C   UNL     1      54.486   0.138  16.719  0.00  0.00    +0.000 A 
ATOM     17  C   UNL     1      53.735  -0.011  17.872  0.00  0.00    +0.000 A 
ATOM     18  N   UNL     1      53.681   0.906  18.865  0.00  0.00    +0.000 NA
ENDBRANCH  12  13
ENDBRANCH   9  12
ENDBRANCH   8   9
ENDBRANCH   1   8
BRANCH   4  19
ATOM     19  C   UNL     1      47.085   3.385  17.014  0.00  0.00    +0.000 C 
BRANCH  19  20
ATOM     20  N   UNL     1      46.739   4.343  15.994  0.00  0.00    +0.000 N 
ATOM     21  C   UNL     1      46.964   4.121  14.659  0.00  0.00    +0.000 C 
ATOM     22  O   UNL     1      47.398   3.059  14.228  0.00  0.00    +0.000 OA
ATOM     23  H   UNL     1      46.641   5.301  16.314  0.00  0.00    +0.000 HD
BRANCH  21  24
ATOM     24  C   UNL     1      46.572   5.217  13.763  0.00  0.00    +0.000 A 
ATOM     25  C   UNL     1      47.433   6.285  13.549  0.00  0.00    +0.000 A 
ATOM     26  S   UNL     1      46.836   7.426  12.430  0.00  0.00    +0.000 S 
ATOM     27  C   UNL     1      45.385   6.557  12.230  0.00  0.00    +0.000 A 
ATOM     28  N   UNL     1      44.405   7.003  11.399  0.00  0.00    +0.000 NA
ATOM     29  C   UNL     1      43.353   6.253  11.363  0.00  0.00    +0.000 A 
ATOM     30  N   UNL     1      43.193   5.097  12.081  0.00  0.00    +0.000 N 
ATOM     31  C   UNL     1      44.159   4.600  12.917  0.00  0.00    +0.000 A 
ATOM     32  O   UNL     1      44.003   3.542  13.517  0.00  0.00    +0.000 OA
ATOM     33  C   UNL     1      45.364   5.406  12.997  0.00  0.00    +0.000 A 
ATOM     34  H   UNL     1      42.350   4.545  11.997  0.00  0.00    +0.000 HD
ENDBRANCH  21  24
ENDBRANCH  19  20
ENDBRANCH   4  19
TORSDOF 7
ENDMDL
MODEL 5
REMARK VINA RESULT:    -7.278      3.262      4.506
REMARK INTER + INTRA:         -11.648
REMARK INTER:                 -10.370
REMARK INTRA:                  -1.278
REMARK UNBOUND:                -1.391
REMARK  Name = 
REMARK  8 active torsions:
REMARK  status: ('A' for Active; 'I' for Inactive)
REMARK    1  A    between atoms: C_1  and  C_2
REMARK    2  A    between atoms: C_2  and  N_3
REMARK    3  A    between atoms: C_2  and  C_26
REMARK    4  A    between atoms: N_3  and  C_4
REMARK    5  A    between atoms: C_4  and  C_5
REMARK    6  A    between atoms: C_8  and  C_9
REMARK    7  A    between atoms: C_9  and  N_10
REMARK    8  A    between atoms: C_11  and  C_13
REMARK                            x       y       z     vdW  Elec       q    Type
REMARK                         _______ _______ _______ _____ _____    ______ ____
ROOT
ATOM      1  C   UNL     1      46.828   4.363  14.031  0.00  0.00    +0.000 A 
ATOM      2  C   UNL     1      47.510   5.583  13.904  0.00  0.00    +0.000 A 
ATOM      3  C   UNL     1      48.180   6.148  14.993  0.00  0.00    +0.000 A 
ATOM      4  C   UNL     1      48.196   5.497  16.234  0.00  0.00    +0.000 A 
ATOM      5  C   UNL     1      47.508   4.288  16.356  0.00  0.00    +0.000 A 
ATOM      6  F   UNL     1      47.476   3.650  17.535  0.00  0.00    +0.000 F 
ATOM      7  C   UNL     1      46.835   3.719  15.274  0.00  0.00    +0.000 A 
ENDROOT
BRANCH   1   8
ATOM      8  C   UNL     1      46.053   3.789  12.868  0.00  0.00    +0.000 C 
BRANCH   8   9
ATOM      9  N   UNL     1      44.624   4.064  12.992  0.00  0.00    +0.000 NA
ATOM     10  H   UNL     1      44.481   4.653  13.816  0.00  0.00    +0.000 HD
BRANCH   9  12
ATOM     11  C   UNL     1      44.442   6.279  11.814  0.00  0.00    +0.000 C 
ATOM     12  C   UNL     1      44.067   4.791  11.832  0.00  0.00    +0.000 C 
BRANCH  12  13
ATOM     13  C   UNL     1      44.528   4.150  10.522  0.00  0.00    +0.000 A 
ATOM     14  C   UNL     1      45.270   4.885   9.596  0.00  0.00    +0.000 A 
ATOM     15  C   UNL     1      45.640   4.290   8.396  0.00  0.00    +0.000 A 
ATOM     16  C   UNL     1      45.270   2.975   8.150  0.00  0.00    +0.000 A 
ATOM     17  C   UNL     1      44.547   2.307   9.123  0.00  0.00    +0.000 A 
ATOM     18  N   UNL     1      44.167   2.860  10.298  0.00  0.00    +0.000 NA
ENDBRANCH  12  13
ENDBRANCH   9  12
ENDBRANCH   8   9
ENDBRANCH   1   8
BRANCH   4  19
ATOM     19  C   UNL     1      48.900   6.116  17.409  0.00  0.00    +0.000 C 
BRANCH  19  20
ATOM     20  N   UNL     1      50.003   5.290  17.831  0.00  0.00    +0.000 N 
ATOM     21  C   UNL     1      51.250   5.368  17.264  0.00  0.00    +0.000 C 
ATOM     22  O   UNL     1      51.541   6.204  16.415  0.00  0.00    +0.000 OA
ATOM     23  H   UNL     1      49.745   4.435  18.312  0.00  0.00    +0.000 HD
BRANCH  21  24
ATOM     24  C   UNL     1      52.247   4.433  17.802  0.00  0.00    +0.000 A 
ATOM     25  C   UNL     1      53.396   4.915  18.413  0.00  0.00    +0.000 A 
ATOM     26  S   UNL     1      54.402   3.685  19.035  0.00  0.00    +0.000 S 
ATOM     27  C   UNL     1      53.360   2.464  18.465  0.00  0.00    +0.000 A 
ATOM     28  N   UNL     1      53.646   1.148  18.653  0.00  0.00    +0.000 NA
ATOM     29  C   UNL     1      52.777   0.335  18.150  0.00  0.00    +0.000 A 
ATOM     30  N   UNL     1      51.647   0.719  17.476  0.00  0.00    +0.000 N 
ATOM     31  C   UNL     1      51.309   2.032  17.277  0.00  0.00    +0.000 A 
ATOM     32  O   UNL     1      50.271   2.346  16.704  0.00  0.00    +0.000 OA
ATOM     33  C   UNL     1      52.254   2.990  17.822  0.00  0.00    +0.000 A 
ATOM     34  H   UNL     1      50.996   0.032  17.119  0.00  0.00    +0.000 HD
ENDBRANCH  21  24
ENDBRANCH  19  20
ENDBRANCH   4  19
TORSDOF 7
ENDMDL
MODEL 6
REMARK VINA RESULT:    -7.215      2.884      8.311
REMARK INTER + INTRA:         -11.559
REMARK INTER:                  -9.971
REMARK INTRA:                  -1.588
REMARK UNBOUND:                -1.391
REMARK  Name = 
REMARK  8 active torsions:
REMARK  status: ('A' for Active; 'I' for Inactive)
REMARK    1  A    between atoms: C_1  and  C_2
REMARK    2  A    between atoms: C_2  and  N_3
REMARK    3  A    between atoms: C_2  and  C_26
REMARK    4  A    between atoms: N_3  and  C_4
REMARK    5  A    between atoms: C_4  and  C_5
REMARK    6  A    between atoms: C_8  and  C_9
REMARK    7  A    between atoms: C_9  and  N_10
REMARK    8  A    between atoms: C_11  and  C_13
REMARK                            x       y       z     vdW  Elec       q    Type
REMARK                         _______ _______ _______ _____ _____    ______ ____
ROOT
ATOM      1  C   UNL     1      50.225   7.332  15.121  0.00  0.00    +0.000 A 
ATOM      2  C   UNL     1      48.924   6.809  15.182  0.00  0.00    +0.000 A 
ATOM      3  C   UNL     1      48.045   6.943  14.103  0.00  0.00    +0.000 A 
ATOM      4  C   UNL     1      48.453   7.593  12.930  0.00  0.00    +0.000 A 
ATOM      5  C   UNL     1      49.746   8.119  12.880  0.00  0.00    +0.000 A 
ATOM      6  F   UNL     1      50.162   8.773  11.786  0.00  0.00    +0.000 F 
ATOM      7  C   UNL     1      50.628   7.991  13.954  0.00  0.00    +0.000 A 
ENDROOT
BRANCH   1   8
ATOM      8  C   UNL     1      51.148   7.240  16.314  0.00  0.00    +0.000 C 
BRANCH   8   9
ATOM      9  N   UNL     1      51.569   5.864  16.558  0.00  0.00    +0.000 NA
ATOM     10  H   UNL     1      52.592   5.839  16.579  0.00  0.00    +0.000 HD
BRANCH   9  12
ATOM     11  C   UNL     1      50.835   6.418  18.899  0.00  0.00    +0.000 C 
ATOM     12  C   UNL     1      51.092   5.327  17.850  0.00  0.00    +0.000 C 
BRANCH  12  13
ATOM     13  C   UNL     1      49.810   4.517  17.656  0.00  0.00    +0.000 A 
ATOM     14  C   UNL     1      48.588   5.000  18.128  0.00  0.00    +0.000 A 
ATOM     15  C   UNL     1      47.445   4.224  17.974  0.00  0.00    +0.000 A 
ATOM     16  C   UNL     1      47.545   2.989  17.348  0.00  0.00    +0.000 A 
ATOM     17  C   UNL     1      48.789   2.585  16.894  0.00  0.00    +0.000 A 
ATOM     18  N   UNL     1      49.919   3.315  17.033  0.00  0.00    +0.000 NA
ENDBRANCH  12  13
ENDBRANCH   9  12
ENDBRANCH   8   9
ENDBRANCH   1   8
BRANCH   4  19
ATOM     19  C   UNL     1      47.500   7.754  11.779  0.00  0.00    +0.000 C 
BRANCH  19  20
ATOM     20  N   UNL     1      46.777   6.529  11.546  0.00  0.00    +0.000 N 
ATOM     21  C   UNL     1      45.406   6.462  11.556  0.00  0.00    +0.000 C 
ATOM     22  O   UNL     1      44.694   7.453  11.681  0.00  0.00    +0.000 OA
ATOM     23  H   UNL     1      47.302   5.677  11.708  0.00  0.00    +0.000 HD
BRANCH  21  24
ATOM     24  C   UNL     1      44.839   5.128  11.324  0.00  0.00    +0.000 A 
ATOM     25  C   UNL     1      44.090   4.507  12.315  0.00  0.00    +0.000 A 
ATOM     26  S   UNL     1      43.459   2.994  11.842  0.00  0.00    +0.000 S 
ATOM     27  C   UNL     1      44.206   3.094  10.315  0.00  0.00    +0.000 A 
ATOM     28  N   UNL     1      44.078   2.094   9.401  0.00  0.00    +0.000 NA
ATOM     29  C   UNL     1      44.715   2.299   8.295  0.00  0.00    +0.000 A 
ATOM     30  N   UNL     1      45.467   3.410   8.020  0.00  0.00    +0.000 N 
ATOM     31  C   UNL     1      45.610   4.450   8.903  0.00  0.00    +0.000 A 
ATOM     32  O   UNL     1      46.257   5.451   8.613  0.00  0.00    +0.000 OA
ATOM     33  C   UNL     1      44.915   4.272  10.165  0.00  0.00    +0.000 A 
ATOM     34  H   UNL     1      45.929   3.518   7.127  0.00  0.00    +0.000 HD
ENDBRANCH  21  24
ENDBRANCH  19  20
ENDBRANCH   4  19
TORSDOF 7
ENDMDL
MODEL 7
REMARK VINA RESULT:    -6.832      3.267      7.935
REMARK INTER + INTRA:         -11.019
REMARK INTER:                  -9.455
REMARK INTRA:                  -1.564
REMARK UNBOUND:                -1.391
REMARK  Name = 
REMARK  8 active torsions:
REMARK  status: ('A' for Active; 'I' for Inactive)
REMARK    1  A    between atoms: C_1  and  C_2
REMARK    2  A    between atoms: C_2  and  N_3
REMARK    3  A    between atoms: C_2  and  C_26
REMARK    4  A    between atoms: N_3  and  C_4
REMARK    5  A    between atoms: C_4  and  C_5
REMARK    6  A    between atoms: C_8  and  C_9
REMARK    7  A    between atoms: C_9  and  N_10
REMARK    8  A    between atoms: C_11  and  C_13
REMARK                            x       y       z     vdW  Elec       q    Type
REMARK                         _______ _______ _______ _____ _____    ______ ____
ROOT
ATOM      1  C   UNL     1      48.614   7.773  16.239  0.00  0.00    +0.000 A 
ATOM      2  C   UNL     1      48.666   6.628  15.427  0.00  0.00    +0.000 A 
ATOM      3  C   UNL     1      48.588   6.731  14.035  0.00  0.00    +0.000 A 
ATOM      4  C   UNL     1      48.470   7.985  13.420  0.00  0.00    +0.000 A 
ATOM      5  C   UNL     1      48.410   9.118  14.234  0.00  0.00    +0.000 A 
ATOM      6  F   UNL     1      48.268  10.333  13.683  0.00  0.00    +0.000 F 
ATOM      7  C   UNL     1      48.485   9.024  15.624  0.00  0.00    +0.000 A 
ENDROOT
BRANCH   1   8
ATOM      8  C   UNL     1      48.635   7.650  17.745  0.00  0.00    +0.000 C 
BRANCH   8   9
ATOM      9  N   UNL     1      49.737   6.806  18.197  0.00  0.00    +0.000 NA
ATOM     10  H   UNL     1      50.372   7.380  18.757  0.00  0.00    +0.000 HD
BRANCH   9  12
ATOM     11  C   UNL     1      47.939   5.921  19.717  0.00  0.00    +0.000 C 
ATOM     12  C   UNL     1      49.299   5.679  19.047  0.00  0.00    +0.000 C 
BRANCH  12  13
ATOM     13  C   UNL     1      49.226   4.387  18.233  0.00  0.00    +0.000 A 
ATOM     14  C   UNL     1      50.386   3.668  17.941  0.00  0.00    +0.000 A 
ATOM     15  C   UNL     1      50.295   2.518  17.164  0.00  0.00    +0.000 A 
ATOM     16  C   UNL     1      49.051   2.109  16.705  0.00  0.00    +0.000 A 
ATOM     17  C   UNL     1      47.945   2.867  17.049  0.00  0.00    +0.000 A 
ATOM     18  N   UNL     1      48.002   3.992  17.798  0.00  0.00    +0.000 NA
ENDBRANCH  12  13
ENDBRANCH   9  12
ENDBRANCH   8   9
ENDBRANCH   1   8
BRANCH   4  19
ATOM     19  C   UNL     1      48.366   8.092  11.925  0.00  0.00    +0.000 C 
BRANCH  19  20
ATOM     20  N   UNL     1      47.603   6.992  11.390  0.00  0.00    +0.000 N 
ATOM     21  C   UNL     1      46.232   7.000  11.325  0.00  0.00    +0.000 C 
ATOM     22  O   UNL     1      45.559   7.976  11.639  0.00  0.00    +0.000 OA
ATOM     23  H   UNL     1      48.081   6.097  11.380  0.00  0.00    +0.000 HD
BRANCH  21  24
ATOM     24  C   UNL     1      45.621   5.783  10.774  0.00  0.00    +0.000 A 
ATOM     25  C   UNL     1      45.759   5.483   9.426  0.00  0.00    +0.000 A 
ATOM     26  S   UNL     1      45.040   4.000   8.983  0.00  0.00    +0.000 S 
ATOM     27  C   UNL     1      44.476   3.733  10.567  0.00  0.00    +0.000 A 
ATOM     28  N   UNL     1      43.753   2.624  10.881  0.00  0.00    +0.000 NA
ATOM     29  C   UNL     1      43.376   2.565  12.115  0.00  0.00    +0.000 A 
ATOM     30  N   UNL     1      43.656   3.512  13.065  0.00  0.00    +0.000 N 
ATOM     31  C   UNL     1      44.395   4.636  12.799  0.00  0.00    +0.000 A 
ATOM     32  O   UNL     1      44.663   5.448  13.679  0.00  0.00    +0.000 OA
ATOM     33  C   UNL     1      44.844   4.755  11.424  0.00  0.00    +0.000 A 
ATOM     34  H   UNL     1      43.344   3.400  14.020  0.00  0.00    +0.000 HD
ENDBRANCH  21  24
ENDBRANCH  19  20
ENDBRANCH   4  19
TORSDOF 7
ENDMDL
MODEL 8
REMARK VINA RESULT:    -6.804      4.131      8.968
REMARK INTER + INTRA:         -10.980
REMARK INTER:                  -9.224
REMARK INTRA:                  -1.756
REMARK UNBOUND:                -1.391
REMARK  Name = 
REMARK  8 active torsions:
REMARK  status: ('A' for Active; 'I' for Inactive)
REMARK    1  A    between atoms: C_1  and  C_2
REMARK    2  A    between atoms: C_2  and  N_3
REMARK    3  A    between atoms: C_2  and  C_26
REMARK    4  A    between atoms: N_3  and  C_4
REMARK    5  A    between atoms: C_4  and  C_5
REMARK    6  A    between atoms: C_8  and  C_9
REMARK    7  A    between atoms: C_9  and  N_10
REMARK    8  A    between atoms: C_11  and  C_13
REMARK                            x       y       z     vdW  Elec       q    Type
REMARK                         _______ _______ _______ _____ _____    ______ ____
ROOT
ATOM      1  C   UNL     1      51.163   4.027  18.476  0.00  0.00    +0.000 A 
ATOM      2  C   UNL     1      50.110   4.858  18.892  0.00  0.00    +0.000 A 
ATOM      3  C   UNL     1      48.806   4.648  18.434  0.00  0.00    +0.000 A 
ATOM      4  C   UNL     1      48.521   3.592  17.557  0.00  0.00    +0.000 A 
ATOM      5  C   UNL     1      49.574   2.775  17.141  0.00  0.00    +0.000 A 
ATOM      6  F   UNL     1      49.346   1.773  16.280  0.00  0.00    +0.000 F 
ATOM      7  C   UNL     1      50.879   2.979  17.592  0.00  0.00    +0.000 A 
ENDROOT
BRANCH   1   8
ATOM      8  C   UNL     1      52.581   4.298  18.924  0.00  0.00    +0.000 C 
BRANCH   8   9
ATOM      9  N   UNL     1      52.841   5.730  19.035  0.00  0.00    +0.000 NA
ATOM     10  H   UNL     1      53.343   5.898  19.910  0.00  0.00    +0.000 HD
BRANCH   9  12
ATOM     11  C   UNL     1      54.306   5.156  17.074  0.00  0.00    +0.000 C 
ATOM     12  C   UNL     1      53.680   6.258  17.940  0.00  0.00    +0.000 C 
BRANCH  12  13
ATOM     13  C   UNL     1      52.868   7.191  17.041  0.00  0.00    +0.000 A 
ATOM     14  C   UNL     1      51.857   6.683  16.222  0.00  0.00    +0.000 A 
ATOM     15  C   UNL     1      51.163   7.549  15.385  0.00  0.00    +0.000 A 
ATOM     16  C   UNL     1      51.486   8.899  15.388  0.00  0.00    +0.000 A 
ATOM     17  C   UNL     1      52.491   9.328  16.238  0.00  0.00    +0.000 A 
ATOM     18  N   UNL     1      53.188   8.511  17.060  0.00  0.00    +0.000 NA
ENDBRANCH  12  13
ENDBRANCH   9  12
ENDBRANCH   8   9
ENDBRANCH   1   8
BRANCH   4  19
ATOM     19  C   UNL     1      47.122   3.381  17.051  0.00  0.00    +0.000 C 
BRANCH  19  20
ATOM     20  N   UNL     1      46.795   4.359  16.043  0.00  0.00    +0.000 N 
ATOM     21  C   UNL     1      46.988   4.138  14.703  0.00  0.00    +0.000 C 
ATOM     22  O   UNL     1      47.373   3.062  14.257  0.00  0.00    +0.000 OA
ATOM     23  H   UNL     1      46.740   5.317  16.371  0.00  0.00    +0.000 HD
BRANCH  21  24
ATOM     24  C   UNL     1      46.622   5.254  13.821  0.00  0.00    +0.000 A 
ATOM     25  C   UNL     1      47.499   6.315  13.640  0.00  0.00    +0.000 A 
ATOM     26  S   UNL     1      46.933   7.483  12.533  0.00  0.00    +0.000 S 
ATOM     27  C   UNL     1      45.475   6.636  12.295  0.00  0.00    +0.000 A 
ATOM     28  N   UNL     1      44.513   7.109  11.457  0.00  0.00    +0.000 NA
ATOM     29  C   UNL     1      43.454   6.372  11.391  0.00  0.00    +0.000 A 
ATOM     30  N   UNL     1      43.269   5.205  12.085  0.00  0.00    +0.000 N 
ATOM     31  C   UNL     1      44.216   4.681  12.927  0.00  0.00    +0.000 A 
ATOM     32  O   UNL     1      44.039   3.614  13.505  0.00  0.00    +0.000 OA
ATOM     33  C   UNL     1      45.429   5.472  13.040  0.00  0.00    +0.000 A 
ATOM     34  H   UNL     1      42.421   4.664  11.978  0.00  0.00    +0.000 HD
ENDBRANCH  21  24
ENDBRANCH  19  20
ENDBRANCH   4  19
TORSDOF 7
ENDMDL
