MODEL 1
REMARK VINA RESULT:    -6.951      0.000      0.000
REMARK INTER + INTRA:         -11.633
REMARK INTER:                 -10.812
REMARK INTRA:                  -0.821
REMARK UNBOUND:                -0.821
REMARK  Name = 
REMARK  11 active torsions:
REMARK  status: ('A' for Active; 'I' for Inactive)
REMARK    1  A    between atoms: C_1  and  N_2
REMARK    2  A    between atoms: N_2  and  C_3
REMARK    3  A    between atoms: C_3  and  C_4
REMARK    4  A    between atoms: C_4  and  C_5
REMARK    5  A    between atoms: C_5  and  N_6
REMARK    6  A    between atoms: N_6  and  C_7
REMARK    7  A    between atoms: C_7  and  C_8
REMARK    8  A    between atoms: C_11  and  C_12
REMARK    9  A    between atoms: C_12  and  N_13
REMARK   10  A    between atoms: CA_18  and  C_19
REMARK   11  A    between atoms: C_19  and  O_20
REMARK                            x       y       z     vdW  Elec       q    Type
REMARK                         _______ _______ _______ _____ _____    ______ ____
ROOT
ATOM      1  C   UNL     1      46.740   5.176  13.313  0.00  0.00    +0.000 A 
ATOM      2  C   UNL     1      46.261   6.077  12.347  0.00  0.00    +0.000 A 
ATOM      3  C   UNL     1      45.352   5.658  11.367  0.00  0.00    +0.000 A 
ATOM      4  C   UNL     1      44.911   4.331  11.325  0.00  0.00    +0.000 A 
ATOM      5  C   UNL     1      45.411   3.425  12.270  0.00  0.00    +0.000 A 
ATOM      6  C   UNL     1      46.308   3.845  13.263  0.00  0.00    +0.000 A 
ENDROOT
BRANCH   1   7
ATOM      7  C   UNL     1      47.707   5.643  14.372  0.00  0.00    +0.000 C 
BRANCH   7   8
ATOM      8  N   UNL     1      47.732   4.715  15.501  0.00  0.00    +0.000 NA
ATOM      9  H   UNL     1      46.792   4.615  15.878  0.00  0.00    +0.000 HD
BRANCH   8  10
ATOM     10  C   UNL     1      48.635   5.175  16.550  0.00  0.00    +0.000 C 
BRANCH  10  11
ATOM     11  C   UNL     1      48.929   4.018  17.503  0.00  0.00    +0.000 C 
BRANCH  11  12
ATOM     12  C   UNL     1      48.313   2.728  16.967  0.00  0.00    +0.000 C 
BRANCH  12  14
ATOM     13  C   UNL     1      50.585   1.960  17.030  0.00  0.00    +0.000 C 
ATOM     14  N   UNL     1      49.330   1.923  16.294  0.00  0.00    +0.000 NA
ATOM     15  H   UNL     1      49.008   0.958  16.214  0.00  0.00    +0.000 HD
ENDBRANCH  12  14
ENDBRANCH  11  12
ENDBRANCH  10  11
ENDBRANCH   8  10
ENDBRANCH   7   8
ENDBRANCH   1   7
BRANCH   4  16
ATOM     16  C   UNL     1      43.911   3.856  10.284  0.00  0.00    +0.000 C 
BRANCH  16  17
ATOM     17  N   UNL     1      44.272   4.346   8.977  0.00  0.00    +0.000 N 
ATOM     18  C   UNL     1      45.271   3.650   8.325  0.00  0.00    +0.000 A 
ATOM     19  N   UNL     1      46.025   4.388   7.504  0.00  0.00    +0.000 NA
ATOM     20  C   UNL     1      46.988   3.745   6.821  0.00  0.00    +0.000 A 
ATOM     21  C   UNL     1      47.232   2.396   6.941  0.00  0.00    +0.000 A 
ATOM     22  CA  UNL     1      46.405   1.713   7.817  0.00  0.00    +0.000 A 
ATOM     23  N   UNL     1      45.429   2.338   8.518  0.00  0.00    +0.000 NA
ATOM     24  H   UNL     1      44.577   5.319   8.966  0.00  0.00    +0.000 HD
BRANCH  22  25
ATOM     25  C   UNL     1      46.534   0.225   8.010  0.00  0.00    +0.000 C 
BRANCH  25  26
ATOM     26  O   UNL     1      46.753  -0.451   6.776  0.00  0.00    +0.000 OA
ATOM     27  H   UNL     1      46.815   0.243   6.092  0.00  0.00    +0.000 HD
ENDBRANCH  25  26
ENDBRANCH  22  25
ENDBRANCH  16  17
ENDBRANCH   4  16
TORSDOF 10
ENDMDL
MODEL 2
REMARK VINA RESULT:    -6.810      3.244      8.566
REMARK INTER + INTRA:         -11.413
REMARK INTER:                 -11.029
REMARK INTRA:                  -0.384
REMARK UNBOUND:                -0.821
REMARK  Name = 
REMARK  11 active torsions:
REMARK  status: ('A' for Active; 'I' for Inactive)
REMARK    1  A    between atoms: C_1  and  N_2
REMARK    2  A    between atoms: N_2  and  C_3
REMARK    3  A    between atoms: C_3  and  C_4
REMARK    4  A    between atoms: C_4  and  C_5
REMARK    5  A    between atoms: C_5  and  N_6
REMARK    6  A    between atoms: N_6  and  C_7
REMARK    7  A    between atoms: C_7  and  C_8
REMARK    8  A    between atoms: C_11  and  C_12
REMARK    9  A    between atoms: C_12  and  N_13
REMARK   10  A    between atoms: CA_18  and  C_19
REMARK   11  A    between atoms: C_19  and  O_20
REMARK                            x       y       z     vdW  Elec       q    Type
REMARK                         _______ _______ _______ _____ _____    ______ ____
ROOT
ATOM      1  C   UNL     1      44.906   4.459  10.851  0.00  0.00    +0.000 A 
ATOM      2  C   UNL     1      45.570   5.604  11.323  0.00  0.00    +0.000 A 
ATOM      3  C   UNL     1      46.219   5.593  12.564  0.00  0.00    +0.000 A 
ATOM      4  C   UNL     1      46.210   4.445  13.363  0.00  0.00    +0.000 A 
ATOM      5  C   UNL     1      45.522   3.312  12.906  0.00  0.00    +0.000 A 
ATOM      6  C   UNL     1      44.886   3.314  11.656  0.00  0.00    +0.000 A 
ENDROOT
BRANCH   1   7
ATOM      7  C   UNL     1      44.223   4.478   9.506  0.00  0.00    +0.000 C 
BRANCH   7   8
ATOM      8  N   UNL     1      45.182   4.755   8.439  0.00  0.00    +0.000 NA
ATOM      9  H   UNL     1      44.836   5.517   7.860  0.00  0.00    +0.000 HD
BRANCH   8  10
ATOM     10  C   UNL     1      45.413   3.577   7.610  0.00  0.00    +0.000 C 
BRANCH  10  11
ATOM     11  C   UNL     1      46.896   3.499   7.249  0.00  0.00    +0.000 C 
BRANCH  11  12
ATOM     12  C   UNL     1      47.094   2.587   6.042  0.00  0.00    +0.000 C 
BRANCH  12  14
ATOM     13  C   UNL     1      47.056   0.629   7.428  0.00  0.00    +0.000 C 
ATOM     14  N   UNL     1      47.812   1.376   6.435  0.00  0.00    +0.000 NA
ATOM     15  H   UNL     1      47.975   0.791   5.615  0.00  0.00    +0.000 HD
ENDBRANCH  12  14
ENDBRANCH  11  12
ENDBRANCH  10  11
ENDBRANCH   8  10
ENDBRANCH   7   8
ENDBRANCH   1   7
BRANCH   4  16
ATOM     16  C   UNL     1      46.922   4.402  14.704  0.00  0.00    +0.000 C 
BRANCH  16  17
ATOM     17  N   UNL     1      47.462   3.088  14.947  0.00  0.00    +0.000 N 
ATOM     18  C   UNL     1      48.311   2.975  16.031  0.00  0.00    +0.000 A 
ATOM     19  N   UNL     1      49.262   2.043  15.904  0.00  0.00    +0.000 NA
ATOM     20  C   UNL     1      50.090   1.874  16.949  0.00  0.00    +0.000 A 
ATOM     21  C   UNL     1      50.010   2.610  18.109  0.00  0.00    +0.000 A 
ATOM     22  CA  UNL     1      48.997   3.554  18.149  0.00  0.00    +0.000 A 
ATOM     23  N   UNL     1      48.152   3.746  17.109  0.00  0.00    +0.000 NA
ATOM     24  H   UNL     1      47.982   2.699  14.162  0.00  0.00    +0.000 HD
BRANCH  22  25
ATOM     25  C   UNL     1      48.769   4.399  19.376  0.00  0.00    +0.000 C 
BRANCH  25  26
ATOM     26  O   UNL     1      48.408   3.607  20.503  0.00  0.00    +0.000 OA
ATOM     27  H   UNL     1      47.844   4.172  21.063  0.00  0.00    +0.000 HD
ENDBRANCH  25  26
ENDBRANCH  22  25
ENDBRANCH  16  17
ENDBRANCH   4  16
TORSDOF 10
ENDMDL
MODEL 3
REMARK VINA RESULT:    -6.438      2.888      8.367
REMARK INTER + INTRA:         -10.834
REMARK INTER:                 -10.152
REMARK INTRA:                  -0.683
REMARK UNBOUND:                -0.821
REMARK  Name = 
REMARK  11 active torsions:
REMARK  status: ('A' for Active; 'I' for Inactive)
REMARK    1  A    between atoms: C_1  and  N_2
REMARK    2  A    between atoms: N_2  and  C_3
REMARK    3  A    between atoms: C_3  and  C_4
REMARK    4  A    between atoms: C_4  and  C_5
REMARK    5  A    between atoms: C_5  and  N_6
REMARK    6  A    between atoms: N_6  and  C_7
REMARK    7  A    between atoms: C_7  and  C_8
REMARK    8  A    between atoms: C_11  and  C_12
REMARK    9  A    between atoms: C_12  and  N_13
REMARK   10  A    between atoms: CA_18  and  C_19
REMARK   11  A    between atoms: C_19  and  O_20
REMARK                            x       y       z     vdW  Elec       q    Type
REMARK                         _______ _______ _______ _____ _____    ______ ____
ROOT
ATOM      1  C   UNL     1      44.768   4.457  10.421  0.00  0.00    +0.000 A 
ATOM      2  C   UNL     1      45.369   5.713  10.610  0.00  0.00    +0.000 A 
ATOM      3  C   UNL     1      46.115   5.981  11.765  0.00  0.00    +0.000 A 
ATOM      4  C   UNL     1      46.268   5.007  12.757  0.00  0.00    +0.000 A 
ATOM      5  C   UNL     1      45.644   3.765  12.582  0.00  0.00    +0.000 A 
ATOM      6  C   UNL     1      44.911   3.487  11.420  0.00  0.00    +0.000 A 
ENDROOT
BRANCH   1   7
ATOM      7  C   UNL     1      43.979   4.176   9.167  0.00  0.00    +0.000 C 
BRANCH   7   8
ATOM      8  N   UNL     1      44.585   3.088   8.402  0.00  0.00    +0.000 NA
ATOM      9  H   UNL     1      45.211   2.558   9.005  0.00  0.00    +0.000 HD
BRANCH   8  10
ATOM     10  C   UNL     1      45.324   3.592   7.250  0.00  0.00    +0.000 C 
BRANCH  10  11
ATOM     11  C   UNL     1      46.799   3.225   7.398  0.00  0.00    +0.000 C 
BRANCH  11  12
ATOM     12  C   UNL     1      47.173   2.143   6.388  0.00  0.00    +0.000 C 
BRANCH  12  14
ATOM     13  C   UNL     1      46.787   0.150   7.668  0.00  0.00    +0.000 C 
ATOM     14  N   UNL     1      47.797   1.010   7.069  0.00  0.00    +0.000 NA
ATOM     15  H   UNL     1      48.354   0.473   6.404  0.00  0.00    +0.000 HD
ENDBRANCH  12  14
ENDBRANCH  11  12
ENDBRANCH  10  11
ENDBRANCH   8  10
ENDBRANCH   7   8
ENDBRANCH   1   7
BRANCH   4  16
ATOM     16  C   UNL     1      47.088   5.267  14.009  0.00  0.00    +0.000 C 
BRANCH  16  17
ATOM     17  N   UNL     1      46.465   4.658  15.157  0.00  0.00    +0.000 N 
ATOM     18  C   UNL     1      47.313   4.295  16.184  0.00  0.00    +0.000 A 
ATOM     19  N   UNL     1      46.916   3.231  16.891  0.00  0.00    +0.000 NA
ATOM     20  C   UNL     1      47.694   2.863  17.923  0.00  0.00    +0.000 A 
ATOM     21  C   UNL     1      48.859   3.511  18.265  0.00  0.00    +0.000 A 
ATOM     22  CA  UNL     1      49.193   4.598  17.475  0.00  0.00    +0.000 A 
ATOM     23  N   UNL     1      48.428   4.988  16.428  0.00  0.00    +0.000 NA
ATOM     24  H   UNL     1      45.932   3.815  14.944  0.00  0.00    +0.000 HD
BRANCH  22  25
ATOM     25  C   UNL     1      50.420   5.424  17.766  0.00  0.00    +0.000 C 
BRANCH  25  26
ATOM     26  O   UNL     1      51.432   5.229  16.783  0.00  0.00    +0.000 OA
ATOM     27  H   UNL     1      50.984   5.275  15.918  0.00  0.00    +0.000 HD
ENDBRANCH  25  26
ENDBRANCH  22  25
ENDBRANCH  16  17
ENDBRANCH   4  16
TORSDOF 10
ENDMDL
MODEL 4
REMARK VINA RESULT:    -6.090      1.945      3.241
REMARK INTER + INTRA:         -10.294
REMARK INTER:                  -9.396
REMARK INTRA:                  -0.897
REMARK UNBOUND:                -0.821
REMARK  Name = 
REMARK  11 active torsions:
REMARK  status: ('A' for Active; 'I' for Inactive)
REMARK    1  A    between atoms: C_1  and  N_2
REMARK    2  A    between atoms: N_2  and  C_3
REMARK    3  A    between atoms: C_3  and  C_4
REMARK    4  A    between atoms: C_4  and  C_5
REMARK    5  A    between atoms: C_5  and  N_6
REMARK    6  A    between atoms: N_6  and  C_7
REMARK    7  A    between atoms: C_7  and  C_8
REMARK    8  A    between atoms: C_11  and  C_12
REMARK    9  A    between atoms: C_12  and  N_13
REMARK   10  A    between atoms: CA_18  and  C_19
REMARK   11  A    between atoms: C_19  and  O_20
REMARK                            x       y       z     vdW  Elec       q    Type
REMARK                         _______ _______ _______ _____ _____    ______ ____
ROOT
ATOM      1  C   UNL     1      46.608   4.933  13.730  0.00  0.00    +0.000 A 
ATOM      2  C   UNL     1      46.367   3.603  13.345  0.00  0.00    +0.000 A 
ATOM      3  C   UNL     1      45.443   3.308  12.335  0.00  0.00    +0.000 A 
ATOM      4  C   UNL     1      44.735   4.331  11.696  0.00  0.00    +0.000 A 
ATOM      5  C   UNL     1      44.954   5.656  12.100  0.00  0.00    +0.000 A 
ATOM      6  C   UNL     1      45.890   5.955  13.100  0.00  0.00    +0.000 A 
ENDROOT
BRANCH   1   7
ATOM      7  C   UNL     1      47.617   5.239  14.810  0.00  0.00    +0.000 C 
BRANCH   7   8
ATOM      8  N   UNL     1      47.845   6.678  14.918  0.00  0.00    +0.000 NA
ATOM      9  H   UNL     1      47.695   7.114  14.011  0.00  0.00    +0.000 HD
BRANCH   8  10
ATOM     10  C   UNL     1      49.194   6.971  15.387  0.00  0.00    +0.000 C 
BRANCH  10  11
ATOM     11  C   UNL     1      49.917   7.817  14.341  0.00  0.00    +0.000 C 
BRANCH  11  12
ATOM     12  C   UNL     1      48.929   8.753  13.650  0.00  0.00    +0.000 C 
BRANCH  12  14
ATOM     13  C   UNL     1      48.755   7.710  11.495  0.00  0.00    +0.000 C 
ATOM     14  N   UNL     1      49.249   8.867  12.228  0.00  0.00    +0.000 NA
ATOM     15  H   UNL     1      48.833   9.717  11.848  0.00  0.00    +0.000 HD
ENDBRANCH  12  14
ENDBRANCH  11  12
ENDBRANCH  10  11
ENDBRANCH   8  10
ENDBRANCH   7   8
ENDBRANCH   1   7
BRANCH   4  16
ATOM     16  C   UNL     1      43.742   4.039  10.584  0.00  0.00    +0.000 C 
BRANCH  16  17
ATOM     17  N   UNL     1      44.185   4.625   9.344  0.00  0.00    +0.000 N 
ATOM     18  C   UNL     1      45.151   3.920   8.653  0.00  0.00    +0.000 A 
ATOM     19  N   UNL     1      45.988   4.673   7.932  0.00  0.00    +0.000 NA
ATOM     20  C   UNL     1      46.923   4.027   7.216  0.00  0.00    +0.000 A 
ATOM     21  C   UNL     1      47.061   2.658   7.206  0.00  0.00    +0.000 A 
ATOM     22  CA  UNL     1      46.153   1.959   7.985  0.00  0.00    +0.000 A 
ATOM     23  N   UNL     1      45.203   2.587   8.718  0.00  0.00    +0.000 NA
ATOM     24  H   UNL     1      44.562   5.567   9.439  0.00  0.00    +0.000 HD
BRANCH  22  25
ATOM     25  C   UNL     1      46.163   0.454   8.031  0.00  0.00    +0.000 C 
BRANCH  25  26
ATOM     26  O   UNL     1      47.461  -0.074   7.776  0.00  0.00    +0.000 OA
ATOM     27  H   UNL     1      47.996   0.669   7.439  0.00  0.00    +0.000 HD
ENDBRANCH  25  26
ENDBRANCH  22  25
ENDBRANCH  16  17
ENDBRANCH   4  16
TORSDOF 10
ENDMDL
MODEL 5
REMARK VINA RESULT:    -5.997      2.564      8.311
REMARK INTER + INTRA:         -10.149
REMARK INTER:                  -9.369
REMARK INTRA:                  -0.780
REMARK UNBOUND:                -0.821
REMARK  Name = 
REMARK  11 active torsions:
REMARK  status: ('A' for Active; 'I' for Inactive)
REMARK    1  A    between atoms: C_1  and  N_2
REMARK    2  A    between atoms: N_2  and  C_3
REMARK    3  A    between atoms: C_3  and  C_4
REMARK    4  A    between atoms: C_4  and  C_5
REMARK    5  A    between atoms: C_5  and  N_6
REMARK    6  A    between atoms: N_6  and  C_7
REMARK    7  A    between atoms: C_7  and  C_8
REMARK    8  A    between atoms: C_11  and  C_12
REMARK    9  A    between atoms: C_12  and  N_13
REMARK   10  A    between atoms: CA_18  and  C_19
REMARK   11  A    between atoms: C_19  and  O_20
REMARK                            x       y       z     vdW  Elec       q    Type
REMARK                         _______ _______ _______ _____ _____    ______ ____
ROOT
ATOM      1  C   UNL     1      45.603   6.404  12.366  0.00  0.00    +0.000 A 
ATOM      2  C   UNL     1      46.193   5.277  12.964  0.00  0.00    +0.000 A 
ATOM      3  C   UNL     1      47.328   5.410  13.774  0.00  0.00    +0.000 A 
ATOM      4  C   UNL     1      47.902   6.665  13.996  0.00  0.00    +0.000 A 
ATOM      5  C   UNL     1      47.332   7.786  13.376  0.00  0.00    +0.000 A 
ATOM      6  C   UNL     1      46.186   7.658  12.578  0.00  0.00    +0.000 A 
ENDROOT
BRANCH   1   7
ATOM      7  C   UNL     1      44.373   6.250  11.507  0.00  0.00    +0.000 C 
BRANCH   7   8
ATOM      8  N   UNL     1      44.689   5.550  10.264  0.00  0.00    +0.000 NA
ATOM      9  H   UNL     1      44.538   6.175   9.475  0.00  0.00    +0.000 HD
BRANCH   8  10
ATOM     10  C   UNL     1      43.874   4.352  10.103  0.00  0.00    +0.000 C 
BRANCH  10  11
ATOM     11  C   UNL     1      44.731   3.236   9.508  0.00  0.00    +0.000 C 
BRANCH  11  12
ATOM     12  C   UNL     1      44.863   3.425   7.999  0.00  0.00    +0.000 C 
BRANCH  12  14
ATOM     13  C   UNL     1      47.060   3.355   7.037  0.00  0.00    +0.000 C 
ATOM     14  N   UNL     1      46.066   4.194   7.689  0.00  0.00    +0.000 NA
ATOM     15  H   UNL     1      45.827   4.978   7.081  0.00  0.00    +0.000 HD
ENDBRANCH  12  14
ENDBRANCH  11  12
ENDBRANCH  10  11
ENDBRANCH   8  10
ENDBRANCH   7   8
ENDBRANCH   1   7
BRANCH   4  16
ATOM     16  C   UNL     1      49.121   6.838  14.886  0.00  0.00    +0.000 C 
BRANCH  16  17
ATOM     17  N   UNL     1      48.725   6.958  16.267  0.00  0.00    +0.000 N 
ATOM     18  C   UNL     1      48.626   5.775  16.973  0.00  0.00    +0.000 A 
ATOM     19  N   UNL     1      47.708   5.778  17.946  0.00  0.00    +0.000 NA
ATOM     20  C   UNL     1      47.600   4.658  18.682  0.00  0.00    +0.000 A 
ATOM     21  C   UNL     1      48.365   3.534  18.471  0.00  0.00    +0.000 A 
ATOM     22  CA  UNL     1      49.286   3.621  17.440  0.00  0.00    +0.000 A 
ATOM     23  N   UNL     1      49.412   4.736  16.682  0.00  0.00    +0.000 NA
ATOM     24  H   UNL     1      47.830   7.425  16.405  0.00  0.00    +0.000 HD
BRANCH  22  25
ATOM     25  C   UNL     1      50.217   2.478  17.130  0.00  0.00    +0.000 C 
BRANCH  25  26
ATOM     26  O   UNL     1      49.759   1.708  16.023  0.00  0.00    +0.000 OA
ATOM     27  H   UNL     1      49.398   2.346  15.378  0.00  0.00    +0.000 HD
ENDBRANCH  25  26
ENDBRANCH  22  25
ENDBRANCH  16  17
ENDBRANCH   4  16
TORSDOF 10
ENDMDL
MODEL 6
REMARK VINA RESULT:    -5.966      3.256      8.190
REMARK INTER + INTRA:         -10.100
REMARK INTER:                  -9.497
REMARK INTRA:                  -0.603
REMARK UNBOUND:                -0.821
REMARK  Name = 
REMARK  11 active torsions:
REMARK  status: ('A' for Active; 'I' for Inactive)
REMARK    1  A    between atoms: C_1  and  N_2
REMARK    2  A    between atoms: N_2  and  C_3
REMARK    3  A    between atoms: C_3  and  C_4
REMARK    4  A    between atoms: C_4  and  C_5
REMARK    5  A    between atoms: C_5  and  N_6
REMARK    6  A    between atoms: N_6  and  C_7
REMARK    7  A    between atoms: C_7  and  C_8
REMARK    8  A    between atoms: C_11  and  C_12
REMARK    9  A    between atoms: C_12  and  N_13
REMARK   10  A    between atoms: CA_18  and  C_19
REMARK   11  A    between atoms: C_19  and  O_20
REMARK                            x       y       z     vdW  Elec       q    Type
REMARK                         _______ _______ _______ _____ _____    ______ ____
ROOT
ATOM      1  C   UNL     1      44.972   4.790  11.192  0.00  0.00    +0.000 A 
ATOM      2  C   UNL     1      45.674   5.881  10.653  0.00  0.00    +0.000 A 
ATOM      3  C   UNL     1      46.384   6.755  11.485  0.00  0.00    +0.000 A 
ATOM      4  C   UNL     1      46.401   6.565  12.871  0.00  0.00    +0.000 A 
ATOM      5  C   UNL     1      45.677   5.494  13.412  0.00  0.00    +0.000 A 
ATOM      6  C   UNL     1      44.979   4.607  12.580  0.00  0.00    +0.000 A 
ENDROOT
BRANCH   1   7
ATOM      7  C   UNL     1      44.223   3.847  10.284  0.00  0.00    +0.000 C 
BRANCH   7   8
ATOM      8  N   UNL     1      44.830   2.518  10.297  0.00  0.00    +0.000 NA
ATOM      9  H   UNL     1      45.633   2.518  10.923  0.00  0.00    +0.000 HD
BRANCH   8  10
ATOM     10  C   UNL     1      45.250   2.109   8.961  0.00  0.00    +0.000 C 
BRANCH  10  11
ATOM     11  C   UNL     1      45.040   3.270   7.991  0.00  0.00    +0.000 C 
BRANCH  11  12
ATOM     12  C   UNL     1      46.299   3.489   7.156  0.00  0.00    +0.000 C 
BRANCH  12  14
ATOM     13  C   UNL     1      47.982   2.202   6.031  0.00  0.00    +0.000 C 
ATOM     14  N   UNL     1      47.166   2.315   7.230  0.00  0.00    +0.000 NA
ATOM     15  H   UNL     1      47.768   2.383   8.051  0.00  0.00    +0.000 HD
ENDBRANCH  12  14
ENDBRANCH  11  12
ENDBRANCH  10  11
ENDBRANCH   8  10
ENDBRANCH   7   8
ENDBRANCH   1   7
BRANCH   4  16
ATOM     16  C   UNL     1      47.180   7.488  13.793  0.00  0.00    +0.000 C 
BRANCH  16  17
ATOM     17  N   UNL     1      48.550   7.053  13.904  0.00  0.00    +0.000 N 
ATOM     18  C   UNL     1      48.911   6.497  15.115  0.00  0.00    +0.000 A 
ATOM     19  N   UNL     1      50.189   6.686  15.460  0.00  0.00    +0.000 NA
ATOM     20  C   UNL     1      50.594   6.133  16.616  0.00  0.00    +0.000 A 
ATOM     21  C   UNL     1      49.765   5.412  17.445  0.00  0.00    +0.000 A 
ATOM     22  CA  UNL     1      48.458   5.272  17.009  0.00  0.00    +0.000 A 
ATOM     23  N   UNL     1      48.024   5.821  15.850  0.00  0.00    +0.000 NA
ATOM     24  H   UNL     1      49.236   7.787  13.734  0.00  0.00    +0.000 HD
BRANCH  22  25
ATOM     25  C   UNL     1      47.457   4.469  17.798  0.00  0.00    +0.000 C 
BRANCH  25  26
ATOM     26  O   UNL     1      46.520   5.306  18.469  0.00  0.00    +0.000 OA
ATOM     27  H   UNL     1      46.125   4.761  19.175  0.00  0.00    +0.000 HD
ENDBRANCH  25  26
ENDBRANCH  22  25
ENDBRANCH  16  17
ENDBRANCH   4  16
TORSDOF 10
ENDMDL
MODEL 7
REMARK VINA RESULT:    -5.891      3.098      8.442
REMARK INTER + INTRA:          -9.984
REMARK INTER:                  -9.416
REMARK INTRA:                  -0.568
REMARK UNBOUND:                -0.821
REMARK  Name = 
REMARK  11 active torsions:
REMARK  status: ('A' for Active; 'I' for Inactive)
REMARK    1  A    between atoms: C_1  and  N_2
REMARK    2  A    between atoms: N_2  and  C_3
REMARK    3  A    between atoms: C_3  and  C_4
REMARK    4  A    between atoms: C_4  and  C_5
REMARK    5  A    between atoms: C_5  and  N_6
REMARK    6  A    between atoms: N_6  and  C_7
REMARK    7  A    between atoms: C_7  and  C_8
REMARK    8  A    between atoms: C_11  and  C_12
REMARK    9  A    between atoms: C_12  and  N_13
REMARK   10  A    between atoms: CA_18  and  C_19
REMARK   11  A    between atoms: C_19  and  O_20
REMARK                            x       y       z     vdW  Elec       q    Type
REMARK                         _______ _______ _______ _____ _____    ______ ____
ROOT
ATOM      1  C   UNL     1      44.787   5.029  11.497  0.00  0.00    +0.000 A 
ATOM      2  C   UNL     1      45.134   4.284  12.637  0.00  0.00    +0.000 A 
ATOM      3  C   UNL     1      46.172   4.706  13.477  0.00  0.00    +0.000 A 
ATOM      4  C   UNL     1      46.890   5.872  13.193  0.00  0.00    +0.000 A 
ATOM      5  C   UNL     1      46.564   6.600  12.040  0.00  0.00    +0.000 A 
ATOM      6  C   UNL     1      45.514   6.189  11.206  0.00  0.00    +0.000 A 
ENDROOT
BRANCH   1   7
ATOM      7  C   UNL     1      43.658   4.573  10.607  0.00  0.00    +0.000 C 
BRANCH   7   8
ATOM      8  N   UNL     1      44.107   3.528   9.690  0.00  0.00    +0.000 NA
ATOM      9  H   UNL     1      44.791   2.937  10.157  0.00  0.00    +0.000 HD
BRANCH   8  10
ATOM     10  C   UNL     1      44.692   4.094   8.480  0.00  0.00    +0.000 C 
BRANCH  10  11
ATOM     11  C   UNL     1      45.588   3.049   7.818  0.00  0.00    +0.000 C 
BRANCH  11  12
ATOM     12  C   UNL     1      45.694   1.812   8.706  0.00  0.00    +0.000 C 
BRANCH  12  14
ATOM     13  C   UNL     1      47.447   1.329   7.139  0.00  0.00    +0.000 C 
ATOM     14  N   UNL     1      46.436   0.757   8.018  0.00  0.00    +0.000 NA
ATOM     15  H   UNL     1      46.883   0.147   8.703  0.00  0.00    +0.000 HD
ENDBRANCH  12  14
ENDBRANCH  11  12
ENDBRANCH  10  11
ENDBRANCH   8  10
ENDBRANCH   7   8
ENDBRANCH   1   7
BRANCH   4  16
ATOM     16  C   UNL     1      48.008   6.361  14.099  0.00  0.00    +0.000 C 
BRANCH  16  17
ATOM     17  N   UNL     1      47.831   5.852  15.437  0.00  0.00    +0.000 N 
ATOM     18  C   UNL     1      48.990   5.576  16.136  0.00  0.00    +0.000 A 
ATOM     19  N   UNL     1      48.888   4.578  17.019  0.00  0.00    +0.000 NA
ATOM     20  C   UNL     1      49.982   4.297  17.748  0.00  0.00    +0.000 A 
ATOM     21  C   UNL     1      51.176   4.968  17.614  0.00  0.00    +0.000 A 
ATOM     22  CA  UNL     1      51.190   5.984  16.673  0.00  0.00    +0.000 A 
ATOM     23  N   UNL     1      50.102   6.285  15.925  0.00  0.00    +0.000 NA
ATOM     24  H   UNL     1      47.281   4.996  15.489  0.00  0.00    +0.000 HD
BRANCH  22  25
ATOM     25  C   UNL     1      52.419   6.827  16.456  0.00  0.00    +0.000 C 
BRANCH  25  26
ATOM     26  O   UNL     1      52.534   7.256  15.103  0.00  0.00    +0.000 OA
ATOM     27  H   UNL     1      53.085   6.588  14.652  0.00  0.00    +0.000 HD
ENDBRANCH  25  26
ENDBRANCH  22  25
ENDBRANCH  16  17
ENDBRANCH   4  16
TORSDOF 10
ENDMDL
MODEL 8
REMARK VINA RESULT:    -5.850      3.279      7.986
REMARK INTER + INTRA:          -9.920
REMARK INTER:                  -8.799
REMARK INTRA:                  -1.121
REMARK UNBOUND:                -0.821
REMARK  Name = 
REMARK  11 active torsions:
REMARK  status: ('A' for Active; 'I' for Inactive)
REMARK    1  A    between atoms: C_1  and  N_2
REMARK    2  A    between atoms: N_2  and  C_3
REMARK    3  A    between atoms: C_3  and  C_4
REMARK    4  A    between atoms: C_4  and  C_5
REMARK    5  A    between atoms: C_5  and  N_6
REMARK    6  A    between atoms: N_6  and  C_7
REMARK    7  A    between atoms: C_7  and  C_8
REMARK    8  A    between atoms: C_11  and  C_12
REMARK    9  A    between atoms: C_12  and  N_13
REMARK   10  A    between atoms: CA_18  and  C_19
REMARK   11  A    between atoms: C_19  and  O_20
REMARK                            x       y       z     vdW  Elec       q    Type
REMARK                         _______ _______ _______ _____ _____    ______ ____
ROOT
ATOM      1  C   UNL     1      46.071   7.455  12.375  0.00  0.00    +0.000 A 
ATOM      2  C   UNL     1      46.473   8.504  13.220  0.00  0.00    +0.000 A 
ATOM      3  C   UNL     1      47.597   8.367  14.044  0.00  0.00    +0.000 A 
ATOM      4  C   UNL     1      48.336   7.179  14.049  0.00  0.00    +0.000 A 
ATOM      5  C   UNL     1      47.919   6.123  13.229  0.00  0.00    +0.000 A 
ATOM      6  C   UNL     1      46.804   6.263  12.390  0.00  0.00    +0.000 A 
ENDROOT
BRANCH   1   7
ATOM      7  C   UNL     1      44.867   7.620  11.481  0.00  0.00    +0.000 C 
BRANCH   7   8
ATOM      8  N   UNL     1      44.448   6.334  10.928  0.00  0.00    +0.000 NA
ATOM      9  H   UNL     1      44.456   6.383   9.911  0.00  0.00    +0.000 HD
BRANCH   8  10
ATOM     10  C   UNL     1      43.116   5.962  11.390  0.00  0.00    +0.000 C 
BRANCH  10  11
ATOM     11  C   UNL     1      43.241   5.110  12.652  0.00  0.00    +0.000 C 
BRANCH  11  12
ATOM     12  C   UNL     1      43.395   3.639  12.278  0.00  0.00    +0.000 C 
BRANCH  12  14
ATOM     13  C   UNL     1      44.267   2.780  10.214  0.00  0.00    +0.000 C 
ATOM     14  N   UNL     1      44.595   3.446  11.466  0.00  0.00    +0.000 NA
ATOM     15  H   UNL     1      45.028   4.349  11.271  0.00  0.00    +0.000 HD
ENDBRANCH  12  14
ENDBRANCH  11  12
ENDBRANCH  10  11
ENDBRANCH   8  10
ENDBRANCH   7   8
ENDBRANCH   1   7
BRANCH   4  16
ATOM     16  C   UNL     1      49.570   7.013  14.920  0.00  0.00    +0.000 C 
BRANCH  16  17
ATOM     17  N   UNL     1      49.229   7.160  16.313  0.00  0.00    +0.000 N 
ATOM     18  C   UNL     1      48.980   5.988  17.000  0.00  0.00    +0.000 A 
ATOM     19  N   UNL     1      48.096   6.099  17.998  0.00  0.00    +0.000 NA
ATOM     20  C   UNL     1      47.849   4.991  18.717  0.00  0.00    +0.000 A 
ATOM     21  C   UNL     1      48.443   3.775  18.467  0.00  0.00    +0.000 A 
ATOM     22  CA  UNL     1      49.341   3.753  17.413  0.00  0.00    +0.000 A 
ATOM     23  N   UNL     1      49.605   4.855  16.671  0.00  0.00    +0.000 NA
ATOM     24  H   UNL     1      48.412   7.745  16.483  0.00  0.00    +0.000 HD
BRANCH  22  25
ATOM     25  C   UNL     1      50.094   2.498  17.058  0.00  0.00    +0.000 C 
BRANCH  25  26
ATOM     26  O   UNL     1      49.453   1.775  16.012  0.00  0.00    +0.000 OA
ATOM     27  H   UNL     1      49.901   2.037  15.186  0.00  0.00    +0.000 HD
ENDBRANCH  25  26
ENDBRANCH  22  25
ENDBRANCH  16  17
ENDBRANCH   4  16
TORSDOF 10
ENDMDL
MODEL 9
REMARK VINA RESULT:    -5.540      3.078      8.476
REMARK INTER + INTRA:          -9.438
REMARK INTER:                  -9.024
REMARK INTRA:                  -0.413
REMARK UNBOUND:                -0.821
REMARK  Name = 
REMARK  11 active torsions:
REMARK  status: ('A' for Active; 'I' for Inactive)
REMARK    1  A    between atoms: C_1  and  N_2
REMARK    2  A    between atoms: N_2  and  C_3
REMARK    3  A    between atoms: C_3  and  C_4
REMARK    4  A    between atoms: C_4  and  C_5
REMARK    5  A    between atoms: C_5  and  N_6
REMARK    6  A    between atoms: N_6  and  C_7
REMARK    7  A    between atoms: C_7  and  C_8
REMARK    8  A    between atoms: C_11  and  C_12
REMARK    9  A    between atoms: C_12  and  N_13
REMARK   10  A    between atoms: CA_18  and  C_19
REMARK   11  A    between atoms: C_19  and  O_20
REMARK                            x       y       z     vdW  Elec       q    Type
REMARK                         _______ _______ _______ _____ _____    ______ ____
ROOT
ATOM      1  C   UNL     1      44.499   4.327  11.512  0.00  0.00    +0.000 A 
ATOM      2  C   UNL     1      45.224   3.213  11.969  0.00  0.00    +0.000 A 
ATOM      3  C   UNL     1      46.075   3.320  13.076  0.00  0.00    +0.000 A 
ATOM      4  C   UNL     1      46.227   4.540  13.744  0.00  0.00    +0.000 A 
ATOM      5  C   UNL     1      45.526   5.658  13.270  0.00  0.00    +0.000 A 
ATOM      6  C   UNL     1      44.661   5.550  12.172  0.00  0.00    +0.000 A 
ENDROOT
BRANCH   1   7
ATOM      7  C   UNL     1      43.575   4.195  10.327  0.00  0.00    +0.000 C 
BRANCH   7   8
ATOM      8  N   UNL     1      44.162   4.808   9.138  0.00  0.00    +0.000 NA
ATOM      9  H   UNL     1      43.592   4.584   8.324  0.00  0.00    +0.000 HD
BRANCH   8  10
ATOM     10  C   UNL     1      45.529   4.351   8.920  0.00  0.00    +0.000 C 
BRANCH  10  11
ATOM     11  C   UNL     1      45.540   3.315   7.797  0.00  0.00    +0.000 C 
BRANCH  11  12
ATOM     12  C   UNL     1      45.897   1.940   8.356  0.00  0.00    +0.000 C 
BRANCH  12  14
ATOM     13  C   UNL     1      47.174   2.076   6.329  0.00  0.00    +0.000 C 
ATOM     14  N   UNL     1      46.962   1.332   7.562  0.00  0.00    +0.000 NA
ATOM     15  H   UNL     1      47.827   1.313   8.103  0.00  0.00    +0.000 HD
ENDBRANCH  12  14
ENDBRANCH  11  12
ENDBRANCH  10  11
ENDBRANCH   8  10
ENDBRANCH   7   8
ENDBRANCH   1   7
BRANCH   4  16
ATOM     16  C   UNL     1      47.129   4.678  14.958  0.00  0.00    +0.000 C 
BRANCH  16  17
ATOM     17  N   UNL     1      47.813   5.946  14.938  0.00  0.00    +0.000 N 
ATOM     18  C   UNL     1      48.677   6.183  15.989  0.00  0.00    +0.000 A 
ATOM     19  N   UNL     1      48.799   7.469  16.336  0.00  0.00    +0.000 NA
ATOM     20  C   UNL     1      49.656   7.751  17.333  0.00  0.00    +0.000 A 
ATOM     21  C   UNL     1      50.383   6.794  18.002  0.00  0.00    +0.000 A 
ATOM     22  CA  UNL     1      50.190   5.490  17.578  0.00  0.00    +0.000 A 
ATOM     23  N   UNL     1      49.330   5.179  16.579  0.00  0.00    +0.000 NA
ATOM     24  H   UNL     1      47.194   6.755  14.917  0.00  0.00    +0.000 HD
BRANCH  22  25
ATOM     25  C   UNL     1      50.956   4.349  18.196  0.00  0.00    +0.000 C 
BRANCH  25  26
ATOM     26  O   UNL     1      50.142   3.191  18.355  0.00  0.00    +0.000 OA
ATOM     27  H   UNL     1      49.460   3.240  17.659  0.00  0.00    +0.000 HD
ENDBRANCH  25  26
ENDBRANCH  22  25
ENDBRANCH  16  17
ENDBRANCH   4  16
TORSDOF 10
ENDMDL
