MODEL 1
REMARK VINA RESULT:    -9.218      0.000      0.000
REMARK INTER + INTRA:         -13.974
REMARK INTER:                 -12.990
REMARK INTRA:                  -0.983
REMARK UNBOUND:                -0.983
REMARK  Name = 
REMARK  8 active torsions:
REMARK  status: ('A' for Active; 'I' for Inactive)
REMARK    1  A    between atoms: C_1  and  C_2
REMARK    2  A    between atoms: C_4  and  O_5
REMARK    3  A    between atoms: O_5  and  C_6
REMARK    4  A    between atoms: C_6  and  C_7
REMARK    5  A    between atoms: C_7  and  C_10
REMARK    6  A    between atoms: C_14  and  N_15
REMARK    7  A    between atoms: N_15  and  C_16
REMARK    8  A    between atoms: C_23  and  C_24
REMARK                            x       y       z     vdW  Elec       q    Type
REMARK                         _______ _______ _______ _____ _____    ______ ____
ROOT
ATOM      1  C   UNL     1      43.599   4.665  12.310  0.00  0.00    +0.000 C 
ATOM      2  F   UNL     1      43.390   3.497  12.987  0.00  0.00    +0.000 F 
ATOM      3  F   UNL     1      42.612   5.512  12.729  0.00  0.00    +0.000 F 
ENDROOT
BRANCH   1   4
ATOM      4  C   UNL     1      44.983   5.236  12.585  0.00  0.00    +0.000 A 
ATOM      5  C   UNL     1      45.628   6.035  11.630  0.00  0.00    +0.000 A 
ATOM      6  C   UNL     1      46.913   6.523  11.871  0.00  0.00    +0.000 A 
ATOM      7  C   UNL     1      47.581   6.201  13.056  0.00  0.00    +0.000 A 
ATOM      8  C   UNL     1      46.967   5.399  14.020  0.00  0.00    +0.000 A 
ATOM      9  C   UNL     1      45.659   4.946  13.784  0.00  0.00    +0.000 A 
BRANCH   8  10
ATOM     10  N   UNL     1      47.595   5.043  15.233  0.00  0.00    +0.000 N 
ATOM     11  H   UNL     1      48.608   5.021  15.113  0.00  0.00    +0.000 HD
BRANCH  10  12
ATOM     12  C   UNL     1      47.108   4.073  16.180  0.00  0.00    +0.000 C 
ATOM     13  C   UNL     1      47.161   4.585  17.638  0.00  0.00    +0.000 C 
ATOM     14  N   UNL     1      47.692   3.272  18.062  0.00  0.00    +0.000 NA
ATOM     15  C   UNL     1      48.107   3.006  16.665  0.00  0.00    +0.000 C 
ATOM     16  H   UNL     1      46.966   2.638  18.398  0.00  0.00    +0.000 HD
ENDBRANCH  10  12
ENDBRANCH   8  10
ENDBRANCH   1   4
BRANCH   1  17
ATOM     17  C   UNL     1      43.420   4.403  10.802  0.00  0.00    +0.000 C 
BRANCH  17  18
ATOM     18  O   UNL     1      43.730   3.043  10.442  0.00  0.00    +0.000 OA
BRANCH  18  22
ATOM     19  C   UNL     1      46.717   0.240   7.646  0.00  0.00    +0.000 C 
ATOM     20  C   UNL     1      46.136   1.588   7.978  0.00  0.00    +0.000 A 
ATOM     21  C   UNL     1      45.220   1.667   9.048  0.00  0.00    +0.000 A 
ATOM     22  C   UNL     1      44.629   2.877   9.419  0.00  0.00    +0.000 A 
ATOM     23  C   UNL     1      44.963   4.030   8.709  0.00  0.00    +0.000 A 
ATOM     24  C   UNL     1      45.875   3.976   7.642  0.00  0.00    +0.000 A 
ATOM     25  C   UNL     1      46.460   2.758   7.262  0.00  0.00    +0.000 A 
BRANCH  25  26
ATOM     26  C   UNL     1      47.449   2.727   6.134  0.00  0.00    +0.000 C 
ATOM     27  N   UNL     1      48.774   2.615   6.457  0.00  0.00    +0.000 N 
ATOM     28  O   UNL     1      47.121   2.818   4.958  0.00  0.00    +0.000 OA
ATOM     29  H   UNL     1      49.130   2.723   7.395  0.00  0.00    +0.000 HD
ATOM     30  H   UNL     1      49.430   2.684   5.693  0.00  0.00    +0.000 HD
ENDBRANCH  25  26
ENDBRANCH  18  22
ENDBRANCH  17  18
ENDBRANCH   1  17
TORSDOF 7
ENDMDL
MODEL 2
REMARK VINA RESULT:    -8.442      2.881      4.244
REMARK INTER + INTRA:         -12.880
REMARK INTER:                 -11.953
REMARK INTRA:                  -0.927
REMARK UNBOUND:                -0.983
REMARK  Name = 
REMARK  8 active torsions:
REMARK  status: ('A' for Active; 'I' for Inactive)
REMARK    1  A    between atoms: C_1  and  C_2
REMARK    2  A    between atoms: C_4  and  O_5
REMARK    3  A    between atoms: O_5  and  C_6
REMARK    4  A    between atoms: C_6  and  C_7
REMARK    5  A    between atoms: C_7  and  C_10
REMARK    6  A    between atoms: C_14  and  N_15
REMARK    7  A    between atoms: N_15  and  C_16
REMARK    8  A    between atoms: C_23  and  C_24
REMARK                            x       y       z     vdW  Elec       q    Type
REMARK                         _______ _______ _______ _____ _____    ______ ____
ROOT
ATOM      1  C   UNL     1      44.046   4.714  12.337  0.00  0.00    +0.000 C 
ATOM      2  F   UNL     1      44.695   3.605  12.800  0.00  0.00    +0.000 F 
ATOM      3  F   UNL     1      43.040   4.948  13.231  0.00  0.00    +0.000 F 
ENDROOT
BRANCH   1   4
ATOM      4  C   UNL     1      44.983   5.908  12.219  0.00  0.00    +0.000 A 
ATOM      5  C   UNL     1      46.328   5.729  11.866  0.00  0.00    +0.000 A 
ATOM      6  C   UNL     1      47.191   6.823  11.799  0.00  0.00    +0.000 A 
ATOM      7  C   UNL     1      46.730   8.107  12.105  0.00  0.00    +0.000 A 
ATOM      8  C   UNL     1      45.398   8.313  12.470  0.00  0.00    +0.000 A 
ATOM      9  C   UNL     1      44.529   7.211  12.496  0.00  0.00    +0.000 A 
BRANCH   8  10
ATOM     10  N   UNL     1      44.881   9.587  12.789  0.00  0.00    +0.000 N 
ATOM     11  H   UNL     1      44.440   9.569  13.710  0.00  0.00    +0.000 HD
BRANCH  10  12
ATOM     12  C   UNL     1      44.246  10.494  11.867  0.00  0.00    +0.000 C 
ATOM     13  C   UNL     1      43.563   9.763  10.688  0.00  0.00    +0.000 C 
ATOM     14  N   UNL     1      44.119  10.772   9.762  0.00  0.00    +0.000 NA
ATOM     15  C   UNL     1      45.138  11.122  10.779  0.00  0.00    +0.000 C 
ATOM     16  H   UNL     1      43.468  11.533   9.562  0.00  0.00    +0.000 HD
ENDBRANCH  10  12
ENDBRANCH   8  10
ENDBRANCH   1   4
BRANCH   1  17
ATOM     17  C   UNL     1      43.423   4.387  10.965  0.00  0.00    +0.000 C 
BRANCH  17  18
ATOM     18  O   UNL     1      43.696   3.036  10.549  0.00  0.00    +0.000 OA
BRANCH  18  22
ATOM     19  C   UNL     1      46.658   0.284   7.675  0.00  0.00    +0.000 C 
ATOM     20  C   UNL     1      46.078   1.625   8.035  0.00  0.00    +0.000 A 
ATOM     21  C   UNL     1      45.173   1.685   9.116  0.00  0.00    +0.000 A 
ATOM     22  C   UNL     1      44.584   2.888   9.513  0.00  0.00    +0.000 A 
ATOM     23  C   UNL     1      44.908   4.053   8.817  0.00  0.00    +0.000 A 
ATOM     24  C   UNL     1      45.808   4.018   7.741  0.00  0.00    +0.000 A 
ATOM     25  C   UNL     1      46.391   2.807   7.334  0.00  0.00    +0.000 A 
BRANCH  25  26
ATOM     26  C   UNL     1      47.367   2.797   6.195  0.00  0.00    +0.000 C 
ATOM     27  N   UNL     1      48.698   2.713   6.502  0.00  0.00    +0.000 N 
ATOM     28  O   UNL     1      47.024   2.880   5.023  0.00  0.00    +0.000 OA
ATOM     29  H   UNL     1      49.062   2.829   7.437  0.00  0.00    +0.000 HD
ATOM     30  H   UNL     1      49.344   2.795   5.731  0.00  0.00    +0.000 HD
ENDBRANCH  25  26
ENDBRANCH  18  22
ENDBRANCH  17  18
ENDBRANCH   1  17
TORSDOF 7
ENDMDL
MODEL 3
REMARK VINA RESULT:    -8.236      2.100      3.352
REMARK INTER + INTRA:         -12.589
REMARK INTER:                 -11.566
REMARK INTRA:                  -1.023
REMARK UNBOUND:                -0.983
REMARK  Name = 
REMARK  8 active torsions:
REMARK  status: ('A' for Active; 'I' for Inactive)
REMARK    1  A    between atoms: C_1  and  C_2
REMARK    2  A    between atoms: C_4  and  O_5
REMARK    3  A    between atoms: O_5  and  C_6
REMARK    4  A    between atoms: C_6  and  C_7
REMARK    5  A    between atoms: C_7  and  C_10
REMARK    6  A    between atoms: C_14  and  N_15
REMARK    7  A    between atoms: N_15  and  C_16
REMARK    8  A    between atoms: C_23  and  C_24
REMARK                            x       y       z     vdW  Elec       q    Type
REMARK                         _______ _______ _______ _____ _____    ______ ____
ROOT
ATOM      1  C   UNL     1      43.531   4.755  12.099  0.00  0.00    +0.000 C 
ATOM      2  F   UNL     1      43.094   3.633  12.744  0.00  0.00    +0.000 F 
ATOM      3  F   UNL     1      42.652   5.742  12.447  0.00  0.00    +0.000 F 
ENDROOT
BRANCH   1   4
ATOM      4  C   UNL     1      44.958   5.111  12.489  0.00  0.00    +0.000 A 
ATOM      5  C   UNL     1      45.676   4.304  13.384  0.00  0.00    +0.000 A 
ATOM      6  C   UNL     1      46.971   4.657  13.768  0.00  0.00    +0.000 A 
ATOM      7  C   UNL     1      47.557   5.830  13.284  0.00  0.00    +0.000 A 
ATOM      8  C   UNL     1      46.861   6.657  12.400  0.00  0.00    +0.000 A 
ATOM      9  C   UNL     1      45.575   6.273  11.990  0.00  0.00    +0.000 A 
BRANCH   8  10
ATOM     10  N   UNL     1      47.405   7.852  11.881  0.00  0.00    +0.000 N 
ATOM     11  H   UNL     1      47.203   7.929  10.884  0.00  0.00    +0.000 HD
BRANCH  10  12
ATOM     12  C   UNL     1      48.667   8.436  12.258  0.00  0.00    +0.000 C 
ATOM     13  C   UNL     1      48.887   9.833  11.634  0.00  0.00    +0.000 C 
ATOM     14  N   UNL     1      50.280   9.453  11.317  0.00  0.00    +0.000 NA
ATOM     15  C   UNL     1      49.901   8.026  11.433  0.00  0.00    +0.000 C 
ATOM     16  H   UNL     1      50.948   9.756  12.027  0.00  0.00    +0.000 HD
ENDBRANCH  10  12
ENDBRANCH   8  10
ENDBRANCH   1   4
BRANCH   1  17
ATOM     17  C   UNL     1      43.436   4.521  10.578  0.00  0.00    +0.000 C 
BRANCH  17  18
ATOM     18  O   UNL     1      43.689   3.149  10.220  0.00  0.00    +0.000 OA
BRANCH  18  22
ATOM     19  C   UNL     1      46.779   0.237   7.657  0.00  0.00    +0.000 C 
ATOM     20  C   UNL     1      46.186   1.597   7.911  0.00  0.00    +0.000 A 
ATOM     21  C   UNL     1      45.230   1.719   8.941  0.00  0.00    +0.000 A 
ATOM     22  C   UNL     1      44.626   2.942   9.239  0.00  0.00    +0.000 A 
ATOM     23  C   UNL     1      44.986   4.066   8.494  0.00  0.00    +0.000 A 
ATOM     24  C   UNL     1      45.937   3.969   7.467  0.00  0.00    +0.000 A 
ATOM     25  C   UNL     1      46.537   2.737   7.159  0.00  0.00    +0.000 A 
BRANCH  25  26
ATOM     26  C   UNL     1      47.568   2.661   6.072  0.00  0.00    +0.000 C 
ATOM     27  N   UNL     1      48.884   2.684   6.444  0.00  0.00    +0.000 N 
ATOM     28  O   UNL     1      47.279   2.602   4.883  0.00  0.00    +0.000 OA
ATOM     29  H   UNL     1      49.195   2.917   7.376  0.00  0.00    +0.000 HD
ATOM     30  H   UNL     1      49.562   2.720   5.698  0.00  0.00    +0.000 HD
ENDBRANCH  25  26
ENDBRANCH  18  22
ENDBRANCH  17  18
ENDBRANCH   1  17
TORSDOF 7
ENDMDL
MODEL 4
REMARK VINA RESULT:    -8.214      1.928      2.484
REMARK INTER + INTRA:         -12.559
REMARK INTER:                 -11.677
REMARK INTRA:                  -0.882
REMARK UNBOUND:                -0.983
REMARK  Name = 
REMARK  8 active torsions:
REMARK  status: ('A' for Active; 'I' for Inactive)
REMARK    1  A    between atoms: C_1  and  C_2
REMARK    2  A    between atoms: C_4  and  O_5
REMARK    3  A    between atoms: O_5  and  C_6
REMARK    4  A    between atoms: C_6  and  C_7
REMARK    5  A    between atoms: C_7  and  C_10
REMARK    6  A    between atoms: C_14  and  N_15
REMARK    7  A    between atoms: N_15  and  C_16
REMARK    8  A    between atoms: C_23  and  C_24
REMARK                            x       y       z     vdW  Elec       q    Type
REMARK                         _______ _______ _______ _____ _____    ______ ____
ROOT
ATOM      1  C   UNL     1      44.100   4.315  12.420  0.00  0.00    +0.000 C 
ATOM      2  F   UNL     1      44.804   3.172  12.672  0.00  0.00    +0.000 F 
ATOM      3  F   UNL     1      43.129   4.366  13.381  0.00  0.00    +0.000 F 
ENDROOT
BRANCH   1   4
ATOM      4  C   UNL     1      44.993   5.547  12.458  0.00  0.00    +0.000 A 
ATOM      5  C   UNL     1      44.693   6.672  11.676  0.00  0.00    +0.000 A 
ATOM      6  C   UNL     1      45.537   7.783  11.685  0.00  0.00    +0.000 A 
ATOM      7  C   UNL     1      46.703   7.778  12.455  0.00  0.00    +0.000 A 
ATOM      8  C   UNL     1      47.032   6.668  13.236  0.00  0.00    +0.000 A 
ATOM      9  C   UNL     1      46.156   5.572  13.250  0.00  0.00    +0.000 A 
BRANCH   8  10
ATOM     10  N   UNL     1      48.197   6.610  14.031  0.00  0.00    +0.000 N 
ATOM     11  H   UNL     1      48.014   6.089  14.889  0.00  0.00    +0.000 HD
BRANCH  10  12
ATOM     12  C   UNL     1      49.156   7.672  14.199  0.00  0.00    +0.000 C 
ATOM     13  C   UNL     1      50.148   7.771  13.017  0.00  0.00    +0.000 C 
ATOM     14  N   UNL     1      51.253   7.955  13.983  0.00  0.00    +0.000 NA
ATOM     15  C   UNL     1      50.407   7.359  15.042  0.00  0.00    +0.000 C 
ATOM     16  H   UNL     1      51.479   8.937  14.148  0.00  0.00    +0.000 HD
ENDBRANCH  10  12
ENDBRANCH   8  10
ENDBRANCH   1   4
BRANCH   1  17
ATOM     17  C   UNL     1      43.425   4.189  11.040  0.00  0.00    +0.000 C 
BRANCH  17  18
ATOM     18  O   UNL     1      43.599   2.879  10.465  0.00  0.00    +0.000 OA
BRANCH  18  22
ATOM     19  C   UNL     1      46.733   0.282   7.631  0.00  0.00    +0.000 C 
ATOM     20  C   UNL     1      46.095   1.595   7.996  0.00  0.00    +0.000 A 
ATOM     21  C   UNL     1      45.161   1.606   9.053  0.00  0.00    +0.000 A 
ATOM     22  C   UNL     1      44.518   2.780   9.451  0.00  0.00    +0.000 A 
ATOM     23  C   UNL     1      44.818   3.967   8.782  0.00  0.00    +0.000 A 
ATOM     24  C   UNL     1      45.746   3.981   7.730  0.00  0.00    +0.000 A 
ATOM     25  C   UNL     1      46.384   2.799   7.321  0.00  0.00    +0.000 A 
BRANCH  25  26
ATOM     26  C   UNL     1      47.390   2.842   6.208  0.00  0.00    +0.000 C 
ATOM     27  N   UNL     1      48.713   2.774   6.549  0.00  0.00    +0.000 N 
ATOM     28  O   UNL     1      47.076   2.954   5.030  0.00  0.00    +0.000 OA
ATOM     29  H   UNL     1      49.051   2.869   7.495  0.00  0.00    +0.000 HD
ATOM     30  H   UNL     1      49.377   2.892   5.797  0.00  0.00    +0.000 HD
ENDBRANCH  25  26
ENDBRANCH  18  22
ENDBRANCH  17  18
ENDBRANCH   1  17
TORSDOF 7
ENDMDL
MODEL 5
REMARK VINA RESULT:    -7.550      2.724      8.128
REMARK INTER + INTRA:         -11.623
REMARK INTER:                 -10.988
REMARK INTRA:                  -0.635
REMARK UNBOUND:                -0.983
REMARK  Name = 
REMARK  8 active torsions:
REMARK  status: ('A' for Active; 'I' for Inactive)
REMARK    1  A    between atoms: C_1  and  C_2
REMARK    2  A    between atoms: C_4  and  O_5
REMARK    3  A    between atoms: O_5  and  C_6
REMARK    4  A    between atoms: C_6  and  C_7
REMARK    5  A    between atoms: C_7  and  C_10
REMARK    6  A    between atoms: C_14  and  N_15
REMARK    7  A    between atoms: N_15  and  C_16
REMARK    8  A    between atoms: C_23  and  C_24
REMARK                            x       y       z     vdW  Elec       q    Type
REMARK                         _______ _______ _______ _____ _____    ______ ____
ROOT
ATOM      1  C   UNL     1      44.621   5.978  11.275  0.00  0.00    +0.000 C 
ATOM      2  F   UNL     1      45.399   6.921  10.667  0.00  0.00    +0.000 F 
ATOM      3  F   UNL     1      43.376   6.534  11.366  0.00  0.00    +0.000 F 
ENDROOT
BRANCH   1   4
ATOM      4  C   UNL     1      44.598   4.674  10.490  0.00  0.00    +0.000 A 
ATOM      5  C   UNL     1      44.063   3.509  11.057  0.00  0.00    +0.000 A 
ATOM      6  C   UNL     1      44.081   2.307  10.347  0.00  0.00    +0.000 A 
ATOM      7  C   UNL     1      44.653   2.247   9.073  0.00  0.00    +0.000 A 
ATOM      8  C   UNL     1      45.201   3.390   8.488  0.00  0.00    +0.000 A 
ATOM      9  C   UNL     1      45.143   4.601   9.195  0.00  0.00    +0.000 A 
BRANCH   8  10
ATOM     10  N   UNL     1      45.791   3.385   7.206  0.00  0.00    +0.000 N 
ATOM     11  H   UNL     1      45.154   2.972   6.525  0.00  0.00    +0.000 HD
BRANCH  10  12
ATOM     12  C   UNL     1      47.180   3.133   6.919  0.00  0.00    +0.000 C 
ATOM     13  C   UNL     1      47.443   2.886   5.415  0.00  0.00    +0.000 C 
ATOM     14  N   UNL     1      48.332   1.761   5.773  0.00  0.00    +0.000 NA
ATOM     15  C   UNL     1      47.681   1.687   7.101  0.00  0.00    +0.000 C 
ATOM     16  H   UNL     1      49.317   2.028   5.817  0.00  0.00    +0.000 HD
ENDBRANCH  10  12
ENDBRANCH   8  10
ENDBRANCH   1   4
BRANCH   1  17
ATOM     17  C   UNL     1      45.160   5.734  12.699  0.00  0.00    +0.000 C 
BRANCH  17  18
ATOM     18  O   UNL     1      46.585   5.528  12.716  0.00  0.00    +0.000 OA
BRANCH  18  22
ATOM     19  C   UNL     1      47.295   3.326  17.103  0.00  0.00    +0.000 C 
ATOM     20  C   UNL     1      47.596   4.452  16.151  0.00  0.00    +0.000 A 
ATOM     21  C   UNL     1      46.946   4.450  14.899  0.00  0.00    +0.000 A 
ATOM     22  C   UNL     1      47.172   5.453  13.954  0.00  0.00    +0.000 A 
ATOM     23  C   UNL     1      48.063   6.480  14.268  0.00  0.00    +0.000 A 
ATOM     24  C   UNL     1      48.720   6.504  15.509  0.00  0.00    +0.000 A 
ATOM     25  C   UNL     1      48.501   5.489  16.454  0.00  0.00    +0.000 A 
BRANCH  25  26
ATOM     26  C   UNL     1      49.196   5.548  17.783  0.00  0.00    +0.000 C 
ATOM     27  N   UNL     1      50.262   4.712  17.977  0.00  0.00    +0.000 N 
ATOM     28  O   UNL     1      48.837   6.287  18.690  0.00  0.00    +0.000 OA
ATOM     29  H   UNL     1      50.496   3.953  17.353  0.00  0.00    +0.000 HD
ATOM     30  H   UNL     1      50.663   4.702  18.903  0.00  0.00    +0.000 HD
ENDBRANCH  25  26
ENDBRANCH  18  22
ENDBRANCH  17  18
ENDBRANCH   1  17
TORSDOF 7
ENDMDL
MODEL 6
REMARK VINA RESULT:    -7.192      3.134      7.566
REMARK INTER + INTRA:         -11.118
REMARK INTER:                 -10.363
REMARK INTRA:                  -0.755
REMARK UNBOUND:                -0.983
REMARK  Name = 
REMARK  8 active torsions:
REMARK  status: ('A' for Active; 'I' for Inactive)
REMARK    1  A    between atoms: C_1  and  C_2
REMARK    2  A    between atoms: C_4  and  O_5
REMARK    3  A    between atoms: O_5  and  C_6
REMARK    4  A    between atoms: C_6  and  C_7
REMARK    5  A    between atoms: C_7  and  C_10
REMARK    6  A    between atoms: C_14  and  N_15
REMARK    7  A    between atoms: N_15  and  C_16
REMARK    8  A    between atoms: C_23  and  C_24
REMARK                            x       y       z     vdW  Elec       q    Type
REMARK                         _______ _______ _______ _____ _____    ______ ____
ROOT
ATOM      1  C   UNL     1      44.312   6.035  11.361  0.00  0.00    +0.000 C 
ATOM      2  F   UNL     1      44.955   7.103  10.802  0.00  0.00    +0.000 F 
ATOM      3  F   UNL     1      43.000   6.406  11.453  0.00  0.00    +0.000 F 
ENDROOT
BRANCH   1   4
ATOM      4  C   UNL     1      44.483   4.774  10.526  0.00  0.00    +0.000 A 
ATOM      5  C   UNL     1      43.922   3.559  10.945  0.00  0.00    +0.000 A 
ATOM      6  C   UNL     1      44.115   2.398  10.196  0.00  0.00    +0.000 A 
ATOM      7  C   UNL     1      44.890   2.428   9.033  0.00  0.00    +0.000 A 
ATOM      8  C   UNL     1      45.469   3.621   8.598  0.00  0.00    +0.000 A 
ATOM      9  C   UNL     1      45.236   4.791   9.338  0.00  0.00    +0.000 A 
BRANCH   8  10
ATOM     10  N   UNL     1      46.260   3.707   7.432  0.00  0.00    +0.000 N 
ATOM     11  H   UNL     1      46.058   4.573   6.931  0.00  0.00    +0.000 HD
BRANCH  10  12
ATOM     12  C   UNL     1      46.606   2.609   6.566  0.00  0.00    +0.000 C 
ATOM     13  C   UNL     1      47.878   1.862   7.030  0.00  0.00    +0.000 C 
ATOM     14  N   UNL     1      48.346   1.825   5.629  0.00  0.00    +0.000 NA
ATOM     15  C   UNL     1      47.430   2.944   5.308  0.00  0.00    +0.000 C 
ATOM     16  H   UNL     1      48.108   0.955   5.151  0.00  0.00    +0.000 HD
ENDBRANCH  10  12
ENDBRANCH   8  10
ENDBRANCH   1   4
BRANCH   1  17
ATOM     17  C   UNL     1      44.865   5.813  12.783  0.00  0.00    +0.000 C 
BRANCH  17  18
ATOM     18  O   UNL     1      46.150   5.163  12.774  0.00  0.00    +0.000 OA
BRANCH  18  22
ATOM     19  C   UNL     1      49.649   7.016  15.762  0.00  0.00    +0.000 C 
ATOM     20  C   UNL     1      49.004   6.946  14.404  0.00  0.00    +0.000 A 
ATOM     21  C   UNL     1      47.890   6.095  14.244  0.00  0.00    +0.000 A 
ATOM     22  C   UNL     1      47.237   5.966  13.017  0.00  0.00    +0.000 A 
ATOM     23  C   UNL     1      47.704   6.704  11.929  0.00  0.00    +0.000 A 
ATOM     24  C   UNL     1      48.809   7.559  12.065  0.00  0.00    +0.000 A 
ATOM     25  C   UNL     1      49.473   7.681  13.296  0.00  0.00    +0.000 A 
BRANCH  25  26
ATOM     26  C   UNL     1      50.637   8.618  13.424  0.00  0.00    +0.000 C 
ATOM     27  N   UNL     1      51.890   8.103  13.225  0.00  0.00    +0.000 N 
ATOM     28  O   UNL     1      50.512   9.801  13.714  0.00  0.00    +0.000 OA
ATOM     29  H   UNL     1      52.082   7.113  13.169  0.00  0.00    +0.000 HD
ATOM     30  H   UNL     1      52.665   8.725  13.400  0.00  0.00    +0.000 HD
ENDBRANCH  25  26
ENDBRANCH  18  22
ENDBRANCH  17  18
ENDBRANCH   1  17
TORSDOF 7
ENDMDL
MODEL 7
REMARK VINA RESULT:    -6.995      3.724      8.431
REMARK INTER + INTRA:         -10.841
REMARK INTER:                 -10.033
REMARK INTRA:                  -0.808
REMARK UNBOUND:                -0.983
REMARK  Name = 
REMARK  8 active torsions:
REMARK  status: ('A' for Active; 'I' for Inactive)
REMARK    1  A    between atoms: C_1  and  C_2
REMARK    2  A    between atoms: C_4  and  O_5
REMARK    3  A    between atoms: O_5  and  C_6
REMARK    4  A    between atoms: C_6  and  C_7
REMARK    5  A    between atoms: C_7  and  C_10
REMARK    6  A    between atoms: C_14  and  N_15
REMARK    7  A    between atoms: N_15  and  C_16
REMARK    8  A    between atoms: C_23  and  C_24
REMARK                            x       y       z     vdW  Elec       q    Type
REMARK                         _______ _______ _______ _____ _____    ______ ____
ROOT
ATOM      1  C   UNL     1      46.839   4.334  13.720  0.00  0.00    +0.000 C 
ATOM      2  F   UNL     1      47.515   3.147  13.699  0.00  0.00    +0.000 F 
ATOM      3  F   UNL     1      47.705   5.257  13.207  0.00  0.00    +0.000 F 
ENDROOT
BRANCH   1   4
ATOM      4  C   UNL     1      45.550   4.263  12.914  0.00  0.00    +0.000 A 
ATOM      5  C   UNL     1      44.471   5.105  13.216  0.00  0.00    +0.000 A 
ATOM      6  C   UNL     1      43.278   5.008  12.498  0.00  0.00    +0.000 A 
ATOM      7  C   UNL     1      43.137   4.054  11.487  0.00  0.00    +0.000 A 
ATOM      8  C   UNL     1      44.192   3.195  11.171  0.00  0.00    +0.000 A 
ATOM      9  C   UNL     1      45.400   3.327  11.873  0.00  0.00    +0.000 A 
BRANCH   8  10
ATOM     10  N   UNL     1      44.103   2.214  10.160  0.00  0.00    +0.000 N 
ATOM     11  H   UNL     1      44.356   1.298  10.533  0.00  0.00    +0.000 HD
BRANCH  10  12
ATOM     12  C   UNL     1      44.471   2.393   8.779  0.00  0.00    +0.000 C 
ATOM     13  C   UNL     1      45.893   1.871   8.468  0.00  0.00    +0.000 C 
ATOM     14  N   UNL     1      46.146   3.088   7.668  0.00  0.00    +0.000 NA
ATOM     15  C   UNL     1      45.039   3.768   8.379  0.00  0.00    +0.000 C 
ATOM     16  H   UNL     1      45.969   2.955   6.672  0.00  0.00    +0.000 HD
ENDBRANCH  10  12
ENDBRANCH   8  10
ENDBRANCH   1   4
BRANCH   1  17
ATOM     17  C   UNL     1      46.531   4.703  15.185  0.00  0.00    +0.000 C 
BRANCH  17  18
ATOM     18  O   UNL     1      46.847   3.633  16.096  0.00  0.00    +0.000 OA
BRANCH  18  22
ATOM     19  C   UNL     1      51.082   1.389  17.372  0.00  0.00    +0.000 C 
ATOM     20  C   UNL     1      50.243   2.636  17.300  0.00  0.00    +0.000 A 
ATOM     21  C   UNL     1      48.953   2.534  16.739  0.00  0.00    +0.000 A 
ATOM     22  C   UNL     1      48.112   3.643  16.628  0.00  0.00    +0.000 A 
ATOM     23  C   UNL     1      48.568   4.878  17.092  0.00  0.00    +0.000 A 
ATOM     24  C   UNL     1      49.846   5.003  17.657  0.00  0.00    +0.000 A 
ATOM     25  C   UNL     1      50.697   3.890  17.758  0.00  0.00    +0.000 A 
BRANCH  25  26
ATOM     26  C   UNL     1      52.051   4.043  18.386  0.00  0.00    +0.000 C 
ATOM     27  N   UNL     1      52.124   3.989  19.752  0.00  0.00    +0.000 N 
ATOM     28  O   UNL     1      53.070   4.231  17.735  0.00  0.00    +0.000 OA
ATOM     29  H   UNL     1      51.316   4.024  20.355  0.00  0.00    +0.000 HD
ATOM     30  H   UNL     1      53.027   4.179  20.161  0.00  0.00    +0.000 HD
ENDBRANCH  25  26
ENDBRANCH  18  22
ENDBRANCH  17  18
ENDBRANCH   1  17
TORSDOF 7
ENDMDL
MODEL 8
REMARK VINA RESULT:    -6.795      3.587      8.915
REMARK INTER + INTRA:         -10.559
REMARK INTER:                  -9.836
REMARK INTRA:                  -0.723
REMARK UNBOUND:                -0.983
REMARK  Name = 
REMARK  8 active torsions:
REMARK  status: ('A' for Active; 'I' for Inactive)
REMARK    1  A    between atoms: C_1  and  C_2
REMARK    2  A    between atoms: C_4  and  O_5
REMARK    3  A    between atoms: O_5  and  C_6
REMARK    4  A    between atoms: C_6  and  C_7
REMARK    5  A    between atoms: C_7  and  C_10
REMARK    6  A    between atoms: C_14  and  N_15
REMARK    7  A    between atoms: N_15  and  C_16
REMARK    8  A    between atoms: C_23  and  C_24
REMARK                            x       y       z     vdW  Elec       q    Type
REMARK                         _______ _______ _______ _____ _____    ______ ____
ROOT
ATOM      1  C   UNL     1      46.676   6.262  12.636  0.00  0.00    +0.000 C 
ATOM      2  F   UNL     1      47.506   6.651  11.623  0.00  0.00    +0.000 F 
ATOM      3  F   UNL     1      46.317   7.413  13.278  0.00  0.00    +0.000 F 
ENDROOT
BRANCH   1   4
ATOM      4  C   UNL     1      45.462   5.508  12.113  0.00  0.00    +0.000 A 
ATOM      5  C   UNL     1      44.531   4.950  13.000  0.00  0.00    +0.000 A 
ATOM      6  C   UNL     1      43.441   4.226  12.516  0.00  0.00    +0.000 A 
ATOM      7  C   UNL     1      43.279   4.028  11.141  0.00  0.00    +0.000 A 
ATOM      8  C   UNL     1      44.197   4.562  10.235  0.00  0.00    +0.000 A 
ATOM      9  C   UNL     1      45.267   5.322  10.732  0.00  0.00    +0.000 A 
BRANCH   8  10
ATOM     10  N   UNL     1      44.081   4.393   8.839  0.00  0.00    +0.000 N 
ATOM     11  H   UNL     1      43.161   4.699   8.520  0.00  0.00    +0.000 HD
BRANCH  10  12
ATOM     12  C   UNL     1      44.616   3.293   8.078  0.00  0.00    +0.000 C 
ATOM     13  C   UNL     1      45.170   2.161   8.974  0.00  0.00    +0.000 C 
ATOM     14  N   UNL     1      46.350   2.060   8.088  0.00  0.00    +0.000 NA
ATOM     15  C   UNL     1      46.070   3.425   7.585  0.00  0.00    +0.000 C 
ATOM     16  H   UNL     1      46.252   1.336   7.375  0.00  0.00    +0.000 HD
ENDBRANCH  10  12
ENDBRANCH   8  10
ENDBRANCH   1   4
BRANCH   1  17
ATOM     17  C   UNL     1      47.472   5.377  13.616  0.00  0.00    +0.000 C 
BRANCH  17  18
ATOM     18  O   UNL     1      48.460   6.126  14.349  0.00  0.00    +0.000 OA
BRANCH  18  22
ATOM     19  C   UNL     1      49.648   7.610  18.930  0.00  0.00    +0.000 C 
ATOM     20  C   UNL     1      48.976   6.619  18.019  0.00  0.00    +0.000 A 
ATOM     21  C   UNL     1      49.044   6.846  16.629  0.00  0.00    +0.000 A 
ATOM     22  C   UNL     1      48.443   5.980  15.713  0.00  0.00    +0.000 A 
ATOM     23  C   UNL     1      47.763   4.863  16.197  0.00  0.00    +0.000 A 
ATOM     24  C   UNL     1      47.684   4.614  17.577  0.00  0.00    +0.000 A 
ATOM     25  C   UNL     1      48.278   5.491  18.498  0.00  0.00    +0.000 A 
BRANCH  25  26
ATOM     26  C   UNL     1      48.200   5.193  19.966  0.00  0.00    +0.000 C 
ATOM     27  N   UNL     1      47.107   5.654  20.649  0.00  0.00    +0.000 N 
ATOM     28  O   UNL     1      49.073   4.583  20.569  0.00  0.00    +0.000 OA
ATOM     29  H   UNL     1      46.449   6.316  20.265  0.00  0.00    +0.000 HD
ATOM     30  H   UNL     1      47.113   5.521  21.649  0.00  0.00    +0.000 HD
ENDBRANCH  25  26
ENDBRANCH  18  22
ENDBRANCH  17  18
ENDBRANCH   1  17
TORSDOF 7
ENDMDL
MODEL 9
REMARK VINA RESULT:    -6.726      3.641      7.283
REMARK INTER + INTRA:         -10.462
REMARK INTER:                  -9.559
REMARK INTRA:                  -0.903
REMARK UNBOUND:                -0.983
REMARK  Name = 
REMARK  8 active torsions:
REMARK  status: ('A' for Active; 'I' for Inactive)
REMARK    1  A    between atoms: C_1  and  C_2
REMARK    2  A    between atoms: C_4  and  O_5
REMARK    3  A    between atoms: O_5  and  C_6
REMARK    4  A    between atoms: C_6  and  C_7
REMARK    5  A    between atoms: C_7  and  C_10
REMARK    6  A    between atoms: C_14  and  N_15
REMARK    7  A    between atoms: N_15  and  C_16
REMARK    8  A    between atoms: C_23  and  C_24
REMARK                            x       y       z     vdW  Elec       q    Type
REMARK                         _______ _______ _______ _____ _____    ______ ____
ROOT
ATOM      1  C   UNL     1      46.678   4.482  13.861  0.00  0.00    +0.000 C 
ATOM      2  F   UNL     1      46.433   4.381  15.201  0.00  0.00    +0.000 F 
ATOM      3  F   UNL     1      47.661   3.570  13.599  0.00  0.00    +0.000 F 
ENDROOT
BRANCH   1   4
ATOM      4  C   UNL     1      45.428   4.213  13.037  0.00  0.00    +0.000 A 
ATOM      5  C   UNL     1      44.190   4.746  13.423  0.00  0.00    +0.000 A 
ATOM      6  C   UNL     1      43.039   4.464  12.685  0.00  0.00    +0.000 A 
ATOM      7  C   UNL     1      43.105   3.627  11.567  0.00  0.00    +0.000 A 
ATOM      8  C   UNL     1      44.322   3.074  11.166  0.00  0.00    +0.000 A 
ATOM      9  C   UNL     1      45.479   3.396  11.892  0.00  0.00    +0.000 A 
BRANCH   8  10
ATOM     10  N   UNL     1      44.445   2.223  10.047  0.00  0.00    +0.000 N 
ATOM     11  H   UNL     1      45.014   1.409  10.282  0.00  0.00    +0.000 HD
BRANCH  10  12
ATOM     12  C   UNL     1      44.589   2.648   8.678  0.00  0.00    +0.000 C 
ATOM     13  C   UNL     1      46.031   2.472   8.148  0.00  0.00    +0.000 C 
ATOM     14  N   UNL     1      45.944   3.807   7.519  0.00  0.00    +0.000 NA
ATOM     15  C   UNL     1      44.831   4.150   8.434  0.00  0.00    +0.000 C 
ATOM     16  H   UNL     1      45.666   3.769   6.537  0.00  0.00    +0.000 HD
ENDBRANCH  10  12
ENDBRANCH   8  10
ENDBRANCH   1   4
BRANCH   1  17
ATOM     17  C   UNL     1      47.221   5.894  13.562  0.00  0.00    +0.000 C 
BRANCH  17  18
ATOM     18  O   UNL     1      47.041   6.267  12.182  0.00  0.00    +0.000 OA
BRANCH  18  22
ATOM     19  C   UNL     1      46.510  11.198  12.187  0.00  0.00    +0.000 C 
ATOM     20  C   UNL     1      45.943   9.831  11.916  0.00  0.00    +0.000 A 
ATOM     21  C   UNL     1      46.759   8.712  12.182  0.00  0.00    +0.000 A 
ATOM     22  C   UNL     1      46.315   7.408  11.952  0.00  0.00    +0.000 A 
ATOM     23  C   UNL     1      45.027   7.219  11.450  0.00  0.00    +0.000 A 
ATOM     24  C   UNL     1      44.195   8.317  11.181  0.00  0.00    +0.000 A 
ATOM     25  C   UNL     1      44.646   9.629  11.400  0.00  0.00    +0.000 A 
BRANCH  25  26
ATOM     26  C   UNL     1      43.732  10.786  11.126  0.00  0.00    +0.000 C 
ATOM     27  N   UNL     1      42.781  11.078  12.066  0.00  0.00    +0.000 N 
ATOM     28  O   UNL     1      43.791  11.454  10.102  0.00  0.00    +0.000 OA
ATOM     29  H   UNL     1      42.552  10.466  12.836  0.00  0.00    +0.000 HD
ATOM     30  H   UNL     1      42.120  11.803  11.827  0.00  0.00    +0.000 HD
ENDBRANCH  25  26
ENDBRANCH  18  22
ENDBRANCH  17  18
ENDBRANCH   1  17
TORSDOF 7
ENDMDL
