MODEL 1
REMARK VINA RESULT:    -8.177      0.000      0.000
REMARK INTER + INTRA:         -12.223
REMARK INTER:                 -11.045
REMARK INTRA:                  -1.178
REMARK UNBOUND:                -1.178
REMARK  Name = 
REMARK  8 active torsions:
REMARK  status: ('A' for Active; 'I' for Inactive)
REMARK    1  A    between atoms: C_1  and  C_2
REMARK    2  A    between atoms: N_4  and  C_5
REMARK    3  A    between atoms: C_7  and  C_8
REMARK    4  A    between atoms: C_8  and  C_9
REMARK    5  A    between atoms: C_9  and  N_10
REMARK    6  A    between atoms: C_14  and  C_15
REMARK    7  A    between atoms: C_21  and  C_22
REMARK    8  A    between atoms: C_28  and  C_29
REMARK                            x       y       z     vdW  Elec       q    Type
REMARK                         _______ _______ _______ _____ _____    ______ ____
ROOT
ATOM      1  C   UNL     1      46.875   7.056  12.602  0.00  0.00    +0.000 A 
ATOM      2  C   UNL     1      45.569   6.798  12.153  0.00  0.00    +0.000 A 
ATOM      3  C   UNL     1      44.776   5.763  12.679  0.00  0.00    +0.000 A 
ATOM      4  C   UNL     1      45.304   4.956  13.688  0.00  0.00    +0.000 A 
ATOM      5  C   UNL     1      46.598   5.182  14.171  0.00  0.00    +0.000 A 
ATOM      6  C   UNL     1      47.352   6.247  13.640  0.00  0.00    +0.000 A 
ENDROOT
BRANCH   1  10
ATOM      7  C   UNL     1      48.688   9.715  14.545  0.00  0.00    +0.000 C 
ATOM      8  C   UNL     1      48.645  10.095  13.066  0.00  0.00    +0.000 C 
ATOM      9  C   UNL     1      47.439   9.493  12.313  0.00  0.00    +0.000 C 
ATOM     10  N   UNL     1      47.628   8.062  12.028  0.00  0.00    +0.000 N 
ATOM     11  C   UNL     1      48.926   7.752  11.399  0.00  0.00    +0.000 C 
ATOM     12  C   UNL     1      50.084   8.377  12.209  0.00  0.00    +0.000 C 
ATOM     13  C   UNL     1      51.408   8.195  11.478  0.00  0.00    +0.000 C 
ATOM     14  O   UNL     1      49.891   9.790  12.411  0.00  0.00    +0.000 OA
ENDBRANCH   1  10
BRANCH   5  15
ATOM     15  C   UNL     1      47.212   4.274  15.207  0.00  0.00    +0.000 C 
ATOM     16  F   UNL     1      46.407   4.050  16.283  0.00  0.00    +0.000 F 
ATOM     17  F   UNL     1      47.509   3.043  14.705  0.00  0.00    +0.000 F 
ATOM     18  F   UNL     1      48.379   4.763  15.710  0.00  0.00    +0.000 F 
ENDBRANCH   5  15
BRANCH   3  19
ATOM     19  C   UNL     1      43.415   5.465  12.093  0.00  0.00    +0.000 C 
BRANCH  19  20
ATOM     20  C   UNL     1      43.549   5.029  10.631  0.00  0.00    +0.000 C 
BRANCH  20  21
ATOM     21  N   UNL     1      43.828   3.592  10.522  0.00  0.00    +0.000 N 
ATOM     22  C   UNL     1      44.750   3.298   9.494  0.00  0.00    +0.000 A 
ATOM     23  C   UNL     1      45.132   1.973   9.244  0.00  0.00    +0.000 A 
ATOM     24  N   UNL     1      46.008   1.597   8.269  0.00  0.00    +0.000 NA
ATOM     25  C   UNL     1      46.519   2.633   7.546  0.00  0.00    +0.000 A 
ATOM     26  C   UNL     1      46.172   3.949   7.795  0.00  0.00    +0.000 A 
ATOM     27  N   UNL     1      45.291   4.299   8.767  0.00  0.00    +0.000 NA
ATOM     28  H   UNL     1      42.981   3.049  10.368  0.00  0.00    +0.000 HD
BRANCH  25  29
ATOM     29  C   UNL     1      47.471   2.328   6.446  0.00  0.00    +0.000 C 
ATOM     30  N   UNL     1      47.414   3.150   5.354  0.00  0.00    +0.000 N 
ATOM     31  O   UNL     1      48.271   1.402   6.510  0.00  0.00    +0.000 OA
ATOM     32  H   UNL     1      46.743   3.910   5.321  0.00  0.00    +0.000 HD
ATOM     33  H   UNL     1      48.045   2.989   4.584  0.00  0.00    +0.000 HD
ENDBRANCH  25  29
ENDBRANCH  20  21
ENDBRANCH  19  20
ENDBRANCH   3  19
TORSDOF 6
ENDMDL
MODEL 2
REMARK VINA RESULT:    -7.931      3.009      3.894
REMARK INTER + INTRA:         -11.891
REMARK INTER:                 -11.086
REMARK INTRA:                  -0.805
REMARK UNBOUND:                -1.178
REMARK  Name = 
REMARK  8 active torsions:
REMARK  status: ('A' for Active; 'I' for Inactive)
REMARK    1  A    between atoms: C_1  and  C_2
REMARK    2  A    between atoms: N_4  and  C_5
REMARK    3  A    between atoms: C_7  and  C_8
REMARK    4  A    between atoms: C_8  and  C_9
REMARK    5  A    between atoms: C_9  and  N_10
REMARK    6  A    between atoms: C_14  and  C_15
REMARK    7  A    between atoms: C_21  and  C_22
REMARK    8  A    between atoms: C_28  and  C_29
REMARK                            x       y       z     vdW  Elec       q    Type
REMARK                         _______ _______ _______ _____ _____    ______ ____
ROOT
ATOM      1  C   UNL     1      46.554   6.544  12.828  0.00  0.00    +0.000 A 
ATOM      2  C   UNL     1      45.501   5.618  12.748  0.00  0.00    +0.000 A 
ATOM      3  C   UNL     1      44.237   5.949  12.230  0.00  0.00    +0.000 A 
ATOM      4  C   UNL     1      44.012   7.250  11.778  0.00  0.00    +0.000 A 
ATOM      5  C   UNL     1      45.035   8.203  11.832  0.00  0.00    +0.000 A 
ATOM      6  C   UNL     1      46.298   7.828  12.331  0.00  0.00    +0.000 A 
ENDROOT
BRANCH   1  10
ATOM      7  C   UNL     1      48.649   8.788  14.997  0.00  0.00    +0.000 C 
ATOM      8  C   UNL     1      49.469   7.573  14.567  0.00  0.00    +0.000 C 
ATOM      9  C   UNL     1      49.004   6.963  13.227  0.00  0.00    +0.000 C 
ATOM     10  N   UNL     1      47.767   6.181  13.379  0.00  0.00    +0.000 N 
ATOM     11  C   UNL     1      47.819   5.203  14.483  0.00  0.00    +0.000 C 
ATOM     12  C   UNL     1      48.283   5.884  15.790  0.00  0.00    +0.000 C 
ATOM     13  C   UNL     1      48.491   4.849  16.888  0.00  0.00    +0.000 C 
ATOM     14  O   UNL     1      49.529   6.585  15.613  0.00  0.00    +0.000 OA
ENDBRANCH   1  10
BRANCH   5  15
ATOM     15  C   UNL     1      44.790   9.633  11.418  0.00  0.00    +0.000 C 
ATOM     16  F   UNL     1      45.929  10.322  11.132  0.00  0.00    +0.000 F 
ATOM     17  F   UNL     1      44.015   9.721  10.300  0.00  0.00    +0.000 F 
ATOM     18  F   UNL     1      44.146  10.355  12.376  0.00  0.00    +0.000 F 
ENDBRANCH   5  15
BRANCH   3  19
ATOM     19  C   UNL     1      43.109   4.942  12.256  0.00  0.00    +0.000 C 
BRANCH  19  20
ATOM     20  C   UNL     1      43.140   4.075  10.995  0.00  0.00    +0.000 C 
BRANCH  20  21
ATOM     21  N   UNL     1      43.815   4.761   9.886  0.00  0.00    +0.000 N 
ATOM     22  C   UNL     1      44.677   3.906   9.166  0.00  0.00    +0.000 A 
ATOM     23  C   UNL     1      45.407   4.393   8.075  0.00  0.00    +0.000 A 
ATOM     24  N   UNL     1      46.267   3.643   7.329  0.00  0.00    +0.000 NA
ATOM     25  C   UNL     1      46.353   2.339   7.717  0.00  0.00    +0.000 A 
ATOM     26  C   UNL     1      45.621   1.835   8.777  0.00  0.00    +0.000 A 
ATOM     27  N   UNL     1      44.776   2.604   9.511  0.00  0.00    +0.000 NA
ATOM     28  H   UNL     1      44.347   5.570  10.205  0.00  0.00    +0.000 HD
BRANCH  25  29
ATOM     29  C   UNL     1      47.277   1.439   6.978  0.00  0.00    +0.000 C 
ATOM     30  N   UNL     1      48.379   2.032   6.423  0.00  0.00    +0.000 N 
ATOM     31  O   UNL     1      47.077   0.235   6.876  0.00  0.00    +0.000 OA
ATOM     32  H   UNL     1      48.525   3.030   6.519  0.00  0.00    +0.000 HD
ATOM     33  H   UNL     1      49.041   1.462   5.918  0.00  0.00    +0.000 HD
ENDBRANCH  25  29
ENDBRANCH  20  21
ENDBRANCH  19  20
ENDBRANCH   3  19
TORSDOF 6
ENDMDL
MODEL 3
REMARK VINA RESULT:    -7.690      3.078      3.841
REMARK INTER + INTRA:         -11.566
REMARK INTER:                 -10.543
REMARK INTRA:                  -1.023
REMARK UNBOUND:                -1.178
REMARK  Name = 
REMARK  8 active torsions:
REMARK  status: ('A' for Active; 'I' for Inactive)
REMARK    1  A    between atoms: C_1  and  C_2
REMARK    2  A    between atoms: N_4  and  C_5
REMARK    3  A    between atoms: C_7  and  C_8
REMARK    4  A    between atoms: C_8  and  C_9
REMARK    5  A    between atoms: C_9  and  N_10
REMARK    6  A    between atoms: C_14  and  C_15
REMARK    7  A    between atoms: C_21  and  C_22
REMARK    8  A    between atoms: C_28  and  C_29
REMARK                            x       y       z     vdW  Elec       q    Type
REMARK                         _______ _______ _______ _____ _____    ______ ____
ROOT
ATOM      1  C   UNL     1      46.406   7.860  12.869  0.00  0.00    +0.000 A 
ATOM      2  C   UNL     1      45.687   6.657  12.763  0.00  0.00    +0.000 A 
ATOM      3  C   UNL     1      44.495   6.549  12.028  0.00  0.00    +0.000 A 
ATOM      4  C   UNL     1      43.998   7.679  11.376  0.00  0.00    +0.000 A 
ATOM      5  C   UNL     1      44.686   8.896  11.449  0.00  0.00    +0.000 A 
ATOM      6  C   UNL     1      45.894   8.960  12.171  0.00  0.00    +0.000 A 
ENDROOT
BRANCH   1  10
ATOM      7  C   UNL     1      49.892   7.828  11.461  0.00  0.00    +0.000 C 
ATOM      8  C   UNL     1      49.942   7.604  12.971  0.00  0.00    +0.000 C 
ATOM      9  C   UNL     1      48.659   6.959  13.538  0.00  0.00    +0.000 C 
ATOM     10  N   UNL     1      47.555   7.925  13.634  0.00  0.00    +0.000 N 
ATOM     11  C   UNL     1      47.927   9.183  14.310  0.00  0.00    +0.000 C 
ATOM     12  C   UNL     1      49.211   9.774  13.685  0.00  0.00    +0.000 C 
ATOM     13  C   UNL     1      49.686  10.982  14.481  0.00  0.00    +0.000 C 
ATOM     14  O   UNL     1      50.286   8.815  13.669  0.00  0.00    +0.000 OA
ENDBRANCH   1  10
BRANCH   5  15
ATOM     15  C   UNL     1      44.127  10.145  10.813  0.00  0.00    +0.000 C 
ATOM     16  F   UNL     1      43.216   9.897   9.832  0.00  0.00    +0.000 F 
ATOM     17  F   UNL     1      43.491  10.943  11.716  0.00  0.00    +0.000 F 
ATOM     18  F   UNL     1      45.090  10.920  10.243  0.00  0.00    +0.000 F 
ENDBRANCH   5  15
BRANCH   3  19
ATOM     19  C   UNL     1      43.708   5.258  12.026  0.00  0.00    +0.000 C 
BRANCH  19  20
ATOM     20  C   UNL     1      43.492   4.768  10.591  0.00  0.00    +0.000 C 
BRANCH  20  21
ATOM     21  N   UNL     1      43.826   3.345  10.453  0.00  0.00    +0.000 N 
ATOM     22  C   UNL     1      44.747   3.106   9.409  0.00  0.00    +0.000 A 
ATOM     23  C   UNL     1      45.177   1.803   9.131  0.00  0.00    +0.000 A 
ATOM     24  N   UNL     1      46.056   1.479   8.139  0.00  0.00    +0.000 NA
ATOM     25  C   UNL     1      46.517   2.548   7.430  0.00  0.00    +0.000 A 
ATOM     26  C   UNL     1      46.122   3.844   7.706  0.00  0.00    +0.000 A 
ATOM     27  N   UNL     1      45.239   4.141   8.695  0.00  0.00    +0.000 NA
ATOM     28  H   UNL     1      42.999   2.772  10.298  0.00  0.00    +0.000 HD
BRANCH  25  29
ATOM     29  C   UNL     1      47.467   2.300   6.314  0.00  0.00    +0.000 C 
ATOM     30  N   UNL     1      47.391   3.163   5.254  0.00  0.00    +0.000 N 
ATOM     31  O   UNL     1      48.282   1.385   6.337  0.00  0.00    +0.000 OA
ATOM     32  H   UNL     1      46.709   3.914   5.255  0.00  0.00    +0.000 HD
ATOM     33  H   UNL     1      48.021   3.042   4.476  0.00  0.00    +0.000 HD
ENDBRANCH  25  29
ENDBRANCH  20  21
ENDBRANCH  19  20
ENDBRANCH   3  19
TORSDOF 6
ENDMDL
MODEL 4
REMARK VINA RESULT:    -7.376      4.455      8.002
REMARK INTER + INTRA:         -11.142
REMARK INTER:                  -9.981
REMARK INTRA:                  -1.161
REMARK UNBOUND:                -1.178
REMARK  Name = 
REMARK  8 active torsions:
REMARK  status: ('A' for Active; 'I' for Inactive)
REMARK    1  A    between atoms: C_1  and  C_2
REMARK    2  A    between atoms: N_4  and  C_5
REMARK    3  A    between atoms: C_7  and  C_8
REMARK    4  A    between atoms: C_8  and  C_9
REMARK    5  A    between atoms: C_9  and  N_10
REMARK    6  A    between atoms: C_14  and  C_15
REMARK    7  A    between atoms: C_21  and  C_22
REMARK    8  A    between atoms: C_28  and  C_29
REMARK                            x       y       z     vdW  Elec       q    Type
REMARK                         _______ _______ _______ _____ _____    ______ ____
ROOT
ATOM      1  C   UNL     1      45.610   6.873  11.802  0.00  0.00    +0.000 A 
ATOM      2  C   UNL     1      46.770   7.349  12.435  0.00  0.00    +0.000 A 
ATOM      3  C   UNL     1      47.031   8.718  12.613  0.00  0.00    +0.000 A 
ATOM      4  C   UNL     1      46.104   9.648  12.140  0.00  0.00    +0.000 A 
ATOM      5  C   UNL     1      44.931   9.219  11.509  0.00  0.00    +0.000 A 
ATOM      6  C   UNL     1      44.689   7.837  11.375  0.00  0.00    +0.000 A 
ENDROOT
BRANCH   1  10
ATOM      7  C   UNL     1      42.246   5.196  11.813  0.00  0.00    +0.000 C 
ATOM      8  C   UNL     1      43.348   4.143  11.897  0.00  0.00    +0.000 C 
ATOM      9  C   UNL     1      44.649   4.667  12.542  0.00  0.00    +0.000 C 
ATOM     10  N   UNL     1      45.416   5.518  11.618  0.00  0.00    +0.000 N 
ATOM     11  C   UNL     1      45.623   4.910  10.290  0.00  0.00    +0.000 C 
ATOM     12  C   UNL     1      44.281   4.417   9.704  0.00  0.00    +0.000 C 
ATOM     13  C   UNL     1      44.512   3.649   8.409  0.00  0.00    +0.000 C 
ATOM     14  O   UNL     1      43.593   3.537  10.614  0.00  0.00    +0.000 OA
ENDBRANCH   1  10
BRANCH   5  15
ATOM     15  C   UNL     1      43.954  10.209  10.925  0.00  0.00    +0.000 C 
ATOM     16  F   UNL     1      42.722   9.681  10.679  0.00  0.00    +0.000 F 
ATOM     17  F   UNL     1      43.741  11.273  11.750  0.00  0.00    +0.000 F 
ATOM     18  F   UNL     1      44.379  10.733   9.743  0.00  0.00    +0.000 F 
ENDBRANCH   5  15
BRANCH   3  19
ATOM     19  C   UNL     1      48.339   9.179  13.213  0.00  0.00    +0.000 C 
BRANCH  19  20
ATOM     20  C   UNL     1      49.178   7.975  13.651  0.00  0.00    +0.000 C 
BRANCH  20  21
ATOM     21  N   UNL     1      49.452   8.006  15.093  0.00  0.00    +0.000 N 
ATOM     22  C   UNL     1      48.961   6.863  15.761  0.00  0.00    +0.000 A 
ATOM     23  C   UNL     1      49.130   6.725  17.144  0.00  0.00    +0.000 A 
ATOM     24  N   UNL     1      48.682   5.662  17.871  0.00  0.00    +0.000 NA
ATOM     25  C   UNL     1      48.057   4.703  17.131  0.00  0.00    +0.000 A 
ATOM     26  C   UNL     1      47.902   4.811  15.761  0.00  0.00    +0.000 A 
ATOM     27  N   UNL     1      48.350   5.884  15.059  0.00  0.00    +0.000 NA
ATOM     28  H   UNL     1      49.066   8.837  15.537  0.00  0.00    +0.000 HD
BRANCH  25  29
ATOM     29  C   UNL     1      47.515   3.509  17.832  0.00  0.00    +0.000 C 
ATOM     30  N   UNL     1      48.224   3.075  18.920  0.00  0.00    +0.000 N 
ATOM     31  O   UNL     1      46.490   2.946  17.470  0.00  0.00    +0.000 OA
ATOM     32  H   UNL     1      49.072   3.556  19.202  0.00  0.00    +0.000 HD
ATOM     33  H   UNL     1      47.893   2.274  19.435  0.00  0.00    +0.000 HD
ENDBRANCH  25  29
ENDBRANCH  20  21
ENDBRANCH  19  20
ENDBRANCH   3  19
TORSDOF 6
ENDMDL
MODEL 5
REMARK VINA RESULT:    -7.308      2.995      4.373
REMARK INTER + INTRA:         -11.049
REMARK INTER:                  -9.921
REMARK INTRA:                  -1.128
REMARK UNBOUND:                -1.178
REMARK  Name = 
REMARK  8 active torsions:
REMARK  status: ('A' for Active; 'I' for Inactive)
REMARK    1  A    between atoms: C_1  and  C_2
REMARK    2  A    between atoms: N_4  and  C_5
REMARK    3  A    between atoms: C_7  and  C_8
REMARK    4  A    between atoms: C_8  and  C_9
REMARK    5  A    between atoms: C_9  and  N_10
REMARK    6  A    between atoms: C_14  and  C_15
REMARK    7  A    between atoms: C_21  and  C_22
REMARK    8  A    between atoms: C_28  and  C_29
REMARK                            x       y       z     vdW  Elec       q    Type
REMARK                         _______ _______ _______ _____ _____    ______ ____
ROOT
ATOM      1  C   UNL     1      47.569   5.389  15.071  0.00  0.00    +0.000 A 
ATOM      2  C   UNL     1      46.362   4.818  14.633  0.00  0.00    +0.000 A 
ATOM      3  C   UNL     1      45.859   5.013  13.335  0.00  0.00    +0.000 A 
ATOM      4  C   UNL     1      46.582   5.805  12.442  0.00  0.00    +0.000 A 
ATOM      5  C   UNL     1      47.793   6.387  12.835  0.00  0.00    +0.000 A 
ATOM      6  C   UNL     1      48.281   6.146  14.134  0.00  0.00    +0.000 A 
ENDROOT
BRANCH   1  10
ATOM      7  C   UNL     1      48.750   2.095  16.445  0.00  0.00    +0.000 C 
ATOM      8  C   UNL     1      48.524   3.081  17.590  0.00  0.00    +0.000 C 
ATOM      9  C   UNL     1      47.471   4.163  17.268  0.00  0.00    +0.000 C 
ATOM     10  N   UNL     1      48.003   5.198  16.369  0.00  0.00    +0.000 N 
ATOM     11  C   UNL     1      49.298   5.753  16.808  0.00  0.00    +0.000 C 
ATOM     12  C   UNL     1      50.302   4.616  17.103  0.00  0.00    +0.000 C 
ATOM     13  C   UNL     1      51.583   5.176  17.707  0.00  0.00    +0.000 C 
ATOM     14  O   UNL     1      49.766   3.659  18.036  0.00  0.00    +0.000 OA
ENDBRANCH   1  10
BRANCH   5  15
ATOM     15  C   UNL     1      48.551   7.306  11.910  0.00  0.00    +0.000 C 
ATOM     16  F   UNL     1      48.241   8.622  12.073  0.00  0.00    +0.000 F 
ATOM     17  F   UNL     1      49.900   7.219  12.085  0.00  0.00    +0.000 F 
ATOM     18  F   UNL     1      48.328   7.030  10.596  0.00  0.00    +0.000 F 
ENDBRANCH   5  15
BRANCH   3  19
ATOM     19  C   UNL     1      44.508   4.458  12.944  0.00  0.00    +0.000 C 
BRANCH  19  20
ATOM     20  C   UNL     1      44.375   4.407  11.419  0.00  0.00    +0.000 C 
BRANCH  20  21
ATOM     21  N   UNL     1      44.532   3.038  10.911  0.00  0.00    +0.000 N 
ATOM     22  C   UNL     1      45.228   2.995   9.683  0.00  0.00    +0.000 A 
ATOM     23  C   UNL     1      45.467   1.769   9.049  0.00  0.00    +0.000 A 
ATOM     24  N   UNL     1      46.121   1.634   7.859  0.00  0.00    +0.000 NA
ATOM     25  C   UNL     1      46.559   2.809   7.326  0.00  0.00    +0.000 A 
ATOM     26  C   UNL     1      46.353   4.026   7.950  0.00  0.00    +0.000 A 
ATOM     27  N   UNL     1      45.691   4.137   9.131  0.00  0.00    +0.000 NA
ATOM     28  H   UNL     1      43.636   2.567  10.797  0.00  0.00    +0.000 HD
BRANCH  25  29
ATOM     29  C   UNL     1      47.270   2.773   6.021  0.00  0.00    +0.000 C 
ATOM     30  N   UNL     1      48.635   2.685   6.080  0.00  0.00    +0.000 N 
ATOM     31  O   UNL     1      46.676   2.808   4.950  0.00  0.00    +0.000 OA
ATOM     32  H   UNL     1      49.106   2.658   6.977  0.00  0.00    +0.000 HD
ATOM     33  H   UNL     1      49.162   2.649   5.221  0.00  0.00    +0.000 HD
ENDBRANCH  25  29
ENDBRANCH  20  21
ENDBRANCH  19  20
ENDBRANCH   3  19
TORSDOF 6
ENDMDL
MODEL 6
REMARK VINA RESULT:    -7.218      2.972      4.275
REMARK INTER + INTRA:         -10.928
REMARK INTER:                  -9.864
REMARK INTRA:                  -1.064
REMARK UNBOUND:                -1.178
REMARK  Name = 
REMARK  8 active torsions:
REMARK  status: ('A' for Active; 'I' for Inactive)
REMARK    1  A    between atoms: C_1  and  C_2
REMARK    2  A    between atoms: N_4  and  C_5
REMARK    3  A    between atoms: C_7  and  C_8
REMARK    4  A    between atoms: C_8  and  C_9
REMARK    5  A    between atoms: C_9  and  N_10
REMARK    6  A    between atoms: C_14  and  C_15
REMARK    7  A    between atoms: C_21  and  C_22
REMARK    8  A    between atoms: C_28  and  C_29
REMARK                            x       y       z     vdW  Elec       q    Type
REMARK                         _______ _______ _______ _____ _____    ______ ____
ROOT
ATOM      1  C   UNL     1      47.250   5.674  14.272  0.00  0.00    +0.000 A 
ATOM      2  C   UNL     1      46.048   5.067  13.868  0.00  0.00    +0.000 A 
ATOM      3  C   UNL     1      45.169   5.665  12.949  0.00  0.00    +0.000 A 
ATOM      4  C   UNL     1      45.496   6.912  12.414  0.00  0.00    +0.000 A 
ATOM      5  C   UNL     1      46.687   7.548  12.783  0.00  0.00    +0.000 A 
ATOM      6  C   UNL     1      47.558   6.906  13.684  0.00  0.00    +0.000 A 
ENDROOT
BRANCH   1  10
ATOM      7  C   UNL     1      47.746   6.921  17.783  0.00  0.00    +0.000 C 
ATOM      8  C   UNL     1      48.796   5.861  17.458  0.00  0.00    +0.000 C 
ATOM      9  C   UNL     1      49.122   5.761  15.952  0.00  0.00    +0.000 C 
ATOM     10  N   UNL     1      48.064   5.063  15.206  0.00  0.00    +0.000 N 
ATOM     11  C   UNL     1      47.669   3.775  15.807  0.00  0.00    +0.000 C 
ATOM     12  C   UNL     1      47.350   3.952  17.309  0.00  0.00    +0.000 C 
ATOM     13  C   UNL     1      47.098   2.601  17.966  0.00  0.00    +0.000 C 
ATOM     14  O   UNL     1      48.437   4.581  18.014  0.00  0.00    +0.000 OA
ENDBRANCH   1  10
BRANCH   5  15
ATOM     15  C   UNL     1      47.022   8.928  12.273  0.00  0.00    +0.000 C 
ATOM     16  F   UNL     1      47.332   9.815  13.260  0.00  0.00    +0.000 F 
ATOM     17  F   UNL     1      48.093   8.922  11.431  0.00  0.00    +0.000 F 
ATOM     18  F   UNL     1      46.000   9.492  11.572  0.00  0.00    +0.000 F 
ENDBRANCH   5  15
BRANCH   3  19
ATOM     19  C   UNL     1      43.843   5.016  12.622  0.00  0.00    +0.000 C 
BRANCH  19  20
ATOM     20  C   UNL     1      43.714   4.800  11.111  0.00  0.00    +0.000 C 
BRANCH  20  21
ATOM     21  N   UNL     1      43.949   3.398  10.747  0.00  0.00    +0.000 N 
ATOM     22  C   UNL     1      44.789   3.267   9.619  0.00  0.00    +0.000 A 
ATOM     23  C   UNL     1      45.119   1.998   9.127  0.00  0.00    +0.000 A 
ATOM     24  N   UNL     1      45.914   1.778   8.041  0.00  0.00    +0.000 NA
ATOM     25  C   UNL     1      46.399   2.913   7.464  0.00  0.00    +0.000 A 
ATOM     26  C   UNL     1      46.103   4.173   7.951  0.00  0.00    +0.000 A 
ATOM     27  N   UNL     1      45.301   4.368   9.029  0.00  0.00    +0.000 NA
ATOM     28  H   UNL     1      43.079   2.899  10.567  0.00  0.00    +0.000 HD
BRANCH  25  29
ATOM     29  C   UNL     1      47.263   2.782   6.262  0.00  0.00    +0.000 C 
ATOM     30  N   UNL     1      48.584   2.510   6.496  0.00  0.00    +0.000 N 
ATOM     31  O   UNL     1      46.826   2.900   5.124  0.00  0.00    +0.000 OA
ATOM     32  H   UNL     1      48.926   2.417   7.446  0.00  0.00    +0.000 HD
ATOM     33  H   UNL     1      49.210   2.404   5.712  0.00  0.00    +0.000 HD
ENDBRANCH  25  29
ENDBRANCH  20  21
ENDBRANCH  19  20
ENDBRANCH   3  19
TORSDOF 6
ENDMDL
MODEL 7
REMARK VINA RESULT:    -6.743      4.285      6.701
REMARK INTER + INTRA:         -10.286
REMARK INTER:                  -9.115
REMARK INTRA:                  -1.171
REMARK UNBOUND:                -1.178
REMARK  Name = 
REMARK  8 active torsions:
REMARK  status: ('A' for Active; 'I' for Inactive)
REMARK    1  A    between atoms: C_1  and  C_2
REMARK    2  A    between atoms: N_4  and  C_5
REMARK    3  A    between atoms: C_7  and  C_8
REMARK    4  A    between atoms: C_8  and  C_9
REMARK    5  A    between atoms: C_9  and  N_10
REMARK    6  A    between atoms: C_14  and  C_15
REMARK    7  A    between atoms: C_21  and  C_22
REMARK    8  A    between atoms: C_28  and  C_29
REMARK                            x       y       z     vdW  Elec       q    Type
REMARK                         _______ _______ _______ _____ _____    ______ ____
ROOT
ATOM      1  C   UNL     1      48.725   6.740  17.928  0.00  0.00    +0.000 A 
ATOM      2  C   UNL     1      48.926   6.976  16.557  0.00  0.00    +0.000 A 
ATOM      3  C   UNL     1      48.686   8.226  15.960  0.00  0.00    +0.000 A 
ATOM      4  C   UNL     1      48.228   9.277  16.756  0.00  0.00    +0.000 A 
ATOM      5  C   UNL     1      48.021   9.088  18.127  0.00  0.00    +0.000 A 
ATOM      6  C   UNL     1      48.300   7.830  18.696  0.00  0.00    +0.000 A 
ENDROOT
BRANCH   1  10
ATOM      7  C   UNL     1      47.681   3.531  16.272  0.00  0.00    +0.000 C 
ATOM      8  C   UNL     1      48.073   3.259  17.722  0.00  0.00    +0.000 C 
ATOM      9  C   UNL     1      47.880   4.480  18.648  0.00  0.00    +0.000 C 
ATOM     10  N   UNL     1      48.940   5.483  18.461  0.00  0.00    +0.000 N 
ATOM     11  C   UNL     1      50.303   4.919  18.509  0.00  0.00    +0.000 C 
ATOM     12  C   UNL     1      50.423   3.711  17.554  0.00  0.00    +0.000 C 
ATOM     13  C   UNL     1      51.776   3.030  17.720  0.00  0.00    +0.000 C 
ATOM     14  O   UNL     1      49.406   2.724  17.813  0.00  0.00    +0.000 OA
ENDBRANCH   1  10
BRANCH   5  15
ATOM     15  C   UNL     1      47.456  10.190  18.988  0.00  0.00    +0.000 C 
ATOM     16  F   UNL     1      48.343  10.681  19.898  0.00  0.00    +0.000 F 
ATOM     17  F   UNL     1      47.047  11.262  18.254  0.00  0.00    +0.000 F 
ATOM     18  F   UNL     1      46.368   9.792  19.704  0.00  0.00    +0.000 F 
ENDBRANCH   5  15
BRANCH   3  19
ATOM     19  C   UNL     1      48.824   8.402  14.465  0.00  0.00    +0.000 C 
BRANCH  19  20
ATOM     20  C   UNL     1      48.755   7.043  13.761  0.00  0.00    +0.000 C 
BRANCH  20  21
ATOM     21  N   UNL     1      48.082   7.146  12.460  0.00  0.00    +0.000 N 
ATOM     22  C   UNL     1      46.995   6.253  12.343  0.00  0.00    +0.000 A 
ATOM     23  C   UNL     1      46.239   6.211  11.164  0.00  0.00    +0.000 A 
ATOM     24  N   UNL     1      45.179   5.376  10.961  0.00  0.00    +0.000 NA
ATOM     25  C   UNL     1      44.885   4.577  12.024  0.00  0.00    +0.000 A 
ATOM     26  C   UNL     1      45.606   4.621  13.203  0.00  0.00    +0.000 A 
ATOM     27  N   UNL     1      46.663   5.455  13.381  0.00  0.00    +0.000 NA
ATOM     28  H   UNL     1      48.724   6.985  11.685  0.00  0.00    +0.000 HD
BRANCH  25  29
ATOM     29  C   UNL     1      43.757   3.617  11.898  0.00  0.00    +0.000 C 
ATOM     30  N   UNL     1      43.887   2.440  12.585  0.00  0.00    +0.000 N 
ATOM     31  O   UNL     1      42.761   3.861  11.227  0.00  0.00    +0.000 OA
ATOM     32  H   UNL     1      44.720   2.258  13.134  0.00  0.00    +0.000 HD
ATOM     33  H   UNL     1      43.144   1.760  12.538  0.00  0.00    +0.000 HD
ENDBRANCH  25  29
ENDBRANCH  20  21
ENDBRANCH  19  20
ENDBRANCH   3  19
TORSDOF 6
ENDMDL
MODEL 8
REMARK VINA RESULT:    -6.614      4.723      8.189
REMARK INTER + INTRA:         -10.112
REMARK INTER:                  -9.336
REMARK INTRA:                  -0.776
REMARK UNBOUND:                -1.178
REMARK  Name = 
REMARK  8 active torsions:
REMARK  status: ('A' for Active; 'I' for Inactive)
REMARK    1  A    between atoms: C_1  and  C_2
REMARK    2  A    between atoms: N_4  and  C_5
REMARK    3  A    between atoms: C_7  and  C_8
REMARK    4  A    between atoms: C_8  and  C_9
REMARK    5  A    between atoms: C_9  and  N_10
REMARK    6  A    between atoms: C_14  and  C_15
REMARK    7  A    between atoms: C_21  and  C_22
REMARK    8  A    between atoms: C_28  and  C_29
REMARK                            x       y       z     vdW  Elec       q    Type
REMARK                         _______ _______ _______ _____ _____    ______ ____
ROOT
ATOM      1  C   UNL     1      45.920   6.242  12.352  0.00  0.00    +0.000 A 
ATOM      2  C   UNL     1      47.129   6.323  13.063  0.00  0.00    +0.000 A 
ATOM      3  C   UNL     1      47.709   7.548  13.435  0.00  0.00    +0.000 A 
ATOM      4  C   UNL     1      47.064   8.735  13.083  0.00  0.00    +0.000 A 
ATOM      5  C   UNL     1      45.854   8.700  12.381  0.00  0.00    +0.000 A 
ATOM      6  C   UNL     1      45.287   7.454  12.051  0.00  0.00    +0.000 A 
ENDROOT
BRANCH   1  10
ATOM      7  C   UNL     1      42.267   5.555  11.793  0.00  0.00    +0.000 C 
ATOM      8  C   UNL     1      43.036   4.237  11.858  0.00  0.00    +0.000 C 
ATOM      9  C   UNL     1      44.328   4.323  12.699  0.00  0.00    +0.000 C 
ATOM     10  N   UNL     1      45.408   5.014  11.978  0.00  0.00    +0.000 N 
ATOM     11  C   UNL     1      45.629   4.502  10.612  0.00  0.00    +0.000 C 
ATOM     12  C   UNL     1      44.298   4.452   9.830  0.00  0.00    +0.000 C 
ATOM     13  C   UNL     1      44.496   3.776   8.479  0.00  0.00    +0.000 C 
ATOM     14  O   UNL     1      43.288   3.712  10.541  0.00  0.00    +0.000 OA
ENDBRANCH   1  10
BRANCH   5  15
ATOM     15  C   UNL     1      45.181   9.972  11.928  0.00  0.00    +0.000 C 
ATOM     16  F   UNL     1      45.919  11.093  12.158  0.00  0.00    +0.000 F 
ATOM     17  F   UNL     1      44.918   9.970  10.591  0.00  0.00    +0.000 F 
ATOM     18  F   UNL     1      43.984  10.180  12.542  0.00  0.00    +0.000 F 
ENDBRANCH   5  15
BRANCH   3  19
ATOM     19  C   UNL     1      49.060   7.583  14.113  0.00  0.00    +0.000 C 
BRANCH  19  20
ATOM     20  C   UNL     1      48.890   7.638  15.634  0.00  0.00    +0.000 C 
BRANCH  20  21
ATOM     21  N   UNL     1      48.283   6.405  16.152  0.00  0.00    +0.000 N 
ATOM     22  C   UNL     1      49.240   5.517  16.689  0.00  0.00    +0.000 A 
ATOM     23  C   UNL     1      48.839   4.287  17.226  0.00  0.00    +0.000 A 
ATOM     24  N   UNL     1      49.693   3.365  17.756  0.00  0.00    +0.000 NA
ATOM     25  C   UNL     1      51.002   3.745  17.747  0.00  0.00    +0.000 A 
ATOM     26  C   UNL     1      51.413   4.965  17.243  0.00  0.00    +0.000 A 
ATOM     27  N   UNL     1      50.545   5.865  16.712  0.00  0.00    +0.000 NA
ATOM     28  H   UNL     1      47.744   5.916  15.439  0.00  0.00    +0.000 HD
BRANCH  25  29
ATOM     29  C   UNL     1      52.017   2.803  18.288  0.00  0.00    +0.000 C 
ATOM     30  N   UNL     1      51.765   1.471  18.097  0.00  0.00    +0.000 N 
ATOM     31  O   UNL     1      53.027   3.188  18.863  0.00  0.00    +0.000 OA
ATOM     32  H   UNL     1      50.922   1.174  17.618  0.00  0.00    +0.000 HD
ATOM     33  H   UNL     1      52.428   0.792  18.438  0.00  0.00    +0.000 HD
ENDBRANCH  25  29
ENDBRANCH  20  21
ENDBRANCH  19  20
ENDBRANCH   3  19
TORSDOF 6
ENDMDL
MODEL 9
REMARK VINA RESULT:    -6.411      4.688      6.598
REMARK INTER + INTRA:          -9.837
REMARK INTER:                  -8.740
REMARK INTRA:                  -1.098
REMARK UNBOUND:                -1.178
REMARK  Name = 
REMARK  8 active torsions:
REMARK  status: ('A' for Active; 'I' for Inactive)
REMARK    1  A    between atoms: C_1  and  C_2
REMARK    2  A    between atoms: N_4  and  C_5
REMARK    3  A    between atoms: C_7  and  C_8
REMARK    4  A    between atoms: C_8  and  C_9
REMARK    5  A    between atoms: C_9  and  N_10
REMARK    6  A    between atoms: C_14  and  C_15
REMARK    7  A    between atoms: C_21  and  C_22
REMARK    8  A    between atoms: C_28  and  C_29
REMARK                            x       y       z     vdW  Elec       q    Type
REMARK                         _______ _______ _______ _____ _____    ______ ____
ROOT
ATOM      1  C   UNL     1      51.089   5.462  17.695  0.00  0.00    +0.000 A 
ATOM      2  C   UNL     1      50.635   6.517  16.885  0.00  0.00    +0.000 A 
ATOM      3  C   UNL     1      49.363   6.523  16.288  0.00  0.00    +0.000 A 
ATOM      4  C   UNL     1      48.512   5.438  16.502  0.00  0.00    +0.000 A 
ATOM      5  C   UNL     1      48.920   4.368  17.307  0.00  0.00    +0.000 A 
ATOM      6  C   UNL     1      50.191   4.410  17.913  0.00  0.00    +0.000 A 
ENDROOT
BRANCH   1  10
ATOM      7  C   UNL     1      53.186   2.402  18.300  0.00  0.00    +0.000 C 
ATOM      8  C   UNL     1      53.806   3.602  19.013  0.00  0.00    +0.000 C 
ATOM      9  C   UNL     1      52.776   4.687  19.394  0.00  0.00    +0.000 C 
ATOM     10  N   UNL     1      52.362   5.485  18.230  0.00  0.00    +0.000 N 
ATOM     11  C   UNL     1      53.493   6.003  17.436  0.00  0.00    +0.000 C 
ATOM     12  C   UNL     1      54.475   4.863  17.084  0.00  0.00    +0.000 C 
ATOM     13  C   UNL     1      55.719   5.419  16.405  0.00  0.00    +0.000 C 
ATOM     14  O   UNL     1      54.905   4.148  18.259  0.00  0.00    +0.000 OA
ENDBRANCH   1  10
BRANCH   5  15
ATOM     15  C   UNL     1      48.044   3.153  17.490  0.00  0.00    +0.000 C 
ATOM     16  F   UNL     1      48.399   2.101  16.701  0.00  0.00    +0.000 F 
ATOM     17  F   UNL     1      48.072   2.683  18.768  0.00  0.00    +0.000 F 
ATOM     18  F   UNL     1      46.735   3.403  17.213  0.00  0.00    +0.000 F 
ENDBRANCH   5  15
BRANCH   3  19
ATOM     19  C   UNL     1      48.962   7.637  15.348  0.00  0.00    +0.000 C 
BRANCH  19  20
ATOM     20  C   UNL     1      48.510   7.061  14.003  0.00  0.00    +0.000 C 
BRANCH  20  21
ATOM     21  N   UNL     1      47.160   7.515  13.649  0.00  0.00    +0.000 N 
ATOM     22  C   UNL     1      46.337   6.462  13.194  0.00  0.00    +0.000 A 
ATOM     23  C   UNL     1      45.014   6.714  12.809  0.00  0.00    +0.000 A 
ATOM     24  N   UNL     1      44.153   5.761  12.351  0.00  0.00    +0.000 NA
ATOM     25  C   UNL     1      44.678   4.504  12.313  0.00  0.00    +0.000 A 
ATOM     26  C   UNL     1      45.974   4.233  12.712  0.00  0.00    +0.000 A 
ATOM     27  N   UNL     1      46.817   5.200  13.157  0.00  0.00    +0.000 NA
ATOM     28  H   UNL     1      47.177   8.247  12.941  0.00  0.00    +0.000 HD
BRANCH  25  29
ATOM     29  C   UNL     1      43.825   3.395  11.811  0.00  0.00    +0.000 C 
ATOM     30  N   UNL     1      43.705   2.307  12.634  0.00  0.00    +0.000 N 
ATOM     31  O   UNL     1      43.251   3.447  10.731  0.00  0.00    +0.000 OA
ATOM     32  H   UNL     1      44.190   2.284  13.524  0.00  0.00    +0.000 HD
ATOM     33  H   UNL     1      43.130   1.532  12.342  0.00  0.00    +0.000 HD
ENDBRANCH  25  29
ENDBRANCH  20  21
ENDBRANCH  19  20
ENDBRANCH   3  19
TORSDOF 6
ENDMDL
