MODEL 1
REMARK VINA RESULT:    -8.798      0.000      0.000
REMARK INTER + INTRA:         -12.366
REMARK INTER:                 -11.885
REMARK INTRA:                  -0.481
REMARK UNBOUND:                -0.481
REMARK  Name = 
REMARK  7 active torsions:
REMARK  status: ('A' for Active; 'I' for Inactive)
REMARK    1  A    between atoms: C_1  and  C_2
REMARK    2  A    between atoms: C_2  and  N_3
REMARK    3  A    between atoms: C_2  and  C_16
REMARK    4  A    between atoms: C_4  and  C_6
REMARK    5  A    between atoms: C_19  and  O_20
REMARK    6  A    between atoms: O_20  and  C_21
REMARK    7  A    between atoms: C_21  and  C_22
REMARK                            x       y       z     vdW  Elec       q    Type
REMARK                         _______ _______ _______ _____ _____    ______ ____
ROOT
ATOM      1  C   UNL     1      47.565   8.697  12.110  0.00  0.00    +0.000 C 
ATOM      2  C   UNL     1      46.583   7.981  13.048  0.00  0.00    +0.000 C 
ENDROOT
BRANCH   2   3
ATOM      3  C   UNL     1      45.903   6.801  12.376  0.00  0.00    +0.000 A 
ATOM      4  C   UNL     1      46.060   6.608  10.995  0.00  0.00    +0.000 A 
ATOM      5  C   UNL     1      45.647   5.418  10.393  0.00  0.00    +0.000 A 
ATOM      6  C   UNL     1      45.066   4.413  11.163  0.00  0.00    +0.000 A 
ATOM      7  C   UNL     1      44.751   4.667  12.497  0.00  0.00    +0.000 A 
ATOM      8  C   UNL     1      45.169   5.853  13.100  0.00  0.00    +0.000 A 
BRANCH   6   9
ATOM      9  O   UNL     1      44.871   3.208  10.540  0.00  0.00    +0.000 OA
BRANCH   9  10
ATOM     10  C   UNL     1      44.506   3.321   9.157  0.00  0.00    +0.000 C 
BRANCH  10  11
ATOM     11  C   UNL     1      45.516   2.640   8.265  0.00  0.00    +0.000 A 
ATOM     12  C   UNL     1      46.188   3.368   7.284  0.00  0.00    +0.000 A 
ATOM     13  C   UNL     1      47.171   2.732   6.531  0.00  0.00    +0.000 A 
ATOM     14  C   UNL     1      47.458   1.395   6.779  0.00  0.00    +0.000 A 
ATOM     15  C   UNL     1      46.751   0.747   7.776  0.00  0.00    +0.000 A 
ATOM     16  N   UNL     1      45.796   1.337   8.526  0.00  0.00    +0.000 NA
ENDBRANCH  10  11
ENDBRANCH   9  10
ENDBRANCH   6   9
ENDBRANCH   2   3
BRANCH   2  17
ATOM     17  N   UNL     1      47.223   7.578  14.281  0.00  0.00    +0.000 N 
ATOM     18  C   UNL     1      48.268   6.692  14.298  0.00  0.00    +0.000 C 
ATOM     19  O   UNL     1      48.739   6.236  13.258  0.00  0.00    +0.000 OA
ATOM     20  H   UNL     1      46.818   7.921  15.147  0.00  0.00    +0.000 HD
BRANCH  18  21
ATOM     21  C   UNL     1      48.819   6.299  15.607  0.00  0.00    +0.000 A 
ATOM     22  C   UNL     1      49.826   7.070  16.176  0.00  0.00    +0.000 A 
ATOM     23  S   UNL     1      50.380   6.484  17.676  0.00  0.00    +0.000 S 
ATOM     24  C   UNL     1      49.306   5.169  17.618  0.00  0.00    +0.000 A 
ATOM     25  N   UNL     1      49.292   4.243  18.614  0.00  0.00    +0.000 NA
ATOM     26  C   UNL     1      48.438   3.289  18.444  0.00  0.00    +0.000 A 
ATOM     27  N   UNL     1      47.590   3.185  17.374  0.00  0.00    +0.000 N 
ATOM     28  C   UNL     1      47.562   4.100  16.349  0.00  0.00    +0.000 A 
ATOM     29  O   UNL     1      46.780   3.972  15.412  0.00  0.00    +0.000 OA
ATOM     30  C   UNL     1      48.517   5.186  16.479  0.00  0.00    +0.000 A 
ATOM     31  H   UNL     1      46.937   2.419  17.304  0.00  0.00    +0.000 HD
ENDBRANCH  18  21
ENDBRANCH   2  17
TORSDOF 6
ENDMDL
MODEL 2
REMARK VINA RESULT:    -8.376      2.001      2.311
REMARK INTER + INTRA:         -11.795
REMARK INTER:                 -11.131
REMARK INTRA:                  -0.664
REMARK UNBOUND:                -0.481
REMARK  Name = 
REMARK  7 active torsions:
REMARK  status: ('A' for Active; 'I' for Inactive)
REMARK    1  A    between atoms: C_1  and  C_2
REMARK    2  A    between atoms: C_2  and  N_3
REMARK    3  A    between atoms: C_2  and  C_16
REMARK    4  A    between atoms: C_4  and  C_6
REMARK    5  A    between atoms: C_19  and  O_20
REMARK    6  A    between atoms: O_20  and  C_21
REMARK    7  A    between atoms: C_21  and  C_22
REMARK                            x       y       z     vdW  Elec       q    Type
REMARK                         _______ _______ _______ _____ _____    ______ ____
ROOT
ATOM      1  C   UNL     1      48.944   6.676  12.779  0.00  0.00    +0.000 C 
ATOM      2  C   UNL     1      47.591   6.607  13.504  0.00  0.00    +0.000 C 
ENDROOT
BRANCH   2   3
ATOM      3  C   UNL     1      46.515   5.959  12.651  0.00  0.00    +0.000 A 
ATOM      4  C   UNL     1      46.138   6.560  11.440  0.00  0.00    +0.000 A 
ATOM      5  C   UNL     1      45.328   5.876  10.531  0.00  0.00    +0.000 A 
ATOM      6  C   UNL     1      44.882   4.590  10.825  0.00  0.00    +0.000 A 
ATOM      7  C   UNL     1      45.109   4.060  12.095  0.00  0.00    +0.000 A 
ATOM      8  C   UNL     1      45.922   4.739  13.001  0.00  0.00    +0.000 A 
BRANCH   6   9
ATOM      9  O   UNL     1      44.262   3.915   9.806  0.00  0.00    +0.000 OA
BRANCH   9  10
ATOM     10  C   UNL     1      44.691   2.552   9.669  0.00  0.00    +0.000 C 
BRANCH  10  11
ATOM     11  C   UNL     1      45.572   2.374   8.456  0.00  0.00    +0.000 A 
ATOM     12  C   UNL     1      45.740   3.422   7.552  0.00  0.00    +0.000 A 
ATOM     13  C   UNL     1      46.621   3.257   6.487  0.00  0.00    +0.000 A 
ATOM     14  C   UNL     1      47.309   2.057   6.355  0.00  0.00    +0.000 A 
ATOM     15  C   UNL     1      47.092   1.070   7.299  0.00  0.00    +0.000 A 
ATOM     16  N   UNL     1      46.249   1.202   8.345  0.00  0.00    +0.000 NA
ENDBRANCH  10  11
ENDBRANCH   9  10
ENDBRANCH   6   9
ENDBRANCH   2   3
BRANCH   2  17
ATOM     17  N   UNL     1      47.709   5.944  14.784  0.00  0.00    +0.000 N 
ATOM     18  C   UNL     1      48.432   6.485  15.815  0.00  0.00    +0.000 C 
ATOM     19  O   UNL     1      48.974   7.583  15.711  0.00  0.00    +0.000 OA
ATOM     20  H   UNL     1      47.296   5.020  14.867  0.00  0.00    +0.000 HD
BRANCH  18  21
ATOM     21  C   UNL     1      48.541   5.708  17.063  0.00  0.00    +0.000 A 
ATOM     22  C   UNL     1      48.974   4.389  17.004  0.00  0.00    +0.000 A 
ATOM     23  S   UNL     1      49.029   3.611  18.517  0.00  0.00    +0.000 S 
ATOM     24  C   UNL     1      48.462   5.003  19.311  0.00  0.00    +0.000 A 
ATOM     25  N   UNL     1      48.254   4.996  20.655  0.00  0.00    +0.000 NA
ATOM     26  C   UNL     1      47.813   6.111  21.133  0.00  0.00    +0.000 A 
ATOM     27  N   UNL     1      47.571   7.235  20.388  0.00  0.00    +0.000 N 
ATOM     28  C   UNL     1      47.774   7.292  19.030  0.00  0.00    +0.000 A 
ATOM     29  O   UNL     1      47.552   8.323  18.403  0.00  0.00    +0.000 OA
ATOM     30  C   UNL     1      48.254   6.057  18.437  0.00  0.00    +0.000 A 
ATOM     31  H   UNL     1      47.235   8.081  20.823  0.00  0.00    +0.000 HD
ENDBRANCH  18  21
ENDBRANCH   2  17
TORSDOF 6
ENDMDL
MODEL 3
REMARK VINA RESULT:    -8.127      2.080      2.518
REMARK INTER + INTRA:         -11.458
REMARK INTER:                 -10.322
REMARK INTRA:                  -1.136
REMARK UNBOUND:                -0.481
REMARK  Name = 
REMARK  7 active torsions:
REMARK  status: ('A' for Active; 'I' for Inactive)
REMARK    1  A    between atoms: C_1  and  C_2
REMARK    2  A    between atoms: C_2  and  N_3
REMARK    3  A    between atoms: C_2  and  C_16
REMARK    4  A    between atoms: C_4  and  C_6
REMARK    5  A    between atoms: C_19  and  O_20
REMARK    6  A    between atoms: O_20  and  C_21
REMARK    7  A    between atoms: C_21  and  C_22
REMARK                            x       y       z     vdW  Elec       q    Type
REMARK                         _______ _______ _______ _____ _____    ______ ____
ROOT
ATOM      1  C   UNL     1      48.606   8.140  14.078  0.00  0.00    +0.000 C 
ATOM      2  C   UNL     1      48.052   6.851  14.701  0.00  0.00    +0.000 C 
ENDROOT
BRANCH   2   3
ATOM      3  C   UNL     1      47.287   6.009  13.695  0.00  0.00    +0.000 A 
ATOM      4  C   UNL     1      46.998   4.668  13.994  0.00  0.00    +0.000 A 
ATOM      5  C   UNL     1      46.106   3.942  13.203  0.00  0.00    +0.000 A 
ATOM      6  C   UNL     1      45.501   4.544  12.102  0.00  0.00    +0.000 A 
ATOM      7  C   UNL     1      45.915   5.814  11.702  0.00  0.00    +0.000 A 
ATOM      8  C   UNL     1      46.801   6.542  12.495  0.00  0.00    +0.000 A 
BRANCH   6   9
ATOM      9  O   UNL     1      44.495   3.834  11.499  0.00  0.00    +0.000 OA
BRANCH   9  10
ATOM     10  C   UNL     1      44.188   4.280  10.169  0.00  0.00    +0.000 C 
BRANCH  10  11
ATOM     11  C   UNL     1      45.038   3.569   9.143  0.00  0.00    +0.000 A 
ATOM     12  C   UNL     1      45.746   4.301   8.191  0.00  0.00    +0.000 A 
ATOM     13  C   UNL     1      46.583   3.624   7.309  0.00  0.00    +0.000 A 
ATOM     14  C   UNL     1      46.693   2.242   7.402  0.00  0.00    +0.000 A 
ATOM     15  C   UNL     1      45.962   1.591   8.380  0.00  0.00    +0.000 A 
ATOM     16  N   UNL     1      45.146   2.220   9.253  0.00  0.00    +0.000 NA
ENDBRANCH  10  11
ENDBRANCH   9  10
ENDBRANCH   6   9
ENDBRANCH   2   3
BRANCH   2  17
ATOM     17  N   UNL     1      49.096   6.078  15.337  0.00  0.00    +0.000 N 
ATOM     18  C   UNL     1      49.227   6.021  16.700  0.00  0.00    +0.000 C 
ATOM     19  O   UNL     1      48.429   6.588  17.445  0.00  0.00    +0.000 OA
ATOM     20  H   UNL     1      49.781   5.637  14.730  0.00  0.00    +0.000 HD
BRANCH  18  21
ATOM     21  C   UNL     1      50.356   5.253  17.254  0.00  0.00    +0.000 A 
ATOM     22  C   UNL     1      51.412   5.935  17.848  0.00  0.00    +0.000 A 
ATOM     23  S   UNL     1      52.654   4.921  18.422  0.00  0.00    +0.000 S 
ATOM     24  C   UNL     1      51.837   3.530  17.886  0.00  0.00    +0.000 A 
ATOM     25  N   UNL     1      52.390   2.298  18.048  0.00  0.00    +0.000 NA
ATOM     26  C   UNL     1      51.673   1.327  17.588  0.00  0.00    +0.000 A 
ATOM     27  N   UNL     1      50.450   1.478  16.991  0.00  0.00    +0.000 N 
ATOM     28  C   UNL     1      49.849   2.701  16.812  0.00  0.00    +0.000 A 
ATOM     29  O   UNL     1      48.748   2.789  16.279  0.00  0.00    +0.000 OA
ATOM     30  C   UNL     1      50.621   3.831  17.295  0.00  0.00    +0.000 A 
ATOM     31  H   UNL     1      49.934   0.676  16.660  0.00  0.00    +0.000 HD
ENDBRANCH  18  21
ENDBRANCH   2  17
TORSDOF 6
ENDMDL
MODEL 4
REMARK VINA RESULT:    -8.083      2.621      3.559
REMARK INTER + INTRA:         -11.400
REMARK INTER:                 -10.491
REMARK INTRA:                  -0.909
REMARK UNBOUND:                -0.481
REMARK  Name = 
REMARK  7 active torsions:
REMARK  status: ('A' for Active; 'I' for Inactive)
REMARK    1  A    between atoms: C_1  and  C_2
REMARK    2  A    between atoms: C_2  and  N_3
REMARK    3  A    between atoms: C_2  and  C_16
REMARK    4  A    between atoms: C_4  and  C_6
REMARK    5  A    between atoms: C_19  and  O_20
REMARK    6  A    between atoms: O_20  and  C_21
REMARK    7  A    between atoms: C_21  and  C_22
REMARK                            x       y       z     vdW  Elec       q    Type
REMARK                         _______ _______ _______ _____ _____    ______ ____
ROOT
ATOM      1  C   UNL     1      47.169   4.286  15.724  0.00  0.00    +0.000 C 
ATOM      2  C   UNL     1      47.494   5.089  14.457  0.00  0.00    +0.000 C 
ENDROOT
BRANCH   2   3
ATOM      3  C   UNL     1      46.481   4.854  13.351  0.00  0.00    +0.000 A 
ATOM      4  C   UNL     1      46.295   5.835  12.364  0.00  0.00    +0.000 A 
ATOM      5  C   UNL     1      45.550   5.555  11.217  0.00  0.00    +0.000 A 
ATOM      6  C   UNL     1      44.977   4.297  11.048  0.00  0.00    +0.000 A 
ATOM      7  C   UNL     1      45.012   3.381  12.099  0.00  0.00    +0.000 A 
ATOM      8  C   UNL     1      45.761   3.658  13.242  0.00  0.00    +0.000 A 
BRANCH   6   9
ATOM      9  O   UNL     1      44.433   4.038   9.817  0.00  0.00    +0.000 OA
BRANCH   9  10
ATOM     10  C   UNL     1      44.509   2.658   9.428  0.00  0.00    +0.000 C 
BRANCH  10  11
ATOM     11  C   UNL     1      45.530   2.452   8.335  0.00  0.00    +0.000 A 
ATOM     12  C   UNL     1      45.854   3.499   7.472  0.00  0.00    +0.000 A 
ATOM     13  C   UNL     1      46.856   3.304   6.526  0.00  0.00    +0.000 A 
ATOM     14  C   UNL     1      47.507   2.077   6.468  0.00  0.00    +0.000 A 
ATOM     15  C   UNL     1      47.130   1.094   7.365  0.00  0.00    +0.000 A 
ATOM     16  N   UNL     1      46.166   1.254   8.297  0.00  0.00    +0.000 NA
ENDBRANCH  10  11
ENDBRANCH   9  10
ENDBRANCH   6   9
ENDBRANCH   2   3
BRANCH   2  17
ATOM     17  N   UNL     1      47.632   6.500  14.744  0.00  0.00    +0.000 N 
ATOM     18  C   UNL     1      48.776   7.020  15.289  0.00  0.00    +0.000 C 
ATOM     19  O   UNL     1      49.758   6.314  15.513  0.00  0.00    +0.000 OA
ATOM     20  H   UNL     1      46.814   7.084  14.596  0.00  0.00    +0.000 HD
BRANCH  18  21
ATOM     21  C   UNL     1      48.801   8.461  15.598  0.00  0.00    +0.000 A 
ATOM     22  C   UNL     1      49.166   9.361  14.604  0.00  0.00    +0.000 A 
ATOM     23  S   UNL     1      49.171  10.986  15.110  0.00  0.00    +0.000 S 
ATOM     24  C   UNL     1      48.700  10.551  16.685  0.00  0.00    +0.000 A 
ATOM     25  N   UNL     1      48.549  11.499  17.648  0.00  0.00    +0.000 NA
ATOM     26  C   UNL     1      48.199  11.037  18.801  0.00  0.00    +0.000 A 
ATOM     27  N   UNL     1      47.975   9.713  19.074  0.00  0.00    +0.000 N 
ATOM     28  C   UNL     1      48.107   8.721  18.131  0.00  0.00    +0.000 A 
ATOM     29  O   UNL     1      47.889   7.548  18.417  0.00  0.00    +0.000 OA
ATOM     30  C   UNL     1      48.518   9.184  16.818  0.00  0.00    +0.000 A 
ATOM     31  H   UNL     1      47.693   9.415  19.996  0.00  0.00    +0.000 HD
ENDBRANCH  18  21
ENDBRANCH   2  17
TORSDOF 6
ENDMDL
MODEL 5
REMARK VINA RESULT:    -7.756      1.895      2.562
REMARK INTER + INTRA:         -10.958
REMARK INTER:                  -9.886
REMARK INTRA:                  -1.072
REMARK UNBOUND:                -0.481
REMARK  Name = 
REMARK  7 active torsions:
REMARK  status: ('A' for Active; 'I' for Inactive)
REMARK    1  A    between atoms: C_1  and  C_2
REMARK    2  A    between atoms: C_2  and  N_3
REMARK    3  A    between atoms: C_2  and  C_16
REMARK    4  A    between atoms: C_4  and  C_6
REMARK    5  A    between atoms: C_19  and  O_20
REMARK    6  A    between atoms: O_20  and  C_21
REMARK    7  A    between atoms: C_21  and  C_22
REMARK                            x       y       z     vdW  Elec       q    Type
REMARK                         _______ _______ _______ _____ _____    ______ ____
ROOT
ATOM      1  C   UNL     1      49.090   7.345  12.027  0.00  0.00    +0.000 C 
ATOM      2  C   UNL     1      48.007   7.048  13.075  0.00  0.00    +0.000 C 
ENDROOT
BRANCH   2   3
ATOM      3  C   UNL     1      46.872   6.214  12.508  0.00  0.00    +0.000 A 
ATOM      4  C   UNL     1      46.193   6.660  11.363  0.00  0.00    +0.000 A 
ATOM      5  C   UNL     1      45.310   5.814  10.688  0.00  0.00    +0.000 A 
ATOM      6  C   UNL     1      45.092   4.520  11.153  0.00  0.00    +0.000 A 
ATOM      7  C   UNL     1      45.629   4.133  12.381  0.00  0.00    +0.000 A 
ATOM      8  C   UNL     1      46.515   4.975  13.053  0.00  0.00    +0.000 A 
BRANCH   6   9
ATOM      9  O   UNL     1      44.372   3.692  10.331  0.00  0.00    +0.000 OA
BRANCH   9  10
ATOM     10  C   UNL     1      44.479   4.022   8.938  0.00  0.00    +0.000 C 
BRANCH  10  11
ATOM     11  C   UNL     1      45.480   3.132   8.240  0.00  0.00    +0.000 A 
ATOM     12  C   UNL     1      46.392   3.678   7.337  0.00  0.00    +0.000 A 
ATOM     13  C   UNL     1      47.354   2.848   6.770  0.00  0.00    +0.000 A 
ATOM     14  C   UNL     1      47.383   1.503   7.120  0.00  0.00    +0.000 A 
ATOM     15  C   UNL     1      46.448   1.042   8.029  0.00  0.00    +0.000 A 
ATOM     16  N   UNL     1      45.506   1.824   8.600  0.00  0.00    +0.000 NA
ENDBRANCH  10  11
ENDBRANCH   9  10
ENDBRANCH   6   9
ENDBRANCH   2   3
BRANCH   2  17
ATOM     17  N   UNL     1      48.567   6.429  14.256  0.00  0.00    +0.000 N 
ATOM     18  C   UNL     1      48.726   7.119  15.429  0.00  0.00    +0.000 C 
ATOM     19  O   UNL     1      48.353   8.285  15.543  0.00  0.00    +0.000 OA
ATOM     20  H   UNL     1      48.912   5.478  14.161  0.00  0.00    +0.000 HD
BRANCH  18  21
ATOM     21  C   UNL     1      49.358   6.419  16.562  0.00  0.00    +0.000 A 
ATOM     22  C   UNL     1      48.552   5.810  17.516  0.00  0.00    +0.000 A 
ATOM     23  S   UNL     1      49.418   5.060  18.776  0.00  0.00    +0.000 S 
ATOM     24  C   UNL     1      50.906   5.532  18.104  0.00  0.00    +0.000 A 
ATOM     25  N   UNL     1      52.075   5.223  18.726  0.00  0.00    +0.000 NA
ATOM     26  C   UNL     1      53.132   5.648  18.118  0.00  0.00    +0.000 A 
ATOM     27  N   UNL     1      53.125   6.344  16.939  0.00  0.00    +0.000 N 
ATOM     28  C   UNL     1      51.969   6.672  16.270  0.00  0.00    +0.000 A 
ATOM     29  O   UNL     1      52.009   7.291  15.211  0.00  0.00    +0.000 OA
ATOM     30  C   UNL     1      50.748   6.234  16.920  0.00  0.00    +0.000 A 
ATOM     31  H   UNL     1      53.987   6.641  16.507  0.00  0.00    +0.000 HD
ENDBRANCH  18  21
ENDBRANCH   2  17
TORSDOF 6
ENDMDL
MODEL 6
REMARK VINA RESULT:    -7.666      2.567      3.678
REMARK INTER + INTRA:         -10.836
REMARK INTER:                  -9.761
REMARK INTRA:                  -1.075
REMARK UNBOUND:                -0.481
REMARK  Name = 
REMARK  7 active torsions:
REMARK  status: ('A' for Active; 'I' for Inactive)
REMARK    1  A    between atoms: C_1  and  C_2
REMARK    2  A    between atoms: C_2  and  N_3
REMARK    3  A    between atoms: C_2  and  C_16
REMARK    4  A    between atoms: C_4  and  C_6
REMARK    5  A    between atoms: C_19  and  O_20
REMARK    6  A    between atoms: O_20  and  C_21
REMARK    7  A    between atoms: C_21  and  C_22
REMARK                            x       y       z     vdW  Elec       q    Type
REMARK                         _______ _______ _______ _____ _____    ______ ____
ROOT
ATOM      1  C   UNL     1      47.547   3.221  15.484  0.00  0.00    +0.000 C 
ATOM      2  C   UNL     1      47.769   4.650  14.967  0.00  0.00    +0.000 C 
ENDROOT
BRANCH   2   3
ATOM      3  C   UNL     1      46.855   4.989  13.803  0.00  0.00    +0.000 A 
ATOM      4  C   UNL     1      47.226   6.002  12.906  0.00  0.00    +0.000 A 
ATOM      5  C   UNL     1      46.531   6.179  11.707  0.00  0.00    +0.000 A 
ATOM      6  C   UNL     1      45.455   5.350  11.398  0.00  0.00    +0.000 A 
ATOM      7  C   UNL     1      44.976   4.460  12.359  0.00  0.00    +0.000 A 
ATOM      8  C   UNL     1      45.673   4.280  13.553  0.00  0.00    +0.000 A 
BRANCH   6   9
ATOM      9  O   UNL     1      44.954   5.455  10.126  0.00  0.00    +0.000 OA
BRANCH   9  10
ATOM     10  C   UNL     1      44.290   4.269   9.665  0.00  0.00    +0.000 C 
BRANCH  10  11
ATOM     11  C   UNL     1      45.191   3.446   8.776  0.00  0.00    +0.000 A 
ATOM     12  C   UNL     1      45.983   4.068   7.812  0.00  0.00    +0.000 A 
ATOM     13  C   UNL     1      46.863   3.293   7.062  0.00  0.00    +0.000 A 
ATOM     14  C   UNL     1      46.931   1.924   7.296  0.00  0.00    +0.000 A 
ATOM     15  C   UNL     1      46.117   1.386   8.277  0.00  0.00    +0.000 A 
ATOM     16  N   UNL     1      45.258   2.113   9.024  0.00  0.00    +0.000 NA
ENDBRANCH  10  11
ENDBRANCH   9  10
ENDBRANCH   6   9
ENDBRANCH   2   3
BRANCH   2  17
ATOM     17  N   UNL     1      47.640   5.624  16.029  0.00  0.00    +0.000 N 
ATOM     18  C   UNL     1      48.734   6.200  16.619  0.00  0.00    +0.000 C 
ATOM     19  O   UNL     1      49.876   5.949  16.237  0.00  0.00    +0.000 OA
ATOM     20  H   UNL     1      46.704   5.810  16.375  0.00  0.00    +0.000 HD
BRANCH  18  21
ATOM     21  C   UNL     1      48.504   7.140  17.731  0.00  0.00    +0.000 A 
ATOM     22  C   UNL     1      48.511   6.659  19.035  0.00  0.00    +0.000 A 
ATOM     23  S   UNL     1      48.209   7.851  20.213  0.00  0.00    +0.000 S 
ATOM     24  C   UNL     1      48.043   9.056  19.025  0.00  0.00    +0.000 A 
ATOM     25  N   UNL     1      47.744  10.336  19.375  0.00  0.00    +0.000 NA
ATOM     26  C   UNL     1      47.635  11.150  18.379  0.00  0.00    +0.000 A 
ATOM     27  N   UNL     1      47.810  10.801  17.066  0.00  0.00    +0.000 N 
ATOM     28  C   UNL     1      48.121   9.523  16.666  0.00  0.00    +0.000 A 
ATOM     29  O   UNL     1      48.277   9.257  15.478  0.00  0.00    +0.000 OA
ATOM     30  C   UNL     1      48.237   8.561  17.746  0.00  0.00    +0.000 A 
ATOM     31  H   UNL     1      47.721  11.488  16.332  0.00  0.00    +0.000 HD
ENDBRANCH  18  21
ENDBRANCH   2  17
TORSDOF 6
ENDMDL
MODEL 7
REMARK VINA RESULT:    -7.583      4.628      8.592
REMARK INTER + INTRA:         -10.724
REMARK INTER:                  -9.632
REMARK INTRA:                  -1.091
REMARK UNBOUND:                -0.481
REMARK  Name = 
REMARK  7 active torsions:
REMARK  status: ('A' for Active; 'I' for Inactive)
REMARK    1  A    between atoms: C_1  and  C_2
REMARK    2  A    between atoms: C_2  and  N_3
REMARK    3  A    between atoms: C_2  and  C_16
REMARK    4  A    between atoms: C_4  and  C_6
REMARK    5  A    between atoms: C_19  and  O_20
REMARK    6  A    between atoms: O_20  and  C_21
REMARK    7  A    between atoms: C_21  and  C_22
REMARK                            x       y       z     vdW  Elec       q    Type
REMARK                         _______ _______ _______ _____ _____    ______ ____
ROOT
ATOM      1  C   UNL     1      47.923   5.545  18.610  0.00  0.00    +0.000 C 
ATOM      2  C   UNL     1      48.761   5.511  17.324  0.00  0.00    +0.000 C 
ENDROOT
BRANCH   2   3
ATOM      3  C   UNL     1      49.727   4.340  17.298  0.00  0.00    +0.000 A 
ATOM      4  C   UNL     1      51.085   4.560  17.576  0.00  0.00    +0.000 A 
ATOM      5  C   UNL     1      51.949   3.483  17.787  0.00  0.00    +0.000 A 
ATOM      6  C   UNL     1      51.467   2.178  17.715  0.00  0.00    +0.000 A 
ATOM      7  C   UNL     1      50.165   1.953  17.270  0.00  0.00    +0.000 A 
ATOM      8  C   UNL     1      49.300   3.027  17.065  0.00  0.00    +0.000 A 
BRANCH   6   9
ATOM      9  O   UNL     1      52.323   1.190  18.126  0.00  0.00    +0.000 OA
BRANCH   9  10
ATOM     10  C   UNL     1      53.606   1.229  17.483  0.00  0.00    +0.000 C 
BRANCH  10  11
ATOM     11  C   UNL     1      54.221  -0.148  17.404  0.00  0.00    +0.000 A 
ATOM     12  C   UNL     1      54.220  -0.980  18.523  0.00  0.00    +0.000 A 
ATOM     13  C   UNL     1      54.722  -2.273  18.399  0.00  0.00    +0.000 A 
ATOM     14  C   UNL     1      55.207  -2.699  17.168  0.00  0.00    +0.000 A 
ATOM     15  C   UNL     1      55.165  -1.813  16.106  0.00  0.00    +0.000 A 
ATOM     16  N   UNL     1      54.679  -0.556  16.193  0.00  0.00    +0.000 NA
ENDBRANCH  10  11
ENDBRANCH   9  10
ENDBRANCH   6   9
ENDBRANCH   2   3
BRANCH   2  17
ATOM     17  N   UNL     1      47.923   5.519  16.145  0.00  0.00    +0.000 N 
ATOM     18  C   UNL     1      48.321   6.118  14.978  0.00  0.00    +0.000 C 
ATOM     19  O   UNL     1      49.432   6.633  14.868  0.00  0.00    +0.000 OA
ATOM     20  H   UNL     1      46.990   5.129  16.237  0.00  0.00    +0.000 HD
BRANCH  18  21
ATOM     21  C   UNL     1      47.375   6.124  13.848  0.00  0.00    +0.000 A 
ATOM     22  C   UNL     1      47.062   7.331  13.233  0.00  0.00    +0.000 A 
ATOM     23  S   UNL     1      45.941   7.188  11.960  0.00  0.00    +0.000 S 
ATOM     24  C   UNL     1      45.818   5.508  12.188  0.00  0.00    +0.000 A 
ATOM     25  N   UNL     1      44.978   4.766  11.418  0.00  0.00    +0.000 NA
ATOM     26  C   UNL     1      44.969   3.506  11.700  0.00  0.00    +0.000 A 
ATOM     27  N   UNL     1      45.733   2.921  12.674  0.00  0.00    +0.000 N 
ATOM     28  C   UNL     1      46.602   3.629  13.470  0.00  0.00    +0.000 A 
ATOM     29  O   UNL     1      47.274   3.062  14.326  0.00  0.00    +0.000 OA
ATOM     30  C   UNL     1      46.638   5.056  13.209  0.00  0.00    +0.000 A 
ATOM     31  H   UNL     1      45.689   1.926  12.839  0.00  0.00    +0.000 HD
ENDBRANCH  18  21
ENDBRANCH   2  17
TORSDOF 6
ENDMDL
MODEL 8
REMARK VINA RESULT:    -7.458      2.602      3.751
REMARK INTER + INTRA:         -10.556
REMARK INTER:                  -9.544
REMARK INTRA:                  -1.012
REMARK UNBOUND:                -0.481
REMARK  Name = 
REMARK  7 active torsions:
REMARK  status: ('A' for Active; 'I' for Inactive)
REMARK    1  A    between atoms: C_1  and  C_2
REMARK    2  A    between atoms: C_2  and  N_3
REMARK    3  A    between atoms: C_2  and  C_16
REMARK    4  A    between atoms: C_4  and  C_6
REMARK    5  A    between atoms: C_19  and  O_20
REMARK    6  A    between atoms: O_20  and  C_21
REMARK    7  A    between atoms: C_21  and  C_22
REMARK                            x       y       z     vdW  Elec       q    Type
REMARK                         _______ _______ _______ _____ _____    ______ ____
ROOT
ATOM      1  C   UNL     1      49.310   8.718  16.292  0.00  0.00    +0.000 C 
ATOM      2  C   UNL     1      48.920   7.248  16.081  0.00  0.00    +0.000 C 
ENDROOT
BRANCH   2   3
ATOM      3  C   UNL     1      48.476   6.971  14.656  0.00  0.00    +0.000 A 
ATOM      4  C   UNL     1      47.767   5.793  14.371  0.00  0.00    +0.000 A 
ATOM      5  C   UNL     1      47.149   5.620  13.130  0.00  0.00    +0.000 A 
ATOM      6  C   UNL     1      47.239   6.617  12.162  0.00  0.00    +0.000 A 
ATOM      7  C   UNL     1      48.083   7.706  12.376  0.00  0.00    +0.000 A 
ATOM      8  C   UNL     1      48.696   7.883  13.616  0.00  0.00    +0.000 A 
BRANCH   6   9
ATOM      9  O   UNL     1      46.447   6.460  11.054  0.00  0.00    +0.000 OA
BRANCH   9  10
ATOM     10  C   UNL     1      45.258   5.694  11.295  0.00  0.00    +0.000 C 
BRANCH  10  11
ATOM     11  C   UNL     1      45.085   4.610  10.258  0.00  0.00    +0.000 A 
ATOM     12  C   UNL     1      45.607   4.777   8.976  0.00  0.00    +0.000 A 
ATOM     13  C   UNL     1      45.502   3.729   8.066  0.00  0.00    +0.000 A 
ATOM     14  C   UNL     1      44.886   2.547   8.459  0.00  0.00    +0.000 A 
ATOM     15  C   UNL     1      44.402   2.459   9.752  0.00  0.00    +0.000 A 
ATOM     16  N   UNL     1      44.493   3.456  10.658  0.00  0.00    +0.000 NA
ENDBRANCH  10  11
ENDBRANCH   9  10
ENDBRANCH   6   9
ENDBRANCH   2   3
BRANCH   2  17
ATOM     17  N   UNL     1      49.986   6.355  16.477  0.00  0.00    +0.000 N 
ATOM     18  C   UNL     1      49.876   5.536  17.570  0.00  0.00    +0.000 C 
ATOM     19  O   UNL     1      48.843   5.490  18.236  0.00  0.00    +0.000 OA
ATOM     20  H   UNL     1      50.856   6.412  15.955  0.00  0.00    +0.000 HD
BRANCH  18  21
ATOM     21  C   UNL     1      51.037   4.701  17.927  0.00  0.00    +0.000 A 
ATOM     22  C   UNL     1      52.118   5.287  18.575  0.00  0.00    +0.000 A 
ATOM     23  S   UNL     1      53.394   4.209  18.904  0.00  0.00    +0.000 S 
ATOM     24  C   UNL     1      52.559   2.918  18.180  0.00  0.00    +0.000 A 
ATOM     25  N   UNL     1      53.126   1.684  18.102  0.00  0.00    +0.000 NA
ATOM     26  C   UNL     1      52.393   0.796  17.519  0.00  0.00    +0.000 A 
ATOM     27  N   UNL     1      51.140   1.028  17.018  0.00  0.00    +0.000 N 
ATOM     28  C   UNL     1      50.523   2.254  17.081  0.00  0.00    +0.000 A 
ATOM     29  O   UNL     1      49.395   2.416  16.626  0.00  0.00    +0.000 OA
ATOM     30  C   UNL     1      51.312   3.297  17.711  0.00  0.00    +0.000 A 
ATOM     31  H   UNL     1      50.612   0.287  16.581  0.00  0.00    +0.000 HD
ENDBRANCH  18  21
ENDBRANCH   2  17
TORSDOF 6
ENDMDL
MODEL 9
REMARK VINA RESULT:    -7.369      2.541      4.113
REMARK INTER + INTRA:         -10.435
REMARK INTER:                  -9.589
REMARK INTRA:                  -0.845
REMARK UNBOUND:                -0.481
REMARK  Name = 
REMARK  7 active torsions:
REMARK  status: ('A' for Active; 'I' for Inactive)
REMARK    1  A    between atoms: C_1  and  C_2
REMARK    2  A    between atoms: C_2  and  N_3
REMARK    3  A    between atoms: C_2  and  C_16
REMARK    4  A    between atoms: C_4  and  C_6
REMARK    5  A    between atoms: C_19  and  O_20
REMARK    6  A    between atoms: O_20  and  C_21
REMARK    7  A    between atoms: C_21  and  C_22
REMARK                            x       y       z     vdW  Elec       q    Type
REMARK                         _______ _______ _______ _____ _____    ______ ____
ROOT
ATOM      1  C   UNL     1      47.150   4.203  15.988  0.00  0.00    +0.000 C 
ATOM      2  C   UNL     1      47.611   5.077  14.812  0.00  0.00    +0.000 C 
ENDROOT
BRANCH   2   3
ATOM      3  C   UNL     1      46.617   5.067  13.664  0.00  0.00    +0.000 A 
ATOM      4  C   UNL     1      46.385   6.249  12.942  0.00  0.00    +0.000 A 
ATOM      5  C   UNL     1      45.661   6.220  11.748  0.00  0.00    +0.000 A 
ATOM      6  C   UNL     1      45.156   5.013  11.269  0.00  0.00    +0.000 A 
ATOM      7  C   UNL     1      45.234   3.872  12.066  0.00  0.00    +0.000 A 
ATOM      8  C   UNL     1      45.962   3.899  13.256  0.00  0.00    +0.000 A 
BRANCH   6   9
ATOM      9  O   UNL     1      44.633   5.035  10.002  0.00  0.00    +0.000 OA
BRANCH   9  10
ATOM     10  C   UNL     1      44.274   3.739   9.501  0.00  0.00    +0.000 C 
BRANCH  10  11
ATOM     11  C   UNL     1      45.346   3.186   8.593  0.00  0.00    +0.000 A 
ATOM     12  C   UNL     1      45.701   1.839   8.667  0.00  0.00    +0.000 A 
ATOM     13  C   UNL     1      46.635   1.340   7.764  0.00  0.00    +0.000 A 
ATOM     14  C   UNL     1      47.184   2.192   6.813  0.00  0.00    +0.000 A 
ATOM     15  C   UNL     1      46.771   3.512   6.801  0.00  0.00    +0.000 A 
ATOM     16  N   UNL     1      45.864   4.025   7.660  0.00  0.00    +0.000 NA
ENDBRANCH  10  11
ENDBRANCH   9  10
ENDBRANCH   6   9
ENDBRANCH   2   3
BRANCH   2  17
ATOM     17  N   UNL     1      47.901   6.428  15.237  0.00  0.00    +0.000 N 
ATOM     18  C   UNL     1      49.080   6.757  15.853  0.00  0.00    +0.000 C 
ATOM     19  O   UNL     1      49.966   5.923  16.027  0.00  0.00    +0.000 OA
ATOM     20  H   UNL     1      47.161   7.116  15.130  0.00  0.00    +0.000 HD
BRANCH  18  21
ATOM     21  C   UNL     1      49.261   8.150  16.301  0.00  0.00    +0.000 A 
ATOM     22  C   UNL     1      48.373   8.683  17.228  0.00  0.00    +0.000 A 
ATOM     23  S   UNL     1      48.691  10.305  17.635  0.00  0.00    +0.000 S 
ATOM     24  C   UNL     1      50.018  10.365  16.576  0.00  0.00    +0.000 A 
ATOM     25  N   UNL     1      50.732  11.513  16.426  0.00  0.00    +0.000 NA
ATOM     26  C   UNL     1      51.708  11.429  15.585  0.00  0.00    +0.000 A 
ATOM     27  N   UNL     1      52.040  10.297  14.889  0.00  0.00    +0.000 N 
ATOM     28  C   UNL     1      51.354   9.113  15.014  0.00  0.00    +0.000 A 
ATOM     29  O   UNL     1      51.691   8.120  14.376  0.00  0.00    +0.000 OA
ATOM     30  C   UNL     1      50.233   9.156  15.935  0.00  0.00    +0.000 A 
ATOM     31  H   UNL     1      52.822  10.293  14.251  0.00  0.00    +0.000 HD
ENDBRANCH  18  21
ENDBRANCH   2  17
TORSDOF 6
ENDMDL
