MODEL 1
REMARK VINA RESULT:    -7.679      0.000      0.000
REMARK INTER + INTRA:         -12.102
REMARK INTER:                 -11.270
REMARK INTRA:                  -0.831
REMARK UNBOUND:                -0.831
REMARK  Name = 
REMARK  9 active torsions:
REMARK  status: ('A' for Active; 'I' for Inactive)
REMARK    1  A    between atoms: C_1  and  C_2
REMARK    2  A    between atoms: C_2  and  N_3
REMARK    3  A    between atoms: C_2  and  C_19
REMARK    4  A    between atoms: N_3  and  C_4
REMARK    5  A    between atoms: C_4  and  C_5
REMARK    6  A    between atoms: C_8  and  C_9
REMARK    7  A    between atoms: C_9  and  N_10
REMARK    8  A    between atoms: N_10  and  C_11
REMARK    9  A    between atoms: C_11  and  C_12
REMARK                            x       y       z     vdW  Elec       q    Type
REMARK                         _______ _______ _______ _____ _____    ______ ____
ROOT
ATOM      1  C   UNL     1      47.927   5.737  14.503  0.00  0.00    +0.000 C 
ENDROOT
BRANCH   1   2
ATOM      2  C   UNL     1      46.774   5.613  13.532  0.00  0.00    +0.000 A 
ATOM      3  C   UNL     1      46.775   6.289  12.304  0.00  0.00    +0.000 A 
ATOM      4  C   UNL     1      45.695   6.165  11.424  0.00  0.00    +0.000 A 
ATOM      5  C   UNL     1      44.598   5.351  11.743  0.00  0.00    +0.000 A 
ATOM      6  C   UNL     1      44.608   4.657  12.958  0.00  0.00    +0.000 A 
ATOM      7  C   UNL     1      45.682   4.788  13.842  0.00  0.00    +0.000 A 
BRANCH   5   8
ATOM      8  C   UNL     1      43.406   5.254  10.819  0.00  0.00    +0.000 C 
BRANCH   8   9
ATOM      9  N   UNL     1      43.795   4.769   9.497  0.00  0.00    +0.000 NA
ATOM     10  H   UNL     1      44.563   5.352   9.157  0.00  0.00    +0.000 HD
BRANCH   9  11
ATOM     11  C   UNL     1      44.289   3.391   9.582  0.00  0.00    +0.000 C 
BRANCH  11  12
ATOM     12  C   UNL     1      45.361   3.170   8.567  0.00  0.00    +0.000 A 
ATOM     13  N   UNL     1      45.870   4.050   7.731  0.00  0.00    +0.000 NA
ATOM     14  C   UNL     1      46.801   3.366   6.992  0.00  0.00    +0.000 A 
ATOM     15  C   UNL     1      46.860   2.047   7.386  0.00  0.00    +0.000 A 
ATOM     16  N   UNL     1      45.936   1.937   8.384  0.00  0.00    +0.000 N 
ATOM     17  H   UNL     1      45.670   1.102   8.889  0.00  0.00    +0.000 HD
ENDBRANCH  11  12
ENDBRANCH   9  11
ENDBRANCH   8   9
ENDBRANCH   5   8
ENDBRANCH   1   2
BRANCH   1  18
ATOM     18  N   UNL     1      47.519   5.448  15.879  0.00  0.00    +0.000 NA
ATOM     19  H   UNL     1      47.821   6.216  16.476  0.00  0.00    +0.000 HD
BRANCH  18  21
ATOM     20  C   UNL     1      47.038   3.373  17.155  0.00  0.00    +0.000 C 
ATOM     21  C   UNL     1      48.094   4.197  16.402  0.00  0.00    +0.000 C 
BRANCH  21  22
ATOM     22  C   UNL     1      49.247   4.603  17.311  0.00  0.00    +0.000 A 
ATOM     23  C   UNL     1      49.336   5.845  17.924  0.00  0.00    +0.000 A 
ATOM     24  S   UNL     1      50.754   6.056  18.846  0.00  0.00    +0.000 S 
ATOM     25  C   UNL     1      51.308   4.494  18.460  0.00  0.00    +0.000 A 
ATOM     26  N   UNL     1      52.506   4.046  18.925  0.00  0.00    +0.000 NA
ATOM     27  C   UNL     1      52.801   2.845  18.561  0.00  0.00    +0.000 A 
ATOM     28  N   UNL     1      52.005   2.044  17.782  0.00  0.00    +0.000 N 
ATOM     29  C   UNL     1      50.781   2.450  17.287  0.00  0.00    +0.000 A 
ATOM     30  O   UNL     1      50.090   1.702  16.605  0.00  0.00    +0.000 OA
ATOM     31  C   UNL     1      50.411   3.809  17.656  0.00  0.00    +0.000 A 
ATOM     32  H   UNL     1      52.293   1.107  17.549  0.00  0.00    +0.000 HD
ENDBRANCH  21  22
ENDBRANCH  18  21
ENDBRANCH   1  18
TORSDOF 8
ENDMDL
MODEL 2
REMARK VINA RESULT:    -7.113      1.610      2.416
REMARK INTER + INTRA:         -11.271
REMARK INTER:                 -10.574
REMARK INTRA:                  -0.696
REMARK UNBOUND:                -0.831
REMARK  Name = 
REMARK  9 active torsions:
REMARK  status: ('A' for Active; 'I' for Inactive)
REMARK    1  A    between atoms: C_1  and  C_2
REMARK    2  A    between atoms: C_2  and  N_3
REMARK    3  A    between atoms: C_2  and  C_19
REMARK    4  A    between atoms: N_3  and  C_4
REMARK    5  A    between atoms: C_4  and  C_5
REMARK    6  A    between atoms: C_8  and  C_9
REMARK    7  A    between atoms: C_9  and  N_10
REMARK    8  A    between atoms: N_10  and  C_11
REMARK    9  A    between atoms: C_11  and  C_12
REMARK                            x       y       z     vdW  Elec       q    Type
REMARK                         _______ _______ _______ _____ _____    ______ ____
ROOT
ATOM      1  C   UNL     1      49.286   6.631  15.406  0.00  0.00    +0.000 C 
ENDROOT
BRANCH   1   2
ATOM      2  C   UNL     1      48.095   6.642  14.474  0.00  0.00    +0.000 A 
ATOM      3  C   UNL     1      47.424   5.460  14.130  0.00  0.00    +0.000 A 
ATOM      4  C   UNL     1      46.328   5.492  13.261  0.00  0.00    +0.000 A 
ATOM      5  C   UNL     1      45.870   6.705  12.728  0.00  0.00    +0.000 A 
ATOM      6  C   UNL     1      46.524   7.888  13.089  0.00  0.00    +0.000 A 
ATOM      7  C   UNL     1      47.625   7.855  13.950  0.00  0.00    +0.000 A 
BRANCH   5   8
ATOM      8  C   UNL     1      44.719   6.740  11.749  0.00  0.00    +0.000 C 
BRANCH   8   9
ATOM      9  N   UNL     1      43.490   6.228  12.352  0.00  0.00    +0.000 NA
ATOM     10  H   UNL     1      42.946   7.026  12.690  0.00  0.00    +0.000 HD
BRANCH   9  11
ATOM     11  C   UNL     1      42.679   5.531  11.348  0.00  0.00    +0.000 C 
BRANCH  11  12
ATOM     12  C   UNL     1      43.510   4.514  10.639  0.00  0.00    +0.000 A 
ATOM     13  N   UNL     1      44.048   3.424  11.142  0.00  0.00    +0.000 NA
ATOM     14  C   UNL     1      44.730   2.835  10.108  0.00  0.00    +0.000 A 
ATOM     15  C   UNL     1      44.604   3.579   8.956  0.00  0.00    +0.000 A 
ATOM     16  N   UNL     1      43.829   4.645   9.310  0.00  0.00    +0.000 N 
ATOM     17  H   UNL     1      43.558   5.430   8.732  0.00  0.00    +0.000 HD
ENDBRANCH  11  12
ENDBRANCH   9  11
ENDBRANCH   8   9
ENDBRANCH   5   8
ENDBRANCH   1   2
BRANCH   1  18
ATOM     18  N   UNL     1      48.905   6.288  16.778  0.00  0.00    +0.000 NA
ATOM     19  H   UNL     1      49.587   6.694  17.416  0.00  0.00    +0.000 HD
BRANCH  18  21
ATOM     20  C   UNL     1      47.635   4.461  17.879  0.00  0.00    +0.000 C 
ATOM     21  C   UNL     1      48.849   4.836  17.017  0.00  0.00    +0.000 C 
BRANCH  21  22
ATOM     22  C   UNL     1      50.161   4.463  17.696  0.00  0.00    +0.000 A 
ATOM     23  C   UNL     1      50.883   5.338  18.495  0.00  0.00    +0.000 A 
ATOM     24  S   UNL     1      52.341   4.683  19.089  0.00  0.00    +0.000 S 
ATOM     25  C   UNL     1      52.065   3.201  18.299  0.00  0.00    +0.000 A 
ATOM     26  N   UNL     1      52.970   2.189  18.383  0.00  0.00    +0.000 NA
ATOM     27  C   UNL     1      52.635   1.122  17.741  0.00  0.00    +0.000 A 
ATOM     28  N   UNL     1      51.473   0.969  17.030  0.00  0.00    +0.000 N 
ATOM     29  C   UNL     1      50.522   1.964  16.915  0.00  0.00    +0.000 A 
ATOM     30  O   UNL     1      49.487   1.786  16.282  0.00  0.00    +0.000 OA
ATOM     31  C   UNL     1      50.864   3.197  17.608  0.00  0.00    +0.000 A 
ATOM     32  H   UNL     1      51.268   0.098  16.564  0.00  0.00    +0.000 HD
ENDBRANCH  21  22
ENDBRANCH  18  21
ENDBRANCH   1  18
TORSDOF 8
ENDMDL
MODEL 3
REMARK VINA RESULT:    -6.997      2.377      2.800
REMARK INTER + INTRA:         -11.101
REMARK INTER:                 -10.327
REMARK INTRA:                  -0.773
REMARK UNBOUND:                -0.831
REMARK  Name = 
REMARK  9 active torsions:
REMARK  status: ('A' for Active; 'I' for Inactive)
REMARK    1  A    between atoms: C_1  and  C_2
REMARK    2  A    between atoms: C_2  and  N_3
REMARK    3  A    between atoms: C_2  and  C_19
REMARK    4  A    between atoms: N_3  and  C_4
REMARK    5  A    between atoms: C_4  and  C_5
REMARK    6  A    between atoms: C_8  and  C_9
REMARK    7  A    between atoms: C_9  and  N_10
REMARK    8  A    between atoms: N_10  and  C_11
REMARK    9  A    between atoms: C_11  and  C_12
REMARK                            x       y       z     vdW  Elec       q    Type
REMARK                         _______ _______ _______ _____ _____    ______ ____
ROOT
ATOM      1  C   UNL     1      47.479   5.518  14.560  0.00  0.00    +0.000 C 
ENDROOT
BRANCH   1   2
ATOM      2  C   UNL     1      46.555   5.319  13.379  0.00  0.00    +0.000 A 
ATOM      3  C   UNL     1      46.312   6.348  12.459  0.00  0.00    +0.000 A 
ATOM      4  C   UNL     1      45.449   6.144  11.377  0.00  0.00    +0.000 A 
ATOM      5  C   UNL     1      44.823   4.905  11.181  0.00  0.00    +0.000 A 
ATOM      6  C   UNL     1      45.085   3.870  12.085  0.00  0.00    +0.000 A 
ATOM      7  C   UNL     1      45.939   4.076  13.172  0.00  0.00    +0.000 A 
BRANCH   5   8
ATOM      8  C   UNL     1      43.851   4.695  10.043  0.00  0.00    +0.000 C 
BRANCH   8   9
ATOM      9  N   UNL     1      44.535   4.243   8.834  0.00  0.00    +0.000 NA
ATOM     10  H   UNL     1      45.489   4.613   8.851  0.00  0.00    +0.000 HD
BRANCH   9  11
ATOM     11  C   UNL     1      44.628   2.780   8.815  0.00  0.00    +0.000 C 
BRANCH  11  12
ATOM     12  C   UNL     1      45.867   2.357   8.098  0.00  0.00    +0.000 A 
ATOM     13  N   UNL     1      46.404   1.157   8.062  0.00  0.00    +0.000 NA
ATOM     14  C   UNL     1      47.537   1.280   7.297  0.00  0.00    +0.000 A 
ATOM     15  C   UNL     1      47.689   2.577   6.859  0.00  0.00    +0.000 A 
ATOM     16  N   UNL     1      46.623   3.251   7.380  0.00  0.00    +0.000 N 
ATOM     17  H   UNL     1      46.421   4.239   7.304  0.00  0.00    +0.000 HD
ENDBRANCH  11  12
ENDBRANCH   9  11
ENDBRANCH   8   9
ENDBRANCH   5   8
ENDBRANCH   1   2
BRANCH   1  18
ATOM     18  N   UNL     1      47.026   4.779  15.740  0.00  0.00    +0.000 NA
ATOM     19  H   UNL     1      46.380   5.366  16.264  0.00  0.00    +0.000 HD
BRANCH  18  21
ATOM     20  C   UNL     1      47.888   2.992  17.234  0.00  0.00    +0.000 C 
ATOM     21  C   UNL     1      48.128   4.386  16.635  0.00  0.00    +0.000 C 
BRANCH  21  22
ATOM     22  C   UNL     1      48.207   5.459  17.714  0.00  0.00    +0.000 A 
ATOM     23  C   UNL     1      47.332   5.526  18.790  0.00  0.00    +0.000 A 
ATOM     24  S   UNL     1      47.611   6.855  19.820  0.00  0.00    +0.000 S 
ATOM     25  C   UNL     1      48.913   7.395  18.867  0.00  0.00    +0.000 A 
ATOM     26  N   UNL     1      49.591   8.529  19.194  0.00  0.00    +0.000 NA
ATOM     27  C   UNL     1      50.557   8.821  18.391  0.00  0.00    +0.000 A 
ATOM     28  N   UNL     1      50.914   8.079  17.294  0.00  0.00    +0.000 N 
ATOM     29  C   UNL     1      50.260   6.922  16.920  0.00  0.00    +0.000 A 
ATOM     30  O   UNL     1      50.616   6.276  15.941  0.00  0.00    +0.000 OA
ATOM     31  C   UNL     1      49.149   6.560  17.788  0.00  0.00    +0.000 A 
ATOM     32  H   UNL     1      51.692   8.360  16.717  0.00  0.00    +0.000 HD
ENDBRANCH  21  22
ENDBRANCH  18  21
ENDBRANCH   1  18
TORSDOF 8
ENDMDL
MODEL 4
REMARK VINA RESULT:    -6.995      2.199      2.923
REMARK INTER + INTRA:         -11.097
REMARK INTER:                 -10.323
REMARK INTRA:                  -0.774
REMARK UNBOUND:                -0.831
REMARK  Name = 
REMARK  9 active torsions:
REMARK  status: ('A' for Active; 'I' for Inactive)
REMARK    1  A    between atoms: C_1  and  C_2
REMARK    2  A    between atoms: C_2  and  N_3
REMARK    3  A    between atoms: C_2  and  C_19
REMARK    4  A    between atoms: N_3  and  C_4
REMARK    5  A    between atoms: C_4  and  C_5
REMARK    6  A    between atoms: C_8  and  C_9
REMARK    7  A    between atoms: C_9  and  N_10
REMARK    8  A    between atoms: N_10  and  C_11
REMARK    9  A    between atoms: C_11  and  C_12
REMARK                            x       y       z     vdW  Elec       q    Type
REMARK                         _______ _______ _______ _____ _____    ______ ____
ROOT
ATOM      1  C   UNL     1      47.860   7.301  13.443  0.00  0.00    +0.000 C 
ENDROOT
BRANCH   1   2
ATOM      2  C   UNL     1      46.870   6.321  12.853  0.00  0.00    +0.000 A 
ATOM      3  C   UNL     1      46.328   5.278  13.616  0.00  0.00    +0.000 A 
ATOM      4  C   UNL     1      45.419   4.380  13.048  0.00  0.00    +0.000 A 
ATOM      5  C   UNL     1      45.018   4.513  11.711  0.00  0.00    +0.000 A 
ATOM      6  C   UNL     1      45.540   5.568  10.955  0.00  0.00    +0.000 A 
ATOM      7  C   UNL     1      46.456   6.460  11.519  0.00  0.00    +0.000 A 
BRANCH   5   8
ATOM      8  C   UNL     1      44.076   3.515  11.078  0.00  0.00    +0.000 C 
BRANCH   8   9
ATOM      9  N   UNL     1      44.805   2.481  10.349  0.00  0.00    +0.000 NA
ATOM     10  H   UNL     1      44.425   1.571  10.622  0.00  0.00    +0.000 HD
BRANCH   9  11
ATOM     11  C   UNL     1      44.600   2.631   8.905  0.00  0.00    +0.000 C 
BRANCH  11  12
ATOM     12  C   UNL     1      45.820   2.187   8.168  0.00  0.00    +0.000 A 
ATOM     13  N   UNL     1      46.337   0.978   8.125  0.00  0.00    +0.000 NA
ATOM     14  C   UNL     1      47.458   1.081   7.341  0.00  0.00    +0.000 A 
ATOM     15  C   UNL     1      47.626   2.375   6.900  0.00  0.00    +0.000 A 
ATOM     16  N   UNL     1      46.579   3.067   7.437  0.00  0.00    +0.000 N 
ATOM     17  H   UNL     1      46.393   4.059   7.364  0.00  0.00    +0.000 HD
ENDBRANCH  11  12
ENDBRANCH   9  11
ENDBRANCH   8   9
ENDBRANCH   5   8
ENDBRANCH   1   2
BRANCH   1  18
ATOM     18  N   UNL     1      47.863   7.261  14.907  0.00  0.00    +0.000 NA
ATOM     19  H   UNL     1      47.014   7.712  15.246  0.00  0.00    +0.000 HD
BRANCH  18  21
ATOM     20  C   UNL     1      50.341   7.398  14.936  0.00  0.00    +0.000 C 
ATOM     21  C   UNL     1      49.023   7.946  15.502  0.00  0.00    +0.000 C 
BRANCH  21  22
ATOM     22  C   UNL     1      48.922   7.732  17.007  0.00  0.00    +0.000 A 
ATOM     23  C   UNL     1      48.960   8.769  17.930  0.00  0.00    +0.000 A 
ATOM     24  S   UNL     1      48.880   8.248  19.551  0.00  0.00    +0.000 S 
ATOM     25  C   UNL     1      48.792   6.614  19.083  0.00  0.00    +0.000 A 
ATOM     26  N   UNL     1      48.727   5.627  20.016  0.00  0.00    +0.000 NA
ATOM     27  C   UNL     1      48.660   4.436  19.526  0.00  0.00    +0.000 A 
ATOM     28  N   UNL     1      48.642   4.140  18.187  0.00  0.00    +0.000 N 
ATOM     29  C   UNL     1      48.705   5.106  17.201  0.00  0.00    +0.000 A 
ATOM     30  O   UNL     1      48.673   4.806  16.013  0.00  0.00    +0.000 OA
ATOM     31  C   UNL     1      48.801   6.467  17.706  0.00  0.00    +0.000 A 
ATOM     32  H   UNL     1      48.573   3.185  17.873  0.00  0.00    +0.000 HD
ENDBRANCH  21  22
ENDBRANCH  18  21
ENDBRANCH   1  18
TORSDOF 8
ENDMDL
MODEL 5
REMARK VINA RESULT:    -6.982      1.567      2.082
REMARK INTER + INTRA:         -11.078
REMARK INTER:                 -10.105
REMARK INTRA:                  -0.973
REMARK UNBOUND:                -0.831
REMARK  Name = 
REMARK  9 active torsions:
REMARK  status: ('A' for Active; 'I' for Inactive)
REMARK    1  A    between atoms: C_1  and  C_2
REMARK    2  A    between atoms: C_2  and  N_3
REMARK    3  A    between atoms: C_2  and  C_19
REMARK    4  A    between atoms: N_3  and  C_4
REMARK    5  A    between atoms: C_4  and  C_5
REMARK    6  A    between atoms: C_8  and  C_9
REMARK    7  A    between atoms: C_9  and  N_10
REMARK    8  A    between atoms: N_10  and  C_11
REMARK    9  A    between atoms: C_11  and  C_12
REMARK                            x       y       z     vdW  Elec       q    Type
REMARK                         _______ _______ _______ _____ _____    ______ ____
ROOT
ATOM      1  C   UNL     1      48.404   6.942  13.812  0.00  0.00    +0.000 C 
ENDROOT
BRANCH   1   2
ATOM      2  C   UNL     1      47.353   6.154  13.060  0.00  0.00    +0.000 A 
ATOM      3  C   UNL     1      46.832   4.958  13.571  0.00  0.00    +0.000 A 
ATOM      4  C   UNL     1      45.865   4.242  12.856  0.00  0.00    +0.000 A 
ATOM      5  C   UNL     1      45.388   4.713  11.625  0.00  0.00    +0.000 A 
ATOM      6  C   UNL     1      45.890   5.919  11.127  0.00  0.00    +0.000 A 
ATOM      7  C   UNL     1      46.862   6.630  11.835  0.00  0.00    +0.000 A 
BRANCH   5   8
ATOM      8  C   UNL     1      44.381   3.918  10.825  0.00  0.00    +0.000 C 
BRANCH   8   9
ATOM      9  N   UNL     1      44.890   2.587  10.501  0.00  0.00    +0.000 NA
ATOM     10  H   UNL     1      44.443   1.914  11.128  0.00  0.00    +0.000 HD
BRANCH   9  11
ATOM     11  C   UNL     1      44.528   2.221   9.128  0.00  0.00    +0.000 C 
BRANCH  11  12
ATOM     12  C   UNL     1      45.746   2.213   8.265  0.00  0.00    +0.000 A 
ATOM     13  N   UNL     1      46.309   3.237   7.660  0.00  0.00    +0.000 NA
ATOM     14  C   UNL     1      47.380   2.721   6.975  0.00  0.00    +0.000 A 
ATOM     15  C   UNL     1      47.471   1.360   7.169  0.00  0.00    +0.000 A 
ATOM     16  N   UNL     1      46.423   1.051   7.987  0.00  0.00    +0.000 N 
ATOM     17  H   UNL     1      46.144   0.135   8.312  0.00  0.00    +0.000 HD
ENDBRANCH  11  12
ENDBRANCH   9  11
ENDBRANCH   8   9
ENDBRANCH   5   8
ENDBRANCH   1   2
BRANCH   1  18
ATOM     18  N   UNL     1      49.027   6.150  14.874  0.00  0.00    +0.000 NA
ATOM     19  H   UNL     1      48.497   5.288  14.990  0.00  0.00    +0.000 HD
BRANCH  18  21
ATOM     20  C   UNL     1      48.860   8.361  15.990  0.00  0.00    +0.000 C 
ATOM     21  C   UNL     1      49.068   6.850  16.169  0.00  0.00    +0.000 C 
BRANCH  21  22
ATOM     22  C   UNL     1      50.426   6.535  16.784  0.00  0.00    +0.000 A 
ATOM     23  C   UNL     1      51.422   7.485  16.962  0.00  0.00    +0.000 A 
ATOM     24  S   UNL     1      52.861   6.855  17.624  0.00  0.00    +0.000 S 
ATOM     25  C   UNL     1      52.209   5.285  17.698  0.00  0.00    +0.000 A 
ATOM     26  N   UNL     1      52.954   4.244  18.158  0.00  0.00    +0.000 NA
ATOM     27  C   UNL     1      52.338   3.111  18.164  0.00  0.00    +0.000 A 
ATOM     28  N   UNL     1      51.040   2.924  17.761  0.00  0.00    +0.000 N 
ATOM     29  C   UNL     1      50.242   3.947  17.288  0.00  0.00    +0.000 A 
ATOM     30  O   UNL     1      49.081   3.745  16.949  0.00  0.00    +0.000 OA
ATOM     31  C   UNL     1      50.901   5.244  17.244  0.00  0.00    +0.000 A 
ATOM     32  H   UNL     1      50.616   2.011  17.808  0.00  0.00    +0.000 HD
ENDBRANCH  21  22
ENDBRANCH  18  21
ENDBRANCH   1  18
TORSDOF 8
ENDMDL
MODEL 6
REMARK VINA RESULT:    -6.976      2.081      2.714
REMARK INTER + INTRA:         -11.069
REMARK INTER:                 -10.264
REMARK INTRA:                  -0.805
REMARK UNBOUND:                -0.831
REMARK  Name = 
REMARK  9 active torsions:
REMARK  status: ('A' for Active; 'I' for Inactive)
REMARK    1  A    between atoms: C_1  and  C_2
REMARK    2  A    between atoms: C_2  and  N_3
REMARK    3  A    between atoms: C_2  and  C_19
REMARK    4  A    between atoms: N_3  and  C_4
REMARK    5  A    between atoms: C_4  and  C_5
REMARK    6  A    between atoms: C_8  and  C_9
REMARK    7  A    between atoms: C_9  and  N_10
REMARK    8  A    between atoms: N_10  and  C_11
REMARK    9  A    between atoms: C_11  and  C_12
REMARK                            x       y       z     vdW  Elec       q    Type
REMARK                         _______ _______ _______ _____ _____    ______ ____
ROOT
ATOM      1  C   UNL     1      47.587   5.105  14.878  0.00  0.00    +0.000 C 
ENDROOT
BRANCH   1   2
ATOM      2  C   UNL     1      46.618   4.847  13.746  0.00  0.00    +0.000 A 
ATOM      3  C   UNL     1      45.990   5.901  13.066  0.00  0.00    +0.000 A 
ATOM      4  C   UNL     1      45.093   5.640  12.026  0.00  0.00    +0.000 A 
ATOM      5  C   UNL     1      44.813   4.324  11.632  0.00  0.00    +0.000 A 
ATOM      6  C   UNL     1      45.457   3.273  12.294  0.00  0.00    +0.000 A 
ATOM      7  C   UNL     1      46.347   3.532  13.339  0.00  0.00    +0.000 A 
BRANCH   5   8
ATOM      8  C   UNL     1      43.805   4.035  10.543  0.00  0.00    +0.000 C 
BRANCH   8   9
ATOM      9  N   UNL     1      44.334   3.088   9.564  0.00  0.00    +0.000 NA
ATOM     10  H   UNL     1      43.544   2.606   9.129  0.00  0.00    +0.000 HD
BRANCH   9  11
ATOM     11  C   UNL     1      45.059   3.797   8.505  0.00  0.00    +0.000 C 
BRANCH  11  12
ATOM     12  C   UNL     1      46.103   2.907   7.918  0.00  0.00    +0.000 A 
ATOM     13  N   UNL     1      47.107   3.250   7.140  0.00  0.00    +0.000 NA
ATOM     14  C   UNL     1      47.767   2.083   6.849  0.00  0.00    +0.000 A 
ATOM     15  C   UNL     1      47.154   1.012   7.461  0.00  0.00    +0.000 A 
ATOM     16  N   UNL     1      46.096   1.551   8.134  0.00  0.00    +0.000 N 
ATOM     17  H   UNL     1      45.391   1.061   8.669  0.00  0.00    +0.000 HD
ENDBRANCH  11  12
ENDBRANCH   9  11
ENDBRANCH   8   9
ENDBRANCH   5   8
ENDBRANCH   1   2
BRANCH   1  18
ATOM     18  N   UNL     1      47.079   4.607  16.158  0.00  0.00    +0.000 NA
ATOM     19  H   UNL     1      46.973   5.395  16.794  0.00  0.00    +0.000 HD
BRANCH  18  21
ATOM     20  C   UNL     1      47.175   2.629  17.656  0.00  0.00    +0.000 C 
ATOM     21  C   UNL     1      47.969   3.617  16.788  0.00  0.00    +0.000 C 
BRANCH  21  22
ATOM     22  C   UNL     1      48.977   4.409  17.612  0.00  0.00    +0.000 A 
ATOM     23  C   UNL     1      50.352   4.281  17.466  0.00  0.00    +0.000 A 
ATOM     24  S   UNL     1      51.250   5.245  18.547  0.00  0.00    +0.000 S 
ATOM     25  C   UNL     1      49.835   5.872  19.255  0.00  0.00    +0.000 A 
ATOM     26  N   UNL     1      49.907   6.757  20.286  0.00  0.00    +0.000 NA
ATOM     27  C   UNL     1      48.762   7.156  20.725  0.00  0.00    +0.000 A 
ATOM     28  N   UNL     1      47.549   6.758  20.223  0.00  0.00    +0.000 N 
ATOM     29  C   UNL     1      47.422   5.863  19.178  0.00  0.00    +0.000 A 
ATOM     30  O   UNL     1      46.322   5.541  18.745  0.00  0.00    +0.000 OA
ATOM     31  C   UNL     1      48.690   5.370  18.659  0.00  0.00    +0.000 A 
ATOM     32  H   UNL     1      46.691   7.122  20.606  0.00  0.00    +0.000 HD
ENDBRANCH  21  22
ENDBRANCH  18  21
ENDBRANCH   1  18
TORSDOF 8
ENDMDL
MODEL 7
REMARK VINA RESULT:    -6.878      2.848      4.170
REMARK INTER + INTRA:         -10.926
REMARK INTER:                  -9.765
REMARK INTRA:                  -1.161
REMARK UNBOUND:                -0.831
REMARK  Name = 
REMARK  9 active torsions:
REMARK  status: ('A' for Active; 'I' for Inactive)
REMARK    1  A    between atoms: C_1  and  C_2
REMARK    2  A    between atoms: C_2  and  N_3
REMARK    3  A    between atoms: C_2  and  C_19
REMARK    4  A    between atoms: N_3  and  C_4
REMARK    5  A    between atoms: C_4  and  C_5
REMARK    6  A    between atoms: C_8  and  C_9
REMARK    7  A    between atoms: C_9  and  N_10
REMARK    8  A    between atoms: N_10  and  C_11
REMARK    9  A    between atoms: C_11  and  C_12
REMARK                            x       y       z     vdW  Elec       q    Type
REMARK                         _______ _______ _______ _____ _____    ______ ____
ROOT
ATOM      1  C   UNL     1      47.072   4.499  14.871  0.00  0.00    +0.000 C 
ENDROOT
BRANCH   1   2
ATOM      2  C   UNL     1      46.220   4.515  13.622  0.00  0.00    +0.000 A 
ATOM      3  C   UNL     1      45.714   5.713  13.097  0.00  0.00    +0.000 A 
ATOM      4  C   UNL     1      44.923   5.704  11.944  0.00  0.00    +0.000 A 
ATOM      5  C   UNL     1      44.633   4.504  11.281  0.00  0.00    +0.000 A 
ATOM      6  C   UNL     1      45.157   3.311  11.790  0.00  0.00    +0.000 A 
ATOM      7  C   UNL     1      45.940   3.318  12.948  0.00  0.00    +0.000 A 
BRANCH   5   8
ATOM      8  C   UNL     1      43.736   4.484  10.064  0.00  0.00    +0.000 C 
BRANCH   8   9
ATOM      9  N   UNL     1      44.242   3.566   9.044  0.00  0.00    +0.000 NA
ATOM     10  H   UNL     1      43.493   3.400   8.368  0.00  0.00    +0.000 HD
BRANCH   9  11
ATOM     11  C   UNL     1      45.365   4.172   8.323  0.00  0.00    +0.000 C 
BRANCH  11  12
ATOM     12  C   UNL     1      46.247   3.105   7.765  0.00  0.00    +0.000 A 
ATOM     13  N   UNL     1      46.239   1.822   8.057  0.00  0.00    +0.000 NA
ATOM     14  C   UNL     1      47.244   1.264   7.308  0.00  0.00    +0.000 A 
ATOM     15  C   UNL     1      47.872   2.224   6.546  0.00  0.00    +0.000 A 
ATOM     16  N   UNL     1      47.231   3.389   6.851  0.00  0.00    +0.000 N 
ATOM     17  H   UNL     1      47.447   4.319   6.514  0.00  0.00    +0.000 HD
ENDBRANCH  11  12
ENDBRANCH   9  11
ENDBRANCH   8   9
ENDBRANCH   5   8
ENDBRANCH   1   2
BRANCH   1  18
ATOM     18  N   UNL     1      47.488   5.845  15.269  0.00  0.00    +0.000 NA
ATOM     19  H   UNL     1      47.462   6.449  14.449  0.00  0.00    +0.000 HD
BRANCH  18  21
ATOM     20  C   UNL     1      48.833   5.583  17.339  0.00  0.00    +0.000 C 
ATOM     21  C   UNL     1      48.848   5.887  15.834  0.00  0.00    +0.000 C 
BRANCH  21  22
ATOM     22  C   UNL     1      49.390   7.282  15.545  0.00  0.00    +0.000 A 
ATOM     23  C   UNL     1      49.717   8.195  16.538  0.00  0.00    +0.000 A 
ATOM     24  S   UNL     1      50.251   9.699  15.939  0.00  0.00    +0.000 S 
ATOM     25  C   UNL     1      50.065   9.189  14.326  0.00  0.00    +0.000 A 
ATOM     26  N   UNL     1      50.337  10.032  13.294  0.00  0.00    +0.000 NA
ATOM     27  C   UNL     1      50.158   9.518  12.125  0.00  0.00    +0.000 A 
ATOM     28  N   UNL     1      49.740   8.232  11.892  0.00  0.00    +0.000 N 
ATOM     29  C   UNL     1      49.452   7.337  12.903  0.00  0.00    +0.000 A 
ATOM     30  O   UNL     1      49.094   6.191  12.657  0.00  0.00    +0.000 OA
ATOM     31  C   UNL     1      49.622   7.879  14.244  0.00  0.00    +0.000 A 
ATOM     32  H   UNL     1      49.636   7.890  10.949  0.00  0.00    +0.000 HD
ENDBRANCH  21  22
ENDBRANCH  18  21
ENDBRANCH   1  18
TORSDOF 8
ENDMDL
MODEL 8
REMARK VINA RESULT:    -6.748      4.128      5.839
REMARK INTER + INTRA:         -10.735
REMARK INTER:                  -9.714
REMARK INTRA:                  -1.021
REMARK UNBOUND:                -0.831
REMARK  Name = 
REMARK  9 active torsions:
REMARK  status: ('A' for Active; 'I' for Inactive)
REMARK    1  A    between atoms: C_1  and  C_2
REMARK    2  A    between atoms: C_2  and  N_3
REMARK    3  A    between atoms: C_2  and  C_19
REMARK    4  A    between atoms: N_3  and  C_4
REMARK    5  A    between atoms: C_4  and  C_5
REMARK    6  A    between atoms: C_8  and  C_9
REMARK    7  A    between atoms: C_9  and  N_10
REMARK    8  A    between atoms: N_10  and  C_11
REMARK    9  A    between atoms: C_11  and  C_12
REMARK                            x       y       z     vdW  Elec       q    Type
REMARK                         _______ _______ _______ _____ _____    ______ ____
ROOT
ATOM      1  C   UNL     1      47.914   6.144  14.020  0.00  0.00    +0.000 C 
ENDROOT
BRANCH   1   2
ATOM      2  C   UNL     1      46.747   5.805  13.119  0.00  0.00    +0.000 A 
ATOM      3  C   UNL     1      45.756   4.897  13.516  0.00  0.00    +0.000 A 
ATOM      4  C   UNL     1      44.689   4.593  12.665  0.00  0.00    +0.000 A 
ATOM      5  C   UNL     1      44.580   5.200  11.405  0.00  0.00    +0.000 A 
ATOM      6  C   UNL     1      45.556   6.124  11.018  0.00  0.00    +0.000 A 
ATOM      7  C   UNL     1      46.628   6.420  11.864  0.00  0.00    +0.000 A 
BRANCH   5   8
ATOM      8  C   UNL     1      43.457   4.837  10.461  0.00  0.00    +0.000 C 
BRANCH   8   9
ATOM      9  N   UNL     1      43.971   4.390   9.168  0.00  0.00    +0.000 NA
ATOM     10  H   UNL     1      44.756   4.994   8.912  0.00  0.00    +0.000 HD
BRANCH   9  11
ATOM     11  C   UNL     1      44.480   3.018   9.266  0.00  0.00    +0.000 C 
BRANCH  11  12
ATOM     12  C   UNL     1      45.620   2.830   8.322  0.00  0.00    +0.000 A 
ATOM     13  N   UNL     1      46.165   3.728   7.529  0.00  0.00    +0.000 NA
ATOM     14  C   UNL     1      47.157   3.070   6.847  0.00  0.00    +0.000 A 
ATOM     15  C   UNL     1      47.217   1.749   7.232  0.00  0.00    +0.000 A 
ATOM     16  N   UNL     1      46.232   1.610   8.167  0.00  0.00    +0.000 N 
ATOM     17  H   UNL     1      45.950   0.764   8.645  0.00  0.00    +0.000 HD
ENDBRANCH  11  12
ENDBRANCH   9  11
ENDBRANCH   8   9
ENDBRANCH   5   8
ENDBRANCH   1   2
BRANCH   1  18
ATOM     18  N   UNL     1      49.105   6.519  13.256  0.00  0.00    +0.000 NA
ATOM     19  H   UNL     1      49.750   5.732  13.252  0.00  0.00    +0.000 HD
BRANCH  18  21
ATOM     20  C   UNL     1      49.467   7.883  15.299  0.00  0.00    +0.000 C 
ATOM     21  C   UNL     1      49.804   7.691  13.813  0.00  0.00    +0.000 C 
BRANCH  21  22
ATOM     22  C   UNL     1      49.369   8.887  12.975  0.00  0.00    +0.000 A 
ATOM     23  C   UNL     1      48.119   9.480  13.082  0.00  0.00    +0.000 A 
ATOM     24  S   UNL     1      47.875  10.768  11.992  0.00  0.00    +0.000 S 
ATOM     25  C   UNL     1      49.432  10.583  11.333  0.00  0.00    +0.000 A 
ATOM     26  N   UNL     1      49.856  11.380  10.315  0.00  0.00    +0.000 NA
ATOM     27  C   UNL     1      51.057  11.136   9.913  0.00  0.00    +0.000 A 
ATOM     28  N   UNL     1      51.879  10.173  10.441  0.00  0.00    +0.000 N 
ATOM     29  C   UNL     1      51.497   9.340  11.475  0.00  0.00    +0.000 A 
ATOM     30  O   UNL     1      52.264   8.500  11.931  0.00  0.00    +0.000 OA
ATOM     31  C   UNL     1      50.140   9.566  11.951  0.00  0.00    +0.000 A 
ATOM     32  H   UNL     1      52.814  10.047  10.087  0.00  0.00    +0.000 HD
ENDBRANCH  21  22
ENDBRANCH  18  21
ENDBRANCH   1  18
TORSDOF 8
ENDMDL
MODEL 9
REMARK VINA RESULT:    -6.729      2.335      3.296
REMARK INTER + INTRA:         -10.707
REMARK INTER:                  -9.513
REMARK INTRA:                  -1.194
REMARK UNBOUND:                -0.831
REMARK  Name = 
REMARK  9 active torsions:
REMARK  status: ('A' for Active; 'I' for Inactive)
REMARK    1  A    between atoms: C_1  and  C_2
REMARK    2  A    between atoms: C_2  and  N_3
REMARK    3  A    between atoms: C_2  and  C_19
REMARK    4  A    between atoms: N_3  and  C_4
REMARK    5  A    between atoms: C_4  and  C_5
REMARK    6  A    between atoms: C_8  and  C_9
REMARK    7  A    between atoms: C_9  and  N_10
REMARK    8  A    between atoms: N_10  and  C_11
REMARK    9  A    between atoms: C_11  and  C_12
REMARK                            x       y       z     vdW  Elec       q    Type
REMARK                         _______ _______ _______ _____ _____    ______ ____
ROOT
ATOM      1  C   UNL     1      49.808   7.765  13.693  0.00  0.00    +0.000 C 
ENDROOT
BRANCH   1   2
ATOM      2  C   UNL     1      48.407   7.613  13.144  0.00  0.00    +0.000 A 
ATOM      3  C   UNL     1      47.451   8.627  13.287  0.00  0.00    +0.000 A 
ATOM      4  C   UNL     1      46.159   8.463  12.776  0.00  0.00    +0.000 A 
ATOM      5  C   UNL     1      45.799   7.289  12.099  0.00  0.00    +0.000 A 
ATOM      6  C   UNL     1      46.760   6.286  11.936  0.00  0.00    +0.000 A 
ATOM      7  C   UNL     1      48.047   6.446  12.454  0.00  0.00    +0.000 A 
BRANCH   5   8
ATOM      8  C   UNL     1      44.390   7.085  11.591  0.00  0.00    +0.000 C 
BRANCH   8   9
ATOM      9  N   UNL     1      43.827   5.825  12.071  0.00  0.00    +0.000 NA
ATOM     10  H   UNL     1      43.249   6.027  12.890  0.00  0.00    +0.000 HD
BRANCH   9  11
ATOM     11  C   UNL     1      42.958   5.230  11.050  0.00  0.00    +0.000 C 
BRANCH  11  12
ATOM     12  C   UNL     1      43.726   4.237  10.243  0.00  0.00    +0.000 A 
ATOM     13  N   UNL     1      44.184   3.067  10.633  0.00  0.00    +0.000 NA
ATOM     14  C   UNL     1      44.836   2.543   9.546  0.00  0.00    +0.000 A 
ATOM     15  C   UNL     1      44.773   3.408   8.477  0.00  0.00    +0.000 A 
ATOM     16  N   UNL     1      44.068   4.483   8.936  0.00  0.00    +0.000 N 
ATOM     17  H   UNL     1      43.856   5.339   8.441  0.00  0.00    +0.000 HD
ENDBRANCH  11  12
ENDBRANCH   9  11
ENDBRANCH   8   9
ENDBRANCH   5   8
ENDBRANCH   1   2
BRANCH   1  18
ATOM     18  N   UNL     1      50.005   6.983  14.915  0.00  0.00    +0.000 NA
ATOM     19  H   UNL     1      49.741   6.017  14.729  0.00  0.00    +0.000 HD
BRANCH  18  21
ATOM     20  C   UNL     1      49.727   8.828  16.553  0.00  0.00    +0.000 C 
ATOM     21  C   UNL     1      49.206   7.473  16.051  0.00  0.00    +0.000 C 
BRANCH  21  22
ATOM     22  C   UNL     1      49.291   6.400  17.130  0.00  0.00    +0.000 A 
ATOM     23  C   UNL     1      50.099   6.509  18.253  0.00  0.00    +0.000 A 
ATOM     24  S   UNL     1      50.045   5.145  19.274  0.00  0.00    +0.000 S 
ATOM     25  C   UNL     1      48.939   4.352  18.253  0.00  0.00    +0.000 A 
ATOM     26  N   UNL     1      48.493   3.101  18.548  0.00  0.00    +0.000 NA
ATOM     27  C   UNL     1      47.656   2.620  17.693  0.00  0.00    +0.000 A 
ATOM     28  N   UNL     1      47.214   3.278  16.574  0.00  0.00    +0.000 N 
ATOM     29  C   UNL     1      47.633   4.549  16.231  0.00  0.00    +0.000 A 
ATOM     30  O   UNL     1      47.206   5.112  15.230  0.00  0.00    +0.000 OA
ATOM     31  C   UNL     1      48.596   5.128  17.157  0.00  0.00    +0.000 A 
ATOM     32  H   UNL     1      46.544   2.846  15.956  0.00  0.00    +0.000 HD
ENDBRANCH  21  22
ENDBRANCH  18  21
ENDBRANCH   1  18
TORSDOF 8
ENDMDL
