MODEL 1
REMARK VINA RESULT:    -8.617      0.000      0.000
REMARK INTER + INTRA:         -13.496
REMARK INTER:                 -12.395
REMARK INTRA:                  -1.101
REMARK UNBOUND:                -1.101
REMARK  Name = 
REMARK  8 active torsions:
REMARK  status: ('A' for Active; 'I' for Inactive)
REMARK    1  A    between atoms: C_2  and  C_21
REMARK    2  A    between atoms: N_3  and  C_4
REMARK    3  A    between atoms: C_4  and  C_5
REMARK    4  A    between atoms: C_8  and  C_9
REMARK    5  A    between atoms: C_9  and  C_10
REMARK    6  A    between atoms: C_10  and  O_11
REMARK    7  A    between atoms: C_10  and  C_12
REMARK    8  A    between atoms: C_12  and  C_13
REMARK                            x       y       z     vdW  Elec       q    Type
REMARK                         _______ _______ _______ _____ _____    ______ ____
ROOT
ATOM      1  C   UNL     1      46.269   7.333  12.409  0.00  0.00    +0.000 A 
ATOM      2  C   UNL     1      46.780   6.671  11.286  0.00  0.00    +0.000 A 
ATOM      3  C   UNL     1      45.992   5.763  10.574  0.00  0.00    +0.000 A 
ATOM      4  C   UNL     1      44.676   5.495  10.967  0.00  0.00    +0.000 A 
ATOM      5  C   UNL     1      44.142   6.210  12.049  0.00  0.00    +0.000 A 
ATOM      6  C   UNL     1      44.930   7.122  12.760  0.00  0.00    +0.000 A 
ENDROOT
BRANCH   1   7
ATOM      7  C   UNL     1      47.153   8.241  13.224  0.00  0.00    +0.000 C 
BRANCH   7  10
ATOM      8  O   UNL     1      49.087   6.326  13.693  0.00  0.00    +0.000 OA
ATOM      9  C   UNL     1      48.483   6.787  14.661  0.00  0.00    +0.000 C 
ATOM     10  N   UNL     1      47.457   7.687  14.516  0.00  0.00    +0.000 N 
ATOM     11  H   UNL     1      47.133   8.207  15.327  0.00  0.00    +0.000 HD
BRANCH   9  12
ATOM     12  C   UNL     1      48.805   6.368  16.027  0.00  0.00    +0.000 A 
ATOM     13  C   UNL     1      49.462   7.243  16.882  0.00  0.00    +0.000 A 
ATOM     14  S   UNL     1      49.753   6.593  18.432  0.00  0.00    +0.000 S 
ATOM     15  C   UNL     1      48.969   5.137  18.028  0.00  0.00    +0.000 A 
ATOM     16  N   UNL     1      48.827   4.143  18.944  0.00  0.00    +0.000 NA
ATOM     17  C   UNL     1      48.178   3.112  18.514  0.00  0.00    +0.000 A 
ATOM     18  N   UNL     1      47.670   2.982  17.247  0.00  0.00    +0.000 N 
ATOM     19  C   UNL     1      47.830   3.940  16.276  0.00  0.00    +0.000 A 
ATOM     20  O   UNL     1      47.423   3.764  15.132  0.00  0.00    +0.000 OA
ATOM     21  C   UNL     1      48.522   5.136  16.719  0.00  0.00    +0.000 A 
ATOM     22  H   UNL     1      47.190   2.139  16.966  0.00  0.00    +0.000 HD
ENDBRANCH   9  12
ENDBRANCH   7  10
ENDBRANCH   1   7
BRANCH   4  23
ATOM     23  C   UNL     1      43.855   4.440  10.251  0.00  0.00    +0.000 C 
BRANCH  23  24
ATOM     24  C   UNL     1      44.446   3.014  10.383  0.00  0.00    +0.000 C 
BRANCH  24  25
ATOM     25  O   UNL     1      43.766   2.315  11.439  0.00  0.00    +0.000 OA
ATOM     26  H   UNL     1      43.966   2.755  12.278  0.00  0.00    +0.000 HD
ENDBRANCH  24  25
BRANCH  24  27
ATOM     27  C   UNL     1      44.287   2.223   9.074  0.00  0.00    +0.000 C 
BRANCH  27  28
ATOM     28  C   UNL     1      45.554   2.219   8.251  0.00  0.00    +0.000 A 
ATOM     29  C   UNL     1      45.974   3.379   7.596  0.00  0.00    +0.000 A 
ATOM     30  C   UNL     1      47.129   3.340   6.822  0.00  0.00    +0.000 A 
ATOM     31  C   UNL     1      47.834   2.148   6.713  0.00  0.00    +0.000 A 
ATOM     32  C   UNL     1      47.349   1.042   7.393  0.00  0.00    +0.000 A 
ATOM     33  N   UNL     1      46.236   1.051   8.159  0.00  0.00    +0.000 NA
ENDBRANCH  27  28
ENDBRANCH  24  27
ENDBRANCH  23  24
ENDBRANCH   4  23
TORSDOF 8
ENDMDL
MODEL 2
REMARK VINA RESULT:    -8.298      1.616      1.969
REMARK INTER + INTRA:         -13.037
REMARK INTER:                 -12.011
REMARK INTRA:                  -1.027
REMARK UNBOUND:                -1.101
REMARK  Name = 
REMARK  8 active torsions:
REMARK  status: ('A' for Active; 'I' for Inactive)
REMARK    1  A    between atoms: C_2  and  C_21
REMARK    2  A    between atoms: N_3  and  C_4
REMARK    3  A    between atoms: C_4  and  C_5
REMARK    4  A    between atoms: C_8  and  C_9
REMARK    5  A    between atoms: C_9  and  C_10
REMARK    6  A    between atoms: C_10  and  O_11
REMARK    7  A    between atoms: C_10  and  C_12
REMARK    8  A    between atoms: C_12  and  C_13
REMARK                            x       y       z     vdW  Elec       q    Type
REMARK                         _______ _______ _______ _____ _____    ______ ____
ROOT
ATOM      1  C   UNL     1      47.475   6.511  13.198  0.00  0.00    +0.000 A 
ATOM      2  C   UNL     1      46.854   5.398  13.777  0.00  0.00    +0.000 A 
ATOM      3  C   UNL     1      45.830   4.723  13.107  0.00  0.00    +0.000 A 
ATOM      4  C   UNL     1      45.403   5.144  11.842  0.00  0.00    +0.000 A 
ATOM      5  C   UNL     1      46.073   6.215  11.232  0.00  0.00    +0.000 A 
ATOM      6  C   UNL     1      47.101   6.889  11.903  0.00  0.00    +0.000 A 
ENDROOT
BRANCH   1   7
ATOM      7  C   UNL     1      48.514   7.287  13.964  0.00  0.00    +0.000 C 
BRANCH   7  10
ATOM      8  O   UNL     1      50.200   6.199  15.862  0.00  0.00    +0.000 OA
ATOM      9  C   UNL     1      49.188   6.781  16.252  0.00  0.00    +0.000 C 
ATOM     10  N   UNL     1      48.258   7.288  15.380  0.00  0.00    +0.000 N 
ATOM     11  H   UNL     1      47.561   7.943  15.720  0.00  0.00    +0.000 HD
BRANCH   9  12
ATOM     12  C   UNL     1      48.903   6.933  17.682  0.00  0.00    +0.000 A 
ATOM     13  C   UNL     1      48.624   8.191  18.201  0.00  0.00    +0.000 A 
ATOM     14  S   UNL     1      48.313   8.182  19.878  0.00  0.00    +0.000 S 
ATOM     15  C   UNL     1      48.494   6.491  19.958  0.00  0.00    +0.000 A 
ATOM     16  N   UNL     1      48.312   5.823  21.128  0.00  0.00    +0.000 NA
ATOM     17  C   UNL     1      48.443   4.541  21.035  0.00  0.00    +0.000 A 
ATOM     18  N   UNL     1      48.752   3.870  19.880  0.00  0.00    +0.000 N 
ATOM     19  C   UNL     1      48.991   4.506  18.687  0.00  0.00    +0.000 A 
ATOM     20  O   UNL     1      49.333   3.882  17.688  0.00  0.00    +0.000 OA
ATOM     21  C   UNL     1      48.821   5.947  18.729  0.00  0.00    +0.000 A 
ATOM     22  H   UNL     1      48.861   2.866  19.879  0.00  0.00    +0.000 HD
ENDBRANCH   9  12
ENDBRANCH   7  10
ENDBRANCH   1   7
BRANCH   4  23
ATOM     23  C   UNL     1      44.230   4.470  11.158  0.00  0.00    +0.000 C 
BRANCH  23  24
ATOM     24  C   UNL     1      44.642   3.238  10.314  0.00  0.00    +0.000 C 
BRANCH  24  25
ATOM     25  O   UNL     1      43.750   2.148  10.600  0.00  0.00    +0.000 OA
ATOM     26  H   UNL     1      43.095   2.091   9.890  0.00  0.00    +0.000 HD
ENDBRANCH  24  25
BRANCH  24  27
ATOM     27  C   UNL     1      44.585   3.552   8.810  0.00  0.00    +0.000 C 
BRANCH  27  28
ATOM     28  C   UNL     1      45.667   2.836   8.035  0.00  0.00    +0.000 A 
ATOM     29  C   UNL     1      46.332   3.484   6.990  0.00  0.00    +0.000 A 
ATOM     30  C   UNL     1      47.305   2.793   6.275  0.00  0.00    +0.000 A 
ATOM     31  C   UNL     1      47.589   1.476   6.612  0.00  0.00    +0.000 A 
ATOM     32  C   UNL     1      46.883   0.906   7.660  0.00  0.00    +0.000 A 
ATOM     33  N   UNL     1      45.939   1.553   8.379  0.00  0.00    +0.000 NA
ENDBRANCH  27  28
ENDBRANCH  24  27
ENDBRANCH  23  24
ENDBRANCH   4  23
TORSDOF 8
ENDMDL
MODEL 3
REMARK VINA RESULT:    -8.158      2.134      2.673
REMARK INTER + INTRA:         -12.836
REMARK INTER:                 -11.857
REMARK INTRA:                  -0.979
REMARK UNBOUND:                -1.101
REMARK  Name = 
REMARK  8 active torsions:
REMARK  status: ('A' for Active; 'I' for Inactive)
REMARK    1  A    between atoms: C_2  and  C_21
REMARK    2  A    between atoms: N_3  and  C_4
REMARK    3  A    between atoms: C_4  and  C_5
REMARK    4  A    between atoms: C_8  and  C_9
REMARK    5  A    between atoms: C_9  and  C_10
REMARK    6  A    between atoms: C_10  and  O_11
REMARK    7  A    between atoms: C_10  and  C_12
REMARK    8  A    between atoms: C_12  and  C_13
REMARK                            x       y       z     vdW  Elec       q    Type
REMARK                         _______ _______ _______ _____ _____    ______ ____
ROOT
ATOM      1  C   UNL     1      47.169   6.187  13.187  0.00  0.00    +0.000 A 
ATOM      2  C   UNL     1      46.953   6.711  11.906  0.00  0.00    +0.000 A 
ATOM      3  C   UNL     1      46.010   6.135  11.050  0.00  0.00    +0.000 A 
ATOM      4  C   UNL     1      45.261   5.024  11.453  0.00  0.00    +0.000 A 
ATOM      5  C   UNL     1      45.427   4.544  12.761  0.00  0.00    +0.000 A 
ATOM      6  C   UNL     1      46.369   5.122  13.619  0.00  0.00    +0.000 A 
ENDROOT
BRANCH   1   7
ATOM      7  C   UNL     1      48.250   6.755  14.069  0.00  0.00    +0.000 C 
BRANCH   7  10
ATOM      8  O   UNL     1      50.243   6.195  15.896  0.00  0.00    +0.000 OA
ATOM      9  C   UNL     1      49.086   6.266  16.307  0.00  0.00    +0.000 C 
ATOM     10  N   UNL     1      48.025   6.467  15.460  0.00  0.00    +0.000 N 
ATOM     11  H   UNL     1      47.125   6.737  15.845  0.00  0.00    +0.000 HD
BRANCH   9  12
ATOM     12  C   UNL     1      48.773   6.101  17.729  0.00  0.00    +0.000 A 
ATOM     13  C   UNL     1      49.035   4.892  18.359  0.00  0.00    +0.000 A 
ATOM     14  S   UNL     1      48.613   4.879  20.011  0.00  0.00    +0.000 S 
ATOM     15  C   UNL     1      48.108   6.504  19.952  0.00  0.00    +0.000 A 
ATOM     16  N   UNL     1      47.662   7.139  21.068  0.00  0.00    +0.000 NA
ATOM     17  C   UNL     1      47.350   8.379  20.886  0.00  0.00    +0.000 A 
ATOM     18  N   UNL     1      47.433   9.037  19.686  0.00  0.00    +0.000 N 
ATOM     19  C   UNL     1      47.833   8.424  18.524  0.00  0.00    +0.000 A 
ATOM     20  O   UNL     1      47.830   9.022  17.453  0.00  0.00    +0.000 OA
ATOM     21  C   UNL     1      48.230   7.037  18.681  0.00  0.00    +0.000 A 
ATOM     22  H   UNL     1      47.152  10.004  19.606  0.00  0.00    +0.000 HD
ENDBRANCH   9  12
ENDBRANCH   7  10
ENDBRANCH   1   7
BRANCH   4  23
ATOM     23  C   UNL     1      44.307   4.344  10.490  0.00  0.00    +0.000 C 
BRANCH  23  24
ATOM     24  C   UNL     1      44.415   2.799  10.515  0.00  0.00    +0.000 C 
BRANCH  24  25
ATOM     25  O   UNL     1      43.393   2.267  11.374  0.00  0.00    +0.000 OA
ATOM     26  H   UNL     1      43.795   1.610  11.961  0.00  0.00    +0.000 HD
ENDBRANCH  24  25
BRANCH  24  27
ATOM     27  C   UNL     1      44.245   2.207   9.106  0.00  0.00    +0.000 C 
BRANCH  27  28
ATOM     28  C   UNL     1      45.531   2.241   8.313  0.00  0.00    +0.000 A 
ATOM     29  C   UNL     1      45.960   3.430   7.716  0.00  0.00    +0.000 A 
ATOM     30  C   UNL     1      47.132   3.427   6.967  0.00  0.00    +0.000 A 
ATOM     31  C   UNL     1      47.846   2.243   6.826  0.00  0.00    +0.000 A 
ATOM     32  C   UNL     1      47.351   1.108   7.449  0.00  0.00    +0.000 A 
ATOM     33  N   UNL     1      46.221   1.081   8.190  0.00  0.00    +0.000 NA
ENDBRANCH  27  28
ENDBRANCH  24  27
ENDBRANCH  23  24
ENDBRANCH   4  23
TORSDOF 8
ENDMDL
MODEL 4
REMARK VINA RESULT:    -7.385      2.133      2.786
REMARK INTER + INTRA:         -11.724
REMARK INTER:                 -10.700
REMARK INTRA:                  -1.025
REMARK UNBOUND:                -1.101
REMARK  Name = 
REMARK  8 active torsions:
REMARK  status: ('A' for Active; 'I' for Inactive)
REMARK    1  A    between atoms: C_2  and  C_21
REMARK    2  A    between atoms: N_3  and  C_4
REMARK    3  A    between atoms: C_4  and  C_5
REMARK    4  A    between atoms: C_8  and  C_9
REMARK    5  A    between atoms: C_9  and  C_10
REMARK    6  A    between atoms: C_10  and  O_11
REMARK    7  A    between atoms: C_10  and  C_12
REMARK    8  A    between atoms: C_12  and  C_13
REMARK                            x       y       z     vdW  Elec       q    Type
REMARK                         _______ _______ _______ _____ _____    ______ ____
ROOT
ATOM      1  C   UNL     1      47.790   6.636  13.122  0.00  0.00    +0.000 A 
ATOM      2  C   UNL     1      47.131   5.597  13.791  0.00  0.00    +0.000 A 
ATOM      3  C   UNL     1      46.027   4.965  13.213  0.00  0.00    +0.000 A 
ATOM      4  C   UNL     1      45.555   5.356  11.955  0.00  0.00    +0.000 A 
ATOM      5  C   UNL     1      46.257   6.349  11.255  0.00  0.00    +0.000 A 
ATOM      6  C   UNL     1      47.365   6.979  11.833  0.00  0.00    +0.000 A 
ENDROOT
BRANCH   1   7
ATOM      7  C   UNL     1      48.921   7.373  13.789  0.00  0.00    +0.000 C 
BRANCH   7  10
ATOM      8  O   UNL     1      48.578   8.218  16.396  0.00  0.00    +0.000 OA
ATOM      9  C   UNL     1      49.139   7.139  16.207  0.00  0.00    +0.000 C 
ATOM     10  N   UNL     1      49.418   6.676  14.945  0.00  0.00    +0.000 N 
ATOM     11  H   UNL     1      49.676   5.702  14.819  0.00  0.00    +0.000 HD
BRANCH   9  12
ATOM     12  C   UNL     1      49.576   6.303  17.328  0.00  0.00    +0.000 A 
ATOM     13  C   UNL     1      48.650   5.866  18.267  0.00  0.00    +0.000 A 
ATOM     14  S   UNL     1      49.331   4.903  19.498  0.00  0.00    +0.000 S 
ATOM     15  C   UNL     1      50.878   4.997  18.793  0.00  0.00    +0.000 A 
ATOM     16  N   UNL     1      51.936   4.341  19.338  0.00  0.00    +0.000 NA
ATOM     17  C   UNL     1      53.039   4.469  18.678  0.00  0.00    +0.000 A 
ATOM     18  N   UNL     1      53.181   5.204  17.529  0.00  0.00    +0.000 N 
ATOM     19  C   UNL     1      52.152   5.920  16.969  0.00  0.00    +0.000 A 
ATOM     20  O   UNL     1      52.328   6.623  15.979  0.00  0.00    +0.000 OA
ATOM     21  C   UNL     1      50.879   5.781  17.653  0.00  0.00    +0.000 A 
ATOM     22  H   UNL     1      54.078   5.281  17.072  0.00  0.00    +0.000 HD
ENDBRANCH   9  12
ENDBRANCH   7  10
ENDBRANCH   1   7
BRANCH   4  23
ATOM     23  C   UNL     1      44.300   4.734  11.372  0.00  0.00    +0.000 C 
BRANCH  23  24
ATOM     24  C   UNL     1      44.585   3.476  10.515  0.00  0.00    +0.000 C 
BRANCH  24  25
ATOM     25  O   UNL     1      43.646   2.444  10.861  0.00  0.00    +0.000 OA
ATOM     26  H   UNL     1      43.969   1.602  10.508  0.00  0.00    +0.000 HD
ENDBRANCH  24  25
BRANCH  24  27
ATOM     27  C   UNL     1      44.459   3.786   9.014  0.00  0.00    +0.000 C 
BRANCH  27  28
ATOM     28  C   UNL     1      45.526   3.095   8.196  0.00  0.00    +0.000 A 
ATOM     29  C   UNL     1      45.831   1.751   8.426  0.00  0.00    +0.000 A 
ATOM     30  C   UNL     1      46.837   1.147   7.678  0.00  0.00    +0.000 A 
ATOM     31  C   UNL     1      47.518   1.895   6.726  0.00  0.00    +0.000 A 
ATOM     32  C   UNL     1      47.155   3.223   6.561  0.00  0.00    +0.000 A 
ATOM     33  N   UNL     1      46.177   3.835   7.265  0.00  0.00    +0.000 NA
ENDBRANCH  27  28
ENDBRANCH  24  27
ENDBRANCH  23  24
ENDBRANCH   4  23
TORSDOF 8
ENDMDL
MODEL 5
REMARK VINA RESULT:    -7.164      2.479      3.385
REMARK INTER + INTRA:         -11.406
REMARK INTER:                 -10.224
REMARK INTRA:                  -1.181
REMARK UNBOUND:                -1.101
REMARK  Name = 
REMARK  8 active torsions:
REMARK  status: ('A' for Active; 'I' for Inactive)
REMARK    1  A    between atoms: C_2  and  C_21
REMARK    2  A    between atoms: N_3  and  C_4
REMARK    3  A    between atoms: C_4  and  C_5
REMARK    4  A    between atoms: C_8  and  C_9
REMARK    5  A    between atoms: C_9  and  C_10
REMARK    6  A    between atoms: C_10  and  O_11
REMARK    7  A    between atoms: C_10  and  C_12
REMARK    8  A    between atoms: C_12  and  C_13
REMARK                            x       y       z     vdW  Elec       q    Type
REMARK                         _______ _______ _______ _____ _____    ______ ____
ROOT
ATOM      1  C   UNL     1      46.969   4.607  14.425  0.00  0.00    +0.000 A 
ATOM      2  C   UNL     1      46.323   3.631  13.656  0.00  0.00    +0.000 A 
ATOM      3  C   UNL     1      45.894   3.916  12.357  0.00  0.00    +0.000 A 
ATOM      4  C   UNL     1      46.098   5.182  11.797  0.00  0.00    +0.000 A 
ATOM      5  C   UNL     1      46.807   6.137  12.542  0.00  0.00    +0.000 A 
ATOM      6  C   UNL     1      47.240   5.850  13.841  0.00  0.00    +0.000 A 
ENDROOT
BRANCH   1   7
ATOM      7  C   UNL     1      47.347   4.321  15.855  0.00  0.00    +0.000 C 
BRANCH   7  10
ATOM      8  O   UNL     1      46.797   5.001  18.475  0.00  0.00    +0.000 OA
ATOM      9  C   UNL     1      47.591   5.702  17.850  0.00  0.00    +0.000 C 
ATOM     10  N   UNL     1      47.867   5.483  16.523  0.00  0.00    +0.000 N 
ATOM     11  H   UNL     1      48.677   5.931  16.103  0.00  0.00    +0.000 HD
BRANCH   9  12
ATOM     12  C   UNL     1      48.261   6.841  18.483  0.00  0.00    +0.000 A 
ATOM     13  C   UNL     1      47.505   7.863  19.045  0.00  0.00    +0.000 A 
ATOM     14  S   UNL     1      48.447   9.103  19.740  0.00  0.00    +0.000 S 
ATOM     15  C   UNL     1      49.895   8.294  19.357  0.00  0.00    +0.000 A 
ATOM     16  N   UNL     1      51.100   8.808  19.721  0.00  0.00    +0.000 NA
ATOM     17  C   UNL     1      52.111   8.071  19.401  0.00  0.00    +0.000 A 
ATOM     18  N   UNL     1      52.026   6.873  18.739  0.00  0.00    +0.000 N 
ATOM     19  C   UNL     1      50.835   6.339  18.312  0.00  0.00    +0.000 A 
ATOM     20  O   UNL     1      50.799   5.299  17.662  0.00  0.00    +0.000 OA
ATOM     21  C   UNL     1      49.663   7.112  18.679  0.00  0.00    +0.000 A 
ATOM     22  H   UNL     1      52.858   6.355  18.499  0.00  0.00    +0.000 HD
ENDBRANCH   9  12
ENDBRANCH   7  10
ENDBRANCH   1   7
BRANCH   4  23
ATOM     23  C   UNL     1      45.547   5.519  10.425  0.00  0.00    +0.000 C 
BRANCH  23  24
ATOM     24  C   UNL     1      44.447   4.538   9.952  0.00  0.00    +0.000 C 
BRANCH  24  25
ATOM     25  O   UNL     1      43.157   5.072  10.294  0.00  0.00    +0.000 OA
ATOM     26  H   UNL     1      42.789   4.547  11.020  0.00  0.00    +0.000 HD
ENDBRANCH  24  25
BRANCH  24  27
ATOM     27  C   UNL     1      44.512   4.320   8.431  0.00  0.00    +0.000 C 
BRANCH  27  28
ATOM     28  C   UNL     1      45.555   3.297   8.045  0.00  0.00    +0.000 A 
ATOM     29  C   UNL     1      46.619   3.654   7.212  0.00  0.00    +0.000 A 
ATOM     30  C   UNL     1      47.549   2.686   6.848  0.00  0.00    +0.000 A 
ATOM     31  C   UNL     1      47.396   1.387   7.316  0.00  0.00    +0.000 A 
ATOM     32  C   UNL     1      46.313   1.115   8.137  0.00  0.00    +0.000 A 
ATOM     33  N   UNL     1      45.398   2.035   8.514  0.00  0.00    +0.000 NA
ENDBRANCH  27  28
ENDBRANCH  24  27
ENDBRANCH  23  24
ENDBRANCH   4  23
TORSDOF 8
ENDMDL
MODEL 6
REMARK VINA RESULT:    -7.094      3.173      8.052
REMARK INTER + INTRA:         -11.305
REMARK INTER:                  -9.743
REMARK INTRA:                  -1.561
REMARK UNBOUND:                -1.101
REMARK  Name = 
REMARK  8 active torsions:
REMARK  status: ('A' for Active; 'I' for Inactive)
REMARK    1  A    between atoms: C_2  and  C_21
REMARK    2  A    between atoms: N_3  and  C_4
REMARK    3  A    between atoms: C_4  and  C_5
REMARK    4  A    between atoms: C_8  and  C_9
REMARK    5  A    between atoms: C_9  and  C_10
REMARK    6  A    between atoms: C_10  and  O_11
REMARK    7  A    between atoms: C_10  and  C_12
REMARK    8  A    between atoms: C_12  and  C_13
REMARK                            x       y       z     vdW  Elec       q    Type
REMARK                         _______ _______ _______ _____ _____    ______ ____
ROOT
ATOM      1  C   UNL     1      48.173   8.080  14.098  0.00  0.00    +0.000 A 
ATOM      2  C   UNL     1      48.276   9.136  15.012  0.00  0.00    +0.000 A 
ATOM      3  C   UNL     1      48.746   8.915  16.308  0.00  0.00    +0.000 A 
ATOM      4  C   UNL     1      49.125   7.633  16.724  0.00  0.00    +0.000 A 
ATOM      5  C   UNL     1      49.088   6.588  15.788  0.00  0.00    +0.000 A 
ATOM      6  C   UNL     1      48.620   6.811  14.488  0.00  0.00    +0.000 A 
ENDROOT
BRANCH   1   7
ATOM      7  C   UNL     1      47.580   8.309  12.733  0.00  0.00    +0.000 C 
BRANCH   7  10
ATOM      8  O   UNL     1      45.100   8.119  11.532  0.00  0.00    +0.000 OA
ATOM      9  C   UNL     1      45.822   7.123  11.530  0.00  0.00    +0.000 C 
ATOM     10  N   UNL     1      47.037   7.103  12.166  0.00  0.00    +0.000 N 
ATOM     11  H   UNL     1      47.694   6.355  11.962  0.00  0.00    +0.000 HD
BRANCH   9  12
ATOM     12  C   UNL     1      45.401   5.882  10.874  0.00  0.00    +0.000 A 
ATOM     13  C   UNL     1      45.785   5.628   9.563  0.00  0.00    +0.000 A 
ATOM     14  S   UNL     1      45.211   4.139   8.961  0.00  0.00    +0.000 S 
ATOM     15  C   UNL     1      44.469   3.762  10.446  0.00  0.00    +0.000 A 
ATOM     16  N   UNL     1      43.824   2.579  10.624  0.00  0.00    +0.000 NA
ATOM     17  C   UNL     1      43.343   2.409  11.811  0.00  0.00    +0.000 A 
ATOM     18  N   UNL     1      43.439   3.320  12.831  0.00  0.00    +0.000 N 
ATOM     19  C   UNL     1      44.040   4.546  12.683  0.00  0.00    +0.000 A 
ATOM     20  O   UNL     1      44.049   5.367  13.594  0.00  0.00    +0.000 OA
ATOM     21  C   UNL     1      44.630   4.773  11.376  0.00  0.00    +0.000 A 
ATOM     22  H   UNL     1      43.021   3.135  13.731  0.00  0.00    +0.000 HD
ENDBRANCH   9  12
ENDBRANCH   7  10
ENDBRANCH   1   7
BRANCH   4  23
ATOM     23  C   UNL     1      49.545   7.377  18.158  0.00  0.00    +0.000 C 
BRANCH  23  24
ATOM     24  C   UNL     1      48.346   7.152  19.113  0.00  0.00    +0.000 C 
BRANCH  24  25
ATOM     25  O   UNL     1      47.120   7.338  18.387  0.00  0.00    +0.000 OA
ATOM     26  H   UNL     1      46.759   8.208  18.610  0.00  0.00    +0.000 HD
ENDBRANCH  24  25
BRANCH  24  27
ATOM     27  C   UNL     1      48.368   5.733  19.706  0.00  0.00    +0.000 C 
BRANCH  27  28
ATOM     28  C   UNL     1      48.293   4.666  18.638  0.00  0.00    +0.000 A 
ATOM     29  C   UNL     1      49.404   3.864  18.363  0.00  0.00    +0.000 A 
ATOM     30  C   UNL     1      49.317   2.908  17.356  0.00  0.00    +0.000 A 
ATOM     31  C   UNL     1      48.132   2.778  16.644  0.00  0.00    +0.000 A 
ATOM     32  C   UNL     1      47.077   3.613  16.978  0.00  0.00    +0.000 A 
ATOM     33  N   UNL     1      47.128   4.544  17.956  0.00  0.00    +0.000 NA
ENDBRANCH  27  28
ENDBRANCH  24  27
ENDBRANCH  23  24
ENDBRANCH   4  23
TORSDOF 8
ENDMDL
MODEL 7
REMARK VINA RESULT:    -7.044      2.467      3.364
REMARK INTER + INTRA:         -11.233
REMARK INTER:                  -9.969
REMARK INTRA:                  -1.265
REMARK UNBOUND:                -1.101
REMARK  Name = 
REMARK  8 active torsions:
REMARK  status: ('A' for Active; 'I' for Inactive)
REMARK    1  A    between atoms: C_2  and  C_21
REMARK    2  A    between atoms: N_3  and  C_4
REMARK    3  A    between atoms: C_4  and  C_5
REMARK    4  A    between atoms: C_8  and  C_9
REMARK    5  A    between atoms: C_9  and  C_10
REMARK    6  A    between atoms: C_10  and  O_11
REMARK    7  A    between atoms: C_10  and  C_12
REMARK    8  A    between atoms: C_12  and  C_13
REMARK                            x       y       z     vdW  Elec       q    Type
REMARK                         _______ _______ _______ _____ _____    ______ ____
ROOT
ATOM      1  C   UNL     1      48.408   7.919  13.259  0.00  0.00    +0.000 A 
ATOM      2  C   UNL     1      48.181   6.777  12.481  0.00  0.00    +0.000 A 
ATOM      3  C   UNL     1      46.913   6.512  11.956  0.00  0.00    +0.000 A 
ATOM      4  C   UNL     1      45.843   7.382  12.195  0.00  0.00    +0.000 A 
ATOM      5  C   UNL     1      46.087   8.561  12.915  0.00  0.00    +0.000 A 
ATOM      6  C   UNL     1      47.358   8.827  13.438  0.00  0.00    +0.000 A 
ENDROOT
BRANCH   1   7
ATOM      7  C   UNL     1      49.752   8.149  13.898  0.00  0.00    +0.000 C 
BRANCH   7  10
ATOM      8  O   UNL     1      48.957   7.839  16.525  0.00  0.00    +0.000 OA
ATOM      9  C   UNL     1      49.645   6.953  16.020  0.00  0.00    +0.000 C 
ATOM     10  N   UNL     1      50.146   7.057  14.746  0.00  0.00    +0.000 N 
ATOM     11  H   UNL     1      50.516   6.229  14.288  0.00  0.00    +0.000 HD
BRANCH   9  12
ATOM     12  C   UNL     1      50.000   5.745  16.771  0.00  0.00    +0.000 A 
ATOM     13  C   UNL     1      49.002   4.876  17.194  0.00  0.00    +0.000 A 
ATOM     14  S   UNL     1      49.593   3.524  18.049  0.00  0.00    +0.000 S 
ATOM     15  C   UNL     1      51.206   4.030  17.843  0.00  0.00    +0.000 A 
ATOM     16  N   UNL     1      52.239   3.281  18.312  0.00  0.00    +0.000 NA
ATOM     17  C   UNL     1      53.408   3.765  18.052  0.00  0.00    +0.000 A 
ATOM     18  N   UNL     1      53.636   4.936  17.376  0.00  0.00    +0.000 N 
ATOM     19  C   UNL     1      52.624   5.747  16.925  0.00  0.00    +0.000 A 
ATOM     20  O   UNL     1      52.861   6.822  16.384  0.00  0.00    +0.000 OA
ATOM     21  C   UNL     1      51.288   5.230  17.161  0.00  0.00    +0.000 A 
ATOM     22  H   UNL     1      54.576   5.270  17.223  0.00  0.00    +0.000 HD
ENDBRANCH   9  12
ENDBRANCH   7  10
ENDBRANCH   1   7
BRANCH   4  23
ATOM     23  C   UNL     1      44.448   7.046  11.704  0.00  0.00    +0.000 C 
BRANCH  23  24
ATOM     24  C   UNL     1      44.015   5.598  12.044  0.00  0.00    +0.000 C 
BRANCH  24  25
ATOM     25  O   UNL     1      43.186   5.615  13.217  0.00  0.00    +0.000 OA
ATOM     26  H   UNL     1      43.407   6.399  13.740  0.00  0.00    +0.000 HD
ENDBRANCH  24  25
BRANCH  24  27
ATOM     27  C   UNL     1      43.229   4.966  10.883  0.00  0.00    +0.000 C 
BRANCH  27  28
ATOM     28  C   UNL     1      44.110   4.129   9.985  0.00  0.00    +0.000 A 
ATOM     29  C   UNL     1      45.001   4.742   9.100  0.00  0.00    +0.000 A 
ATOM     30  C   UNL     1      45.780   3.949   8.264  0.00  0.00    +0.000 A 
ATOM     31  C   UNL     1      45.651   2.567   8.325  0.00  0.00    +0.000 A 
ATOM     32  C   UNL     1      44.743   2.038   9.229  0.00  0.00    +0.000 A 
ATOM     33  N   UNL     1      43.979   2.781  10.060  0.00  0.00    +0.000 NA
ENDBRANCH  27  28
ENDBRANCH  24  27
ENDBRANCH  23  24
ENDBRANCH   4  23
TORSDOF 8
ENDMDL
MODEL 8
REMARK VINA RESULT:    -6.988      1.552      2.209
REMARK INTER + INTRA:         -11.152
REMARK INTER:                  -9.977
REMARK INTRA:                  -1.175
REMARK UNBOUND:                -1.101
REMARK  Name = 
REMARK  8 active torsions:
REMARK  status: ('A' for Active; 'I' for Inactive)
REMARK    1  A    between atoms: C_2  and  C_21
REMARK    2  A    between atoms: N_3  and  C_4
REMARK    3  A    between atoms: C_4  and  C_5
REMARK    4  A    between atoms: C_8  and  C_9
REMARK    5  A    between atoms: C_9  and  C_10
REMARK    6  A    between atoms: C_10  and  O_11
REMARK    7  A    between atoms: C_10  and  C_12
REMARK    8  A    between atoms: C_12  and  C_13
REMARK                            x       y       z     vdW  Elec       q    Type
REMARK                         _______ _______ _______ _____ _____    ______ ____
ROOT
ATOM      1  C   UNL     1      48.158   7.359  13.461  0.00  0.00    +0.000 A 
ATOM      2  C   UNL     1      47.160   8.301  13.184  0.00  0.00    +0.000 A 
ATOM      3  C   UNL     1      45.999   7.929  12.502  0.00  0.00    +0.000 A 
ATOM      4  C   UNL     1      45.808   6.608  12.080  0.00  0.00    +0.000 A 
ATOM      5  C   UNL     1      46.775   5.651  12.420  0.00  0.00    +0.000 A 
ATOM      6  C   UNL     1      47.937   6.023  13.106  0.00  0.00    +0.000 A 
ENDROOT
BRANCH   1   7
ATOM      7  C   UNL     1      49.447   7.786  14.115  0.00  0.00    +0.000 C 
BRANCH   7  10
ATOM      8  O   UNL     1      48.398   8.855  16.436  0.00  0.00    +0.000 OA
ATOM      9  C   UNL     1      48.993   7.781  16.511  0.00  0.00    +0.000 C 
ATOM     10  N   UNL     1      49.608   7.212  15.424  0.00  0.00    +0.000 N 
ATOM     11  H   UNL     1      49.894   6.238  15.467  0.00  0.00    +0.000 HD
BRANCH   9  12
ATOM     12  C   UNL     1      49.107   7.064  17.784  0.00  0.00    +0.000 A 
ATOM     13  C   UNL     1      49.481   7.749  18.932  0.00  0.00    +0.000 A 
ATOM     14  S   UNL     1      49.560   6.761  20.320  0.00  0.00    +0.000 S 
ATOM     15  C   UNL     1      49.052   5.394  19.443  0.00  0.00    +0.000 A 
ATOM     16  N   UNL     1      48.869   4.196  20.060  0.00  0.00    +0.000 NA
ATOM     17  C   UNL     1      48.445   3.256  19.281  0.00  0.00    +0.000 A 
ATOM     18  N   UNL     1      48.200   3.404  17.941  0.00  0.00    +0.000 N 
ATOM     19  C   UNL     1      48.415   4.581  17.267  0.00  0.00    +0.000 A 
ATOM     20  O   UNL     1      48.251   4.662  16.054  0.00  0.00    +0.000 OA
ATOM     21  C   UNL     1      48.858   5.681  18.104  0.00  0.00    +0.000 A 
ATOM     22  H   UNL     1      47.889   2.622  17.383  0.00  0.00    +0.000 HD
ENDBRANCH   9  12
ENDBRANCH   7  10
ENDBRANCH   1   7
BRANCH   4  23
ATOM     23  C   UNL     1      44.592   6.227  11.258  0.00  0.00    +0.000 C 
BRANCH  23  24
ATOM     24  C   UNL     1      44.397   4.696  11.132  0.00  0.00    +0.000 C 
BRANCH  24  25
ATOM     25  O   UNL     1      43.459   4.254  12.127  0.00  0.00    +0.000 OA
ATOM     26  H   UNL     1      42.569   4.519  11.852  0.00  0.00    +0.000 HD
ENDBRANCH  24  25
BRANCH  24  27
ATOM     27  C   UNL     1      43.868   4.316   9.739  0.00  0.00    +0.000 C 
BRANCH  27  28
ATOM     28  C   UNL     1      44.919   3.635   8.894  0.00  0.00    +0.000 A 
ATOM     29  C   UNL     1      45.130   2.258   9.004  0.00  0.00    +0.000 A 
ATOM     30  C   UNL     1      46.124   1.661   8.235  0.00  0.00    +0.000 A 
ATOM     31  C   UNL     1      46.886   2.447   7.381  0.00  0.00    +0.000 A 
ATOM     32  C   UNL     1      46.615   3.805   7.332  0.00  0.00    +0.000 A 
ATOM     33  N   UNL     1      45.652   4.413   8.059  0.00  0.00    +0.000 NA
ENDBRANCH  27  28
ENDBRANCH  24  27
ENDBRANCH  23  24
ENDBRANCH   4  23
TORSDOF 8
ENDMDL
MODEL 9
REMARK VINA RESULT:    -6.869      3.787      8.776
REMARK INTER + INTRA:         -10.982
REMARK INTER:                  -9.605
REMARK INTRA:                  -1.376
REMARK UNBOUND:                -1.101
REMARK  Name = 
REMARK  8 active torsions:
REMARK  status: ('A' for Active; 'I' for Inactive)
REMARK    1  A    between atoms: C_2  and  C_21
REMARK    2  A    between atoms: N_3  and  C_4
REMARK    3  A    between atoms: C_4  and  C_5
REMARK    4  A    between atoms: C_8  and  C_9
REMARK    5  A    between atoms: C_9  and  C_10
REMARK    6  A    between atoms: C_10  and  O_11
REMARK    7  A    between atoms: C_10  and  C_12
REMARK    8  A    between atoms: C_12  and  C_13
REMARK                            x       y       z     vdW  Elec       q    Type
REMARK                         _______ _______ _______ _____ _____    ______ ____
ROOT
ATOM      1  C   UNL     1      48.609   3.496  17.159  0.00  0.00    +0.000 A 
ATOM      2  C   UNL     1      49.454   2.388  17.022  0.00  0.00    +0.000 A 
ATOM      3  C   UNL     1      50.813   2.485  17.332  0.00  0.00    +0.000 A 
ATOM      4  C   UNL     1      51.360   3.690  17.786  0.00  0.00    +0.000 A 
ATOM      5  C   UNL     1      50.500   4.780  17.990  0.00  0.00    +0.000 A 
ATOM      6  C   UNL     1      49.138   4.682  17.682  0.00  0.00    +0.000 A 
ENDROOT
BRANCH   1   7
ATOM      7  C   UNL     1      47.166   3.409  16.736  0.00  0.00    +0.000 C 
BRANCH   7  10
ATOM      8  O   UNL     1      47.249   3.151  13.988  0.00  0.00    +0.000 OA
ATOM      9  C   UNL     1      46.817   4.203  14.457  0.00  0.00    +0.000 C 
ATOM     10  N   UNL     1      46.807   4.448  15.807  0.00  0.00    +0.000 N 
ATOM     11  H   UNL     1      46.252   5.217  16.170  0.00  0.00    +0.000 HD
BRANCH   9  12
ATOM     12  C   UNL     1      46.320   5.274  13.589  0.00  0.00    +0.000 A 
ATOM     13  C   UNL     1      47.132   6.364  13.301  0.00  0.00    +0.000 A 
ATOM     14  S   UNL     1      46.396   7.510  12.275  0.00  0.00    +0.000 S 
ATOM     15  C   UNL     1      44.985   6.567  12.144  0.00  0.00    +0.000 A 
ATOM     16  N   UNL     1      43.950   6.966  11.358  0.00  0.00    +0.000 NA
ATOM     17  C   UNL     1      42.960   6.136  11.321  0.00  0.00    +0.000 A 
ATOM     18  N   UNL     1      42.909   4.950  12.008  0.00  0.00    +0.000 N 
ATOM     19  C   UNL     1      43.910   4.531  12.849  0.00  0.00    +0.000 A 
ATOM     20  O   UNL     1      43.804   3.498  13.503  0.00  0.00    +0.000 OA
ATOM     21  C   UNL     1      45.063   5.411  12.898  0.00  0.00    +0.000 A 
ATOM     22  H   UNL     1      42.095   4.356  11.953  0.00  0.00    +0.000 HD
ENDBRANCH   9  12
ENDBRANCH   7  10
ENDBRANCH   1   7
BRANCH   4  23
ATOM     23  C   UNL     1      52.851   3.819  18.031  0.00  0.00    +0.000 C 
BRANCH  23  24
ATOM     24  C   UNL     1      53.351   5.284  17.984  0.00  0.00    +0.000 C 
BRANCH  24  25
ATOM     25  O   UNL     1      54.139   5.554  19.155  0.00  0.00    +0.000 OA
ATOM     26  H   UNL     1      54.650   6.362  19.004  0.00  0.00    +0.000 HD
ENDBRANCH  24  25
BRANCH  24  27
ATOM     27  C   UNL     1      54.208   5.539  16.733  0.00  0.00    +0.000 C 
BRANCH  27  28
ATOM     28  C   UNL     1      53.598   6.580  15.823  0.00  0.00    +0.000 A 
ATOM     29  C   UNL     1      52.268   6.974  15.995  0.00  0.00    +0.000 A 
ATOM     30  C   UNL     1      51.722   7.913  15.126  0.00  0.00    +0.000 A 
ATOM     31  C   UNL     1      52.509   8.433  14.106  0.00  0.00    +0.000 A 
ATOM     32  C   UNL     1      53.818   7.988  14.004  0.00  0.00    +0.000 A 
ATOM     33  N   UNL     1      54.379   7.084  14.837  0.00  0.00    +0.000 NA
ENDBRANCH  27  28
ENDBRANCH  24  27
ENDBRANCH  23  24
ENDBRANCH   4  23
TORSDOF 8
ENDMDL
