MODEL 1
REMARK VINA RESULT:    -7.326      0.000      0.000
REMARK INTER + INTRA:          -9.929
REMARK INTER:                  -9.254
REMARK INTRA:                  -0.675
REMARK UNBOUND:                -0.675
REMARK  Name = 
REMARK  5 active torsions:
REMARK  status: ('A' for Active; 'I' for Inactive)
REMARK    1  A    between atoms: N_1  and  C_2
REMARK    2  A    between atoms: C_2  and  C_3
REMARK    3  A    between atoms: C_6  and  O_7
REMARK    4  A    between atoms: O_7  and  C_8
REMARK    5  A    between atoms: C_8  and  C_9
REMARK                            x       y       z     vdW  Elec       q    Type
REMARK                         _______ _______ _______ _____ _____    ______ ____
ROOT
ATOM      1  C   UNL     1      46.310   1.887   7.946  0.00  0.00    +0.000 A 
ATOM      2  C   UNL     1      45.265   1.479   8.789  0.00  0.00    +0.000 A 
ATOM      3  C   UNL     1      44.472   2.418   9.453  0.00  0.00    +0.000 A 
ATOM      4  C   UNL     1      44.733   3.780   9.313  0.00  0.00    +0.000 A 
ATOM      5  C   UNL     1      45.759   4.187   8.458  0.00  0.00    +0.000 A 
ATOM      6  F   UNL     1      46.017   5.493   8.284  0.00  0.00    +0.000 F 
ATOM      7  C   UNL     1      46.547   3.256   7.782  0.00  0.00    +0.000 A 
ENDROOT
BRANCH   1   8
ATOM      8  C   UNL     1      47.135   0.855   7.226  0.00  0.00    +0.000 C 
BRANCH   8   9
ATOM      9  N   UNL     1      46.807  -0.485   7.696  0.00  0.00    +0.000 NA
ATOM     10  H   UNL     1      47.520  -0.795   8.354  0.00  0.00    +0.000 HD
ATOM     11  H   UNL     1      46.842  -1.128   6.906  0.00  0.00    +0.000 HD
ENDBRANCH   8   9
ENDBRANCH   1   8
BRANCH   4  12
ATOM     12  O   UNL     1      44.044   4.771   9.963  0.00  0.00    +0.000 OA
BRANCH  12  13
ATOM     13  C   UNL     1      43.973   4.622  11.382  0.00  0.00    +0.000 C 
BRANCH  13  14
ATOM     14  C   UNL     1      45.223   5.109  12.073  0.00  0.00    +0.000 A 
ATOM     15  C   UNL     1      46.023   6.141  11.566  0.00  0.00    +0.000 A 
ATOM     16  C   UNL     1      47.185   6.521  12.239  0.00  0.00    +0.000 A 
ATOM     17 CL   UNL     1      48.171   7.779  11.594  0.00  0.00    +0.000 Cl
ATOM     18  C   UNL     1      47.564   5.891  13.421  0.00  0.00    +0.000 A 
ATOM     19  C   UNL     1      46.767   4.876  13.936  0.00  0.00    +0.000 A 
ATOM     20 CL   UNL     1      47.220   4.078  15.391  0.00  0.00    +0.000 Cl
ATOM     21  C   UNL     1      45.603   4.488  13.275  0.00  0.00    +0.000 A 
ENDBRANCH  13  14
ENDBRANCH  12  13
ENDBRANCH   4  12
TORSDOF 5
ENDMDL
MODEL 2
REMARK VINA RESULT:    -7.287      1.915      2.846
REMARK INTER + INTRA:          -9.879
REMARK INTER:                  -9.362
REMARK INTRA:                  -0.517
REMARK UNBOUND:                -0.675
REMARK  Name = 
REMARK  5 active torsions:
REMARK  status: ('A' for Active; 'I' for Inactive)
REMARK    1  A    between atoms: N_1  and  C_2
REMARK    2  A    between atoms: C_2  and  C_3
REMARK    3  A    between atoms: C_6  and  O_7
REMARK    4  A    between atoms: O_7  and  C_8
REMARK    5  A    between atoms: C_8  and  C_9
REMARK                            x       y       z     vdW  Elec       q    Type
REMARK                         _______ _______ _______ _____ _____    ______ ____
ROOT
ATOM      1  C   UNL     1      46.555   2.392   7.623  0.00  0.00    +0.000 A 
ATOM      2  C   UNL     1      46.531   3.791   7.527  0.00  0.00    +0.000 A 
ATOM      3  C   UNL     1      45.659   4.549   8.312  0.00  0.00    +0.000 A 
ATOM      4  C   UNL     1      44.771   3.917   9.182  0.00  0.00    +0.000 A 
ATOM      5  C   UNL     1      44.809   2.526   9.293  0.00  0.00    +0.000 A 
ATOM      6  F   UNL     1      43.983   1.893  10.141  0.00  0.00    +0.000 F 
ATOM      7  C   UNL     1      45.686   1.764   8.522  0.00  0.00    +0.000 A 
ENDROOT
BRANCH   1   8
ATOM      8  C   UNL     1      47.519   1.601   6.782  0.00  0.00    +0.000 C 
BRANCH   8   9
ATOM      9  N   UNL     1      48.636   2.436   6.357  0.00  0.00    +0.000 NA
ATOM     10  H   UNL     1      49.306   2.517   7.118  0.00  0.00    +0.000 HD
ATOM     11  H   UNL     1      48.290   3.378   6.174  0.00  0.00    +0.000 HD
ENDBRANCH   8   9
ENDBRANCH   1   8
BRANCH   4  12
ATOM     12  O   UNL     1      43.846   4.572   9.953  0.00  0.00    +0.000 OA
BRANCH  12  13
ATOM     13  C   UNL     1      44.182   4.674  11.337  0.00  0.00    +0.000 C 
BRANCH  13  14
ATOM     14  C   UNL     1      45.071   5.859  11.625  0.00  0.00    +0.000 A 
ATOM     15  C   UNL     1      46.421   5.732  11.978  0.00  0.00    +0.000 A 
ATOM     16  C   UNL     1      47.179   6.868  12.265  0.00  0.00    +0.000 A 
ATOM     17 CL   UNL     1      48.834   6.697  12.716  0.00  0.00    +0.000 Cl
ATOM     18  C   UNL     1      46.615   8.139  12.199  0.00  0.00    +0.000 A 
ATOM     19  C   UNL     1      45.279   8.271  11.837  0.00  0.00    +0.000 A 
ATOM     20 CL   UNL     1      44.558   9.831  11.758  0.00  0.00    +0.000 Cl
ATOM     21  C   UNL     1      44.511   7.146  11.546  0.00  0.00    +0.000 A 
ENDBRANCH  13  14
ENDBRANCH  12  13
ENDBRANCH   4  12
TORSDOF 5
ENDMDL
MODEL 3
REMARK VINA RESULT:    -7.276      1.932      2.543
REMARK INTER + INTRA:          -9.866
REMARK INTER:                  -9.332
REMARK INTRA:                  -0.534
REMARK UNBOUND:                -0.675
REMARK  Name = 
REMARK  5 active torsions:
REMARK  status: ('A' for Active; 'I' for Inactive)
REMARK    1  A    between atoms: N_1  and  C_2
REMARK    2  A    between atoms: C_2  and  C_3
REMARK    3  A    between atoms: C_6  and  O_7
REMARK    4  A    between atoms: O_7  and  C_8
REMARK    5  A    between atoms: C_8  and  C_9
REMARK                            x       y       z     vdW  Elec       q    Type
REMARK                         _______ _______ _______ _____ _____    ______ ____
ROOT
ATOM      1  C   UNL     1      46.542   2.379   7.626  0.00  0.00    +0.000 A 
ATOM      2  C   UNL     1      46.502   3.780   7.558  0.00  0.00    +0.000 A 
ATOM      3  C   UNL     1      45.629   4.513   8.367  0.00  0.00    +0.000 A 
ATOM      4  C   UNL     1      44.757   3.854   9.232  0.00  0.00    +0.000 A 
ATOM      5  C   UNL     1      44.810   2.462   9.315  0.00  0.00    +0.000 A 
ATOM      6  F   UNL     1      44.000   1.802  10.158  0.00  0.00    +0.000 F 
ATOM      7  C   UNL     1      45.688   1.724   8.520  0.00  0.00    +0.000 A 
ENDROOT
BRANCH   1   8
ATOM      8  C   UNL     1      47.506   1.616   6.760  0.00  0.00    +0.000 C 
BRANCH   8   9
ATOM      9  N   UNL     1      48.620   2.466   6.358  0.00  0.00    +0.000 NA
ATOM     10  H   UNL     1      48.413   3.432   6.604  0.00  0.00    +0.000 HD
ATOM     11  H   UNL     1      48.705   2.437   5.342  0.00  0.00    +0.000 HD
ENDBRANCH   8   9
ENDBRANCH   1   8
BRANCH   4  12
ATOM     12  O   UNL     1      43.832   4.483  10.024  0.00  0.00    +0.000 OA
BRANCH  12  13
ATOM     13  C   UNL     1      44.201   4.601  11.399  0.00  0.00    +0.000 C 
BRANCH  13  14
ATOM     14  C   UNL     1      44.984   5.861  11.676  0.00  0.00    +0.000 A 
ATOM     15  C   UNL     1      44.436   7.144  11.550  0.00  0.00    +0.000 A 
ATOM     16  C   UNL     1      45.226   8.270  11.789  0.00  0.00    +0.000 A 
ATOM     17 CL   UNL     1      44.545   9.843  11.611  0.00  0.00    +0.000 Cl
ATOM     18  C   UNL     1      46.561   8.139  12.162  0.00  0.00    +0.000 A 
ATOM     19  C   UNL     1      47.106   6.868  12.302  0.00  0.00    +0.000 A 
ATOM     20 CL   UNL     1      48.756   6.683  12.754  0.00  0.00    +0.000 Cl
ATOM     21  C   UNL     1      46.328   5.736  12.068  0.00  0.00    +0.000 A 
ENDBRANCH  13  14
ENDBRANCH  12  13
ENDBRANCH   4  12
TORSDOF 5
ENDMDL
MODEL 4
REMARK VINA RESULT:    -7.240      0.133      2.069
REMARK INTER + INTRA:          -9.819
REMARK INTER:                  -9.152
REMARK INTRA:                  -0.667
REMARK UNBOUND:                -0.675
REMARK  Name = 
REMARK  5 active torsions:
REMARK  status: ('A' for Active; 'I' for Inactive)
REMARK    1  A    between atoms: N_1  and  C_2
REMARK    2  A    between atoms: C_2  and  C_3
REMARK    3  A    between atoms: C_6  and  O_7
REMARK    4  A    between atoms: O_7  and  C_8
REMARK    5  A    between atoms: C_8  and  C_9
REMARK                            x       y       z     vdW  Elec       q    Type
REMARK                         _______ _______ _______ _____ _____    ______ ____
ROOT
ATOM      1  C   UNL     1      46.309   1.891   7.943  0.00  0.00    +0.000 A 
ATOM      2  C   UNL     1      45.260   1.477   8.779  0.00  0.00    +0.000 A 
ATOM      3  C   UNL     1      44.460   2.411   9.441  0.00  0.00    +0.000 A 
ATOM      4  C   UNL     1      44.717   3.775   9.305  0.00  0.00    +0.000 A 
ATOM      5  C   UNL     1      45.746   4.188   8.458  0.00  0.00    +0.000 A 
ATOM      6  F   UNL     1      46.000   5.495   8.288  0.00  0.00    +0.000 F 
ATOM      7  C   UNL     1      46.541   3.261   7.783  0.00  0.00    +0.000 A 
ENDROOT
BRANCH   1   8
ATOM      8  C   UNL     1      47.142   0.864   7.225  0.00  0.00    +0.000 C 
BRANCH   8   9
ATOM      9  N   UNL     1      46.796  -0.480   7.669  0.00  0.00    +0.000 NA
ATOM     10  H   UNL     1      45.913  -0.758   7.247  0.00  0.00    +0.000 HD
ATOM     11  H   UNL     1      46.644  -0.464   8.677  0.00  0.00    +0.000 HD
ENDBRANCH   8   9
ENDBRANCH   1   8
BRANCH   4  12
ATOM     12  O   UNL     1      44.020   4.762   9.954  0.00  0.00    +0.000 OA
BRANCH  12  13
ATOM     13  C   UNL     1      43.886   4.574  11.364  0.00  0.00    +0.000 C 
BRANCH  13  14
ATOM     14  C   UNL     1      45.119   5.004  12.120  0.00  0.00    +0.000 A 
ATOM     15  C   UNL     1      45.562   4.365  13.285  0.00  0.00    +0.000 A 
ATOM     16  C   UNL     1      46.693   4.834  13.955  0.00  0.00    +0.000 A 
ATOM     17 CL   UNL     1      47.215   4.050  15.398  0.00  0.00    +0.000 Cl
ATOM     18  C   UNL     1      47.400   5.933  13.477  0.00  0.00    +0.000 A 
ATOM     19  C   UNL     1      46.973   6.564  12.314  0.00  0.00    +0.000 A 
ATOM     20 CL   UNL     1      47.828   7.929  11.710  0.00  0.00    +0.000 Cl
ATOM     21  C   UNL     1      45.847   6.104  11.634  0.00  0.00    +0.000 A 
ENDBRANCH  13  14
ENDBRANCH  12  13
ENDBRANCH   4  12
TORSDOF 5
ENDMDL
MODEL 5
REMARK VINA RESULT:    -6.116      4.084      6.439
REMARK INTER + INTRA:          -8.400
REMARK INTER:                  -7.888
REMARK INTRA:                  -0.512
REMARK UNBOUND:                -0.675
REMARK  Name = 
REMARK  5 active torsions:
REMARK  status: ('A' for Active; 'I' for Inactive)
REMARK    1  A    between atoms: N_1  and  C_2
REMARK    2  A    between atoms: C_2  and  C_3
REMARK    3  A    between atoms: C_6  and  O_7
REMARK    4  A    between atoms: O_7  and  C_8
REMARK    5  A    between atoms: C_8  and  C_9
REMARK                            x       y       z     vdW  Elec       q    Type
REMARK                         _______ _______ _______ _____ _____    ______ ____
ROOT
ATOM      1  C   UNL     1      45.737   7.132  12.630  0.00  0.00    +0.000 A 
ATOM      2  C   UNL     1      44.912   7.005  11.502  0.00  0.00    +0.000 A 
ATOM      3  C   UNL     1      44.604   5.748  10.977  0.00  0.00    +0.000 A 
ATOM      4  C   UNL     1      45.144   4.598  11.551  0.00  0.00    +0.000 A 
ATOM      5  C   UNL     1      45.948   4.722  12.686  0.00  0.00    +0.000 A 
ATOM      6  F   UNL     1      46.461   3.630  13.275  0.00  0.00    +0.000 F 
ATOM      7  C   UNL     1      46.249   5.973  13.223  0.00  0.00    +0.000 A 
ENDROOT
BRANCH   1   8
ATOM      8  C   UNL     1      46.035   8.497  13.188  0.00  0.00    +0.000 C 
BRANCH   8   9
ATOM      9  N   UNL     1      45.013   9.453  12.782  0.00  0.00    +0.000 NA
ATOM     10  H   UNL     1      44.159   9.276  13.306  0.00  0.00    +0.000 HD
ATOM     11  H   UNL     1      44.789   9.297  11.800  0.00  0.00    +0.000 HD
ENDBRANCH   8   9
ENDBRANCH   1   8
BRANCH   4  12
ATOM     12  O   UNL     1      44.941   3.328  11.077  0.00  0.00    +0.000 OA
BRANCH  12  13
ATOM     13  C   UNL     1      44.281   3.258   9.812  0.00  0.00    +0.000 C 
BRANCH  13  14
ATOM     14  C   UNL     1      45.193   2.766   8.715  0.00  0.00    +0.000 A 
ATOM     15  C   UNL     1      45.675   3.595   7.694  0.00  0.00    +0.000 A 
ATOM     16  C   UNL     1      46.489   3.068   6.690  0.00  0.00    +0.000 A 
ATOM     17 CL   UNL     1      47.061   4.095   5.430  0.00  0.00    +0.000 Cl
ATOM     18  C   UNL     1      46.839   1.721   6.689  0.00  0.00    +0.000 A 
ATOM     19  C   UNL     1      46.373   0.896   7.706  0.00  0.00    +0.000 A 
ATOM     20 CL   UNL     1      46.786  -0.774   7.719  0.00  0.00    +0.000 Cl
ATOM     21  C   UNL     1      45.562   1.410   8.716  0.00  0.00    +0.000 A 
ENDBRANCH  13  14
ENDBRANCH  12  13
ENDBRANCH   4  12
TORSDOF 5
ENDMDL
MODEL 6
REMARK VINA RESULT:    -5.792      3.995      6.656
REMARK INTER + INTRA:          -7.991
REMARK INTER:                  -7.473
REMARK INTRA:                  -0.518
REMARK UNBOUND:                -0.675
REMARK  Name = 
REMARK  5 active torsions:
REMARK  status: ('A' for Active; 'I' for Inactive)
REMARK    1  A    between atoms: N_1  and  C_2
REMARK    2  A    between atoms: C_2  and  C_3
REMARK    3  A    between atoms: C_6  and  O_7
REMARK    4  A    between atoms: O_7  and  C_8
REMARK    5  A    between atoms: C_8  and  C_9
REMARK                            x       y       z     vdW  Elec       q    Type
REMARK                         _______ _______ _______ _____ _____    ______ ____
ROOT
ATOM      1  C   UNL     1      45.786   6.994  12.635  0.00  0.00    +0.000 A 
ATOM      2  C   UNL     1      44.897   6.914  11.553  0.00  0.00    +0.000 A 
ATOM      3  C   UNL     1      44.505   5.676  11.038  0.00  0.00    +0.000 A 
ATOM      4  C   UNL     1      45.023   4.498  11.574  0.00  0.00    +0.000 A 
ATOM      5  C   UNL     1      45.891   4.577  12.664  0.00  0.00    +0.000 A 
ATOM      6  F   UNL     1      46.386   3.458  13.218  0.00  0.00    +0.000 F 
ATOM      7  C   UNL     1      46.277   5.809  13.192  0.00  0.00    +0.000 A 
ENDROOT
BRANCH   1   8
ATOM      8  C   UNL     1      46.176   8.340  13.184  0.00  0.00    +0.000 C 
BRANCH   8   9
ATOM      9  N   UNL     1      47.166   8.195  14.244  0.00  0.00    +0.000 NA
ATOM     10  H   UNL     1      46.713   8.316  15.147  0.00  0.00    +0.000 HD
ATOM     11  H   UNL     1      47.850   8.946  14.159  0.00  0.00    +0.000 HD
ENDBRANCH   8   9
ENDBRANCH   1   8
BRANCH   4  12
ATOM     12  O   UNL     1      44.738   3.242  11.104  0.00  0.00    +0.000 OA
BRANCH  12  13
ATOM     13  C   UNL     1      44.123   3.209   9.815  0.00  0.00    +0.000 C 
BRANCH  13  14
ATOM     14  C   UNL     1      45.042   2.654   8.755  0.00  0.00    +0.000 A 
ATOM     15  C   UNL     1      45.441   1.312   8.718  0.00  0.00    +0.000 A 
ATOM     16  C   UNL     1      46.321   0.871   7.728  0.00  0.00    +0.000 A 
ATOM     17 CL   UNL     1      46.819  -0.779   7.704  0.00  0.00    +0.000 Cl
ATOM     18  C   UNL     1      46.807   1.748   6.763  0.00  0.00    +0.000 A 
ATOM     19  C   UNL     1      46.404   3.078   6.787  0.00  0.00    +0.000 A 
ATOM     20 CL   UNL     1      46.999   4.182   5.609  0.00  0.00    +0.000 Cl
ATOM     21  C   UNL     1      45.525   3.531   7.768  0.00  0.00    +0.000 A 
ENDBRANCH  13  14
ENDBRANCH  12  13
ENDBRANCH   4  12
TORSDOF 5
ENDMDL
MODEL 7
REMARK VINA RESULT:    -5.770      3.575      5.991
REMARK INTER + INTRA:          -7.963
REMARK INTER:                  -7.438
REMARK INTRA:                  -0.525
REMARK UNBOUND:                -0.675
REMARK  Name = 
REMARK  5 active torsions:
REMARK  status: ('A' for Active; 'I' for Inactive)
REMARK    1  A    between atoms: N_1  and  C_2
REMARK    2  A    between atoms: C_2  and  C_3
REMARK    3  A    between atoms: C_6  and  O_7
REMARK    4  A    between atoms: O_7  and  C_8
REMARK    5  A    between atoms: C_8  and  C_9
REMARK                            x       y       z     vdW  Elec       q    Type
REMARK                         _______ _______ _______ _____ _____    ______ ____
ROOT
ATOM      1  C   UNL     1      46.756   4.798  14.004  0.00  0.00    +0.000 A 
ATOM      2  C   UNL     1      46.076   3.657  13.554  0.00  0.00    +0.000 A 
ATOM      3  C   UNL     1      45.465   3.634  12.298  0.00  0.00    +0.000 A 
ATOM      4  C   UNL     1      45.494   4.767  11.485  0.00  0.00    +0.000 A 
ATOM      5  C   UNL     1      46.187   5.896  11.924  0.00  0.00    +0.000 A 
ATOM      6  F   UNL     1      46.253   6.992  11.151  0.00  0.00    +0.000 F 
ATOM      7  C   UNL     1      46.811   5.921  13.171  0.00  0.00    +0.000 A 
ENDROOT
BRANCH   1   8
ATOM      8  C   UNL     1      47.423   4.788  15.352  0.00  0.00    +0.000 C 
BRANCH   8   9
ATOM      9  N   UNL     1      47.219   3.507  16.018  0.00  0.00    +0.000 NA
ATOM     10  H   UNL     1      47.833   3.445  16.826  0.00  0.00    +0.000 HD
ATOM     11  H   UNL     1      47.497   2.760  15.383  0.00  0.00    +0.000 HD
ENDBRANCH   8   9
ENDBRANCH   1   8
BRANCH   4  12
ATOM     12  O   UNL     1      44.881   4.857  10.262  0.00  0.00    +0.000 OA
BRANCH  12  13
ATOM     13  C   UNL     1      44.365   3.625   9.757  0.00  0.00    +0.000 C 
BRANCH  13  14
ATOM     14  C   UNL     1      45.235   3.040   8.671  0.00  0.00    +0.000 A 
ATOM     15  C   UNL     1      45.714   3.791   7.590  0.00  0.00    +0.000 A 
ATOM     16  C   UNL     1      46.487   3.181   6.601  0.00  0.00    +0.000 A 
ATOM     17 CL   UNL     1      47.055   4.112   5.267  0.00  0.00    +0.000 Cl
ATOM     18  C   UNL     1      46.800   1.826   6.674  0.00  0.00    +0.000 A 
ATOM     19  C   UNL     1      46.337   1.079   7.751  0.00  0.00    +0.000 A 
ATOM     20 CL   UNL     1      46.704  -0.598   7.858  0.00  0.00    +0.000 Cl
ATOM     21  C   UNL     1      45.567   1.677   8.747  0.00  0.00    +0.000 A 
ENDBRANCH  13  14
ENDBRANCH  12  13
ENDBRANCH   4  12
TORSDOF 5
ENDMDL
MODEL 8
REMARK VINA RESULT:    -5.743      3.587      6.333
REMARK INTER + INTRA:          -7.929
REMARK INTER:                  -7.401
REMARK INTRA:                  -0.528
REMARK UNBOUND:                -0.675
REMARK  Name = 
REMARK  5 active torsions:
REMARK  status: ('A' for Active; 'I' for Inactive)
REMARK    1  A    between atoms: N_1  and  C_2
REMARK    2  A    between atoms: C_2  and  C_3
REMARK    3  A    between atoms: C_6  and  O_7
REMARK    4  A    between atoms: O_7  and  C_8
REMARK    5  A    between atoms: C_8  and  C_9
REMARK                            x       y       z     vdW  Elec       q    Type
REMARK                         _______ _______ _______ _____ _____    ______ ____
ROOT
ATOM      1  C   UNL     1      46.730   4.777  13.993  0.00  0.00    +0.000 A 
ATOM      2  C   UNL     1      46.077   3.610  13.568  0.00  0.00    +0.000 A 
ATOM      3  C   UNL     1      45.480   3.542  12.307  0.00  0.00    +0.000 A 
ATOM      4  C   UNL     1      45.495   4.652  11.463  0.00  0.00    +0.000 A 
ATOM      5  C   UNL     1      46.163   5.806  11.878  0.00  0.00    +0.000 A 
ATOM      6  F   UNL     1      46.216   6.882  11.076  0.00  0.00    +0.000 F 
ATOM      7  C   UNL     1      46.773   5.877  13.130  0.00  0.00    +0.000 A 
ENDROOT
BRANCH   1   8
ATOM      8  C   UNL     1      47.385   4.816  15.347  0.00  0.00    +0.000 C 
BRANCH   8   9
ATOM      9  N   UNL     1      47.197   3.550  16.046  0.00  0.00    +0.000 NA
ATOM     10  H   UNL     1      46.588   2.949  15.495  0.00  0.00    +0.000 HD
ATOM     11  H   UNL     1      46.712   3.729  16.924  0.00  0.00    +0.000 HD
ENDBRANCH   8   9
ENDBRANCH   1   8
BRANCH   4  12
ATOM     12  O   UNL     1      44.894   4.698  10.233  0.00  0.00    +0.000 OA
BRANCH  12  13
ATOM     13  C   UNL     1      44.351   3.455   9.784  0.00  0.00    +0.000 C 
BRANCH  13  14
ATOM     14  C   UNL     1      45.195   2.815   8.709  0.00  0.00    +0.000 A 
ATOM     15  C   UNL     1      45.546   1.458   8.722  0.00  0.00    +0.000 A 
ATOM     16  C   UNL     1      46.358   0.937   7.713  0.00  0.00    +0.000 A 
ATOM     17 CL   UNL     1      46.799  -0.729   7.750  0.00  0.00    +0.000 Cl
ATOM     18  C   UNL     1      46.824   1.746   6.681  0.00  0.00    +0.000 A 
ATOM     19  C   UNL     1      46.467   3.090   6.657  0.00  0.00    +0.000 A 
ATOM     20 CL   UNL     1      47.038   4.110   5.396  0.00  0.00    +0.000 Cl
ATOM     21  C   UNL     1      45.656   3.623   7.656  0.00  0.00    +0.000 A 
ENDBRANCH  13  14
ENDBRANCH  12  13
ENDBRANCH   4  12
TORSDOF 5
ENDMDL
MODEL 9
REMARK VINA RESULT:    -5.503      5.448      8.160
REMARK INTER + INTRA:          -7.627
REMARK INTER:                  -7.201
REMARK INTRA:                  -0.426
REMARK UNBOUND:                -0.675
REMARK  Name = 
REMARK  5 active torsions:
REMARK  status: ('A' for Active; 'I' for Inactive)
REMARK    1  A    between atoms: N_1  and  C_2
REMARK    2  A    between atoms: C_2  and  C_3
REMARK    3  A    between atoms: C_6  and  O_7
REMARK    4  A    between atoms: O_7  and  C_8
REMARK    5  A    between atoms: C_8  and  C_9
REMARK                            x       y       z     vdW  Elec       q    Type
REMARK                         _______ _______ _______ _____ _____    ______ ____
ROOT
ATOM      1  C   UNL     1      49.412   4.741  18.623  0.00  0.00    +0.000 A 
ATOM      2  C   UNL     1      49.308   5.624  17.539  0.00  0.00    +0.000 A 
ATOM      3  C   UNL     1      48.355   5.422  16.538  0.00  0.00    +0.000 A 
ATOM      4  C   UNL     1      47.512   4.312  16.588  0.00  0.00    +0.000 A 
ATOM      5  C   UNL     1      47.601   3.445  17.677  0.00  0.00    +0.000 A 
ATOM      6  F   UNL     1      46.785   2.382  17.764  0.00  0.00    +0.000 F 
ATOM      7  C   UNL     1      48.542   3.647  18.687  0.00  0.00    +0.000 A 
ENDROOT
BRANCH   1   8
ATOM      8  C   UNL     1      50.433   4.994  19.699  0.00  0.00    +0.000 C 
BRANCH   8   9
ATOM      9  N   UNL     1      49.996   4.424  20.967  0.00  0.00    +0.000 NA
ATOM     10  H   UNL     1      50.721   4.565  21.668  0.00  0.00    +0.000 HD
ATOM     11  H   UNL     1      49.892   3.416  20.855  0.00  0.00    +0.000 HD
ENDBRANCH   8   9
ENDBRANCH   1   8
BRANCH   4  12
ATOM     12  O   UNL     1      46.583   4.003  15.629  0.00  0.00    +0.000 OA
BRANCH  12  13
ATOM     13  C   UNL     1      47.126   3.685  14.346  0.00  0.00    +0.000 C 
BRANCH  13  14
ATOM     14  C   UNL     1      46.252   4.170  13.216  0.00  0.00    +0.000 A 
ATOM     15  C   UNL     1      45.613   3.304  12.319  0.00  0.00    +0.000 A 
ATOM     16  C   UNL     1      44.845   3.820  11.275  0.00  0.00    +0.000 A 
ATOM     17 CL   UNL     1      44.079   2.743  10.168  0.00  0.00    +0.000 Cl
ATOM     18  C   UNL     1      44.695   5.194  11.110  0.00  0.00    +0.000 A 
ATOM     19  C   UNL     1      45.316   6.058  12.004  0.00  0.00    +0.000 A 
ATOM     20 CL   UNL     1      45.152   7.760  11.814  0.00  0.00    +0.000 Cl
ATOM     21  C   UNL     1      46.084   5.556  13.053  0.00  0.00    +0.000 A 
ENDBRANCH  13  14
ENDBRANCH  12  13
ENDBRANCH   4  12
TORSDOF 5
ENDMDL
