MODEL 1
REMARK VINA RESULT:    -8.981      0.000      0.000
REMARK INTER + INTRA:         -11.698
REMARK INTER:                 -11.081
REMARK INTRA:                  -0.617
REMARK UNBOUND:                -0.617
REMARK  Name = 
REMARK  4 active torsions:
REMARK  status: ('A' for Active; 'I' for Inactive)
REMARK    1  A    between atoms: C_2  and  C_4
REMARK    2  A    between atoms: N_8  and  C_9
REMARK    3  A    between atoms: C_9  and  C_10
REMARK    4  A    between atoms: C_14  and  N_15
REMARK                            x       y       z     vdW  Elec       q    Type
REMARK                         _______ _______ _______ _____ _____    ______ ____
ROOT
ATOM      1  C   UNL     1      46.414   2.321   7.694  0.00  0.00    +0.000 A 
ATOM      2  C   UNL     1      45.553   1.793   8.651  0.00  0.00    +0.000 A 
ATOM      3  C   UNL     1      44.693   2.651   9.337  0.00  0.00    +0.000 A 
ATOM      4  C   UNL     1      44.706   4.014   9.060  0.00  0.00    +0.000 A 
ATOM      5  N   UNL     1      43.824   4.914   9.618  0.00  0.00    +0.000 N 
ATOM      6  N   UNL     1      45.557   4.538   8.153  0.00  0.00    +0.000 NA
ATOM      7  C   UNL     1      46.397   3.691   7.500  0.00  0.00    +0.000 A 
ATOM      8  H   UNL     1      44.085   5.856   9.344  0.00  0.00    +0.000 HD
ENDROOT
BRANCH   1  10
ATOM      9  N   UNL     1      48.464   2.074   6.420  0.00  0.00    +0.000 N 
ATOM     10  C   UNL     1      47.328   1.479   6.897  0.00  0.00    +0.000 C 
ATOM     11  O   UNL     1      47.103   0.291   6.704  0.00  0.00    +0.000 OA
ATOM     12  H   UNL     1      49.134   1.466   5.967  0.00  0.00    +0.000 HD
ATOM     13  H   UNL     1      48.804   2.957   6.779  0.00  0.00    +0.000 HD
ENDBRANCH   1  10
BRANCH   5  14
ATOM     14  C   UNL     1      43.326   4.746  10.977  0.00  0.00    +0.000 C 
BRANCH  14  15
ATOM     15  C   UNL     1      44.415   4.934  12.009  0.00  0.00    +0.000 A 
ATOM     16  C   UNL     1      44.838   3.877  12.807  0.00  0.00    +0.000 A 
ATOM     17  N   UNL     1      45.857   3.987  13.683  0.00  0.00    +0.000 NA
ATOM     18  C   UNL     1      46.437   5.211  13.722  0.00  0.00    +0.000 A 
ATOM     19  C   UNL     1      46.036   6.311  12.958  0.00  0.00    +0.000 A 
ATOM     20  N   UNL     1      44.992   6.167  12.105  0.00  0.00    +0.000 NA
BRANCH  19  21
ATOM     21  N   UNL     1      46.671   7.523  13.015  0.00  0.00    +0.000 N 
ATOM     22  C   UNL     1      45.908   8.769  13.110  0.00  0.00    +0.000 C 
ATOM     23  C   UNL     1      46.399   9.774  12.058  0.00  0.00    +0.000 C 
ATOM     24  O   UNL     1      47.824   9.964  12.130  0.00  0.00    +0.000 OA
ATOM     25  C   UNL     1      48.503   8.717  11.907  0.00  0.00    +0.000 C 
ATOM     26  C   UNL     1      48.127   7.670  12.969  0.00  0.00    +0.000 C 
ENDBRANCH  19  21
ENDBRANCH  14  15
ENDBRANCH   5  14
TORSDOF 4
ENDMDL
MODEL 2
REMARK VINA RESULT:    -8.549      2.042      2.946
REMARK INTER + INTRA:         -11.164
REMARK INTER:                 -10.546
REMARK INTRA:                  -0.618
REMARK UNBOUND:                -0.617
REMARK  Name = 
REMARK  4 active torsions:
REMARK  status: ('A' for Active; 'I' for Inactive)
REMARK    1  A    between atoms: C_2  and  C_4
REMARK    2  A    between atoms: N_8  and  C_9
REMARK    3  A    between atoms: C_9  and  C_10
REMARK    4  A    between atoms: C_14  and  N_15
REMARK                            x       y       z     vdW  Elec       q    Type
REMARK                         _______ _______ _______ _____ _____    ______ ____
ROOT
ATOM      1  C   UNL     1      46.224   2.001   7.959  0.00  0.00    +0.000 A 
ATOM      2  C   UNL     1      45.494   1.731   9.112  0.00  0.00    +0.000 A 
ATOM      3  C   UNL     1      44.702   2.738   9.665  0.00  0.00    +0.000 A 
ATOM      4  C   UNL     1      44.652   3.991   9.062  0.00  0.00    +0.000 A 
ATOM      5  N   UNL     1      43.823   5.007   9.485  0.00  0.00    +0.000 N 
ATOM      6  N   UNL     1      45.378   4.269   7.959  0.00  0.00    +0.000 NA
ATOM      7  C   UNL     1      46.153   3.281   7.438  0.00  0.00    +0.000 A 
ATOM      8  H   UNL     1      44.029   5.851   8.959  0.00  0.00    +0.000 HD
ENDROOT
BRANCH   1  10
ATOM      9  N   UNL     1      46.818  -0.327   7.615  0.00  0.00    +0.000 N 
ATOM     10  C   UNL     1      47.056   0.981   7.289  0.00  0.00    +0.000 C 
ATOM     11  O   UNL     1      47.893   1.286   6.449  0.00  0.00    +0.000 OA
ATOM     12  H   UNL     1      47.317  -1.022   7.076  0.00  0.00    +0.000 HD
ATOM     13  H   UNL     1      45.974  -0.621   8.090  0.00  0.00    +0.000 HD
ENDBRANCH   1  10
BRANCH   5  14
ATOM     14  C   UNL     1      43.493   5.183  10.893  0.00  0.00    +0.000 C 
BRANCH  14  15
ATOM     15  C   UNL     1      44.486   6.078  11.602  0.00  0.00    +0.000 A 
ATOM     16  C   UNL     1      44.388   7.462  11.523  0.00  0.00    +0.000 A 
ATOM     17  N   UNL     1      45.206   8.291  12.202  0.00  0.00    +0.000 NA
ATOM     18  C   UNL     1      46.131   7.666  12.970  0.00  0.00    +0.000 A 
ATOM     19  C   UNL     1      46.284   6.280  13.067  0.00  0.00    +0.000 A 
ATOM     20  N   UNL     1      45.457   5.479  12.351  0.00  0.00    +0.000 NA
BRANCH  19  21
ATOM     21  N   UNL     1      47.219   5.694  13.878  0.00  0.00    +0.000 N 
ATOM     22  C   UNL     1      47.038   4.327  14.372  0.00  0.00    +0.000 C 
ATOM     23  C   UNL     1      47.262   4.275  15.889  0.00  0.00    +0.000 C 
ATOM     24  O   UNL     1      48.524   4.859  16.260  0.00  0.00    +0.000 OA
ATOM     25  C   UNL     1      48.576   6.234  15.847  0.00  0.00    +0.000 C 
ATOM     26  C   UNL     1      48.438   6.373  14.322  0.00  0.00    +0.000 C 
ENDBRANCH  19  21
ENDBRANCH  14  15
ENDBRANCH   5  14
TORSDOF 4
ENDMDL
MODEL 3
REMARK VINA RESULT:    -6.962      3.605      8.221
REMARK INTER + INTRA:          -9.206
REMARK INTER:                  -8.828
REMARK INTRA:                  -0.378
REMARK UNBOUND:                -0.617
REMARK  Name = 
REMARK  4 active torsions:
REMARK  status: ('A' for Active; 'I' for Inactive)
REMARK    1  A    between atoms: C_2  and  C_4
REMARK    2  A    between atoms: N_8  and  C_9
REMARK    3  A    between atoms: C_9  and  C_10
REMARK    4  A    between atoms: C_14  and  N_15
REMARK                            x       y       z     vdW  Elec       q    Type
REMARK                         _______ _______ _______ _____ _____    ______ ____
ROOT
ATOM      1  C   UNL     1      48.668   4.493  18.151  0.00  0.00    +0.000 A 
ATOM      2  C   UNL     1      48.674   5.570  17.270  0.00  0.00    +0.000 A 
ATOM      3  C   UNL     1      47.901   5.500  16.110  0.00  0.00    +0.000 A 
ATOM      4  C   UNL     1      47.141   4.365  15.850  0.00  0.00    +0.000 A 
ATOM      5  N   UNL     1      46.277   4.255  14.781  0.00  0.00    +0.000 N 
ATOM      6  N   UNL     1      47.151   3.306  16.686  0.00  0.00    +0.000 NA
ATOM      7  C   UNL     1      47.917   3.383  17.807  0.00  0.00    +0.000 A 
ATOM      8  H   UNL     1      45.908   3.310  14.742  0.00  0.00    +0.000 HD
ENDROOT
BRANCH   1  10
ATOM      9  N   UNL     1      48.792   4.006  20.526  0.00  0.00    +0.000 N 
ATOM     10  C   UNL     1      49.427   4.501  19.419  0.00  0.00    +0.000 C 
ATOM     11  O   UNL     1      50.585   4.894  19.471  0.00  0.00    +0.000 OA
ATOM     12  H   UNL     1      49.352   3.917  21.362  0.00  0.00    +0.000 HD
ATOM     13  H   UNL     1      47.955   3.441  20.461  0.00  0.00    +0.000 HD
ENDBRANCH   1  10
BRANCH   5  14
ATOM     14  C   UNL     1      46.562   4.896  13.505  0.00  0.00    +0.000 C 
BRANCH  14  15
ATOM     15  C   UNL     1      45.409   4.768  12.534  0.00  0.00    +0.000 A 
ATOM     16  C   UNL     1      44.172   5.340  12.807  0.00  0.00    +0.000 A 
ATOM     17  N   UNL     1      43.146   5.311  11.933  0.00  0.00    +0.000 NA
ATOM     18  C   UNL     1      43.418   4.682  10.765  0.00  0.00    +0.000 A 
ATOM     19  C   UNL     1      44.636   4.072  10.450  0.00  0.00    +0.000 A 
ATOM     20  N   UNL     1      45.637   4.101  11.364  0.00  0.00    +0.000 NA
BRANCH  19  21
ATOM     21  N   UNL     1      44.871   3.468   9.243  0.00  0.00    +0.000 N 
ATOM     22  C   UNL     1      44.779   2.014   9.098  0.00  0.00    +0.000 C 
ATOM     23  C   UNL     1      46.030   1.469   8.396  0.00  0.00    +0.000 C 
ATOM     24  O   UNL     1      46.286   2.157   7.158  0.00  0.00    +0.000 OA
ATOM     25  C   UNL     1      46.485   3.559   7.401  0.00  0.00    +0.000 C 
ATOM     26  C   UNL     1      45.241   4.205   8.034  0.00  0.00    +0.000 C 
ENDBRANCH  19  21
ENDBRANCH  14  15
ENDBRANCH   5  14
TORSDOF 4
ENDMDL
MODEL 4
REMARK VINA RESULT:    -6.912      1.976      6.772
REMARK INTER + INTRA:          -9.144
REMARK INTER:                  -8.569
REMARK INTRA:                  -0.575
REMARK UNBOUND:                -0.617
REMARK  Name = 
REMARK  4 active torsions:
REMARK  status: ('A' for Active; 'I' for Inactive)
REMARK    1  A    between atoms: C_2  and  C_4
REMARK    2  A    between atoms: N_8  and  C_9
REMARK    3  A    between atoms: C_9  and  C_10
REMARK    4  A    between atoms: C_14  and  N_15
REMARK                            x       y       z     vdW  Elec       q    Type
REMARK                         _______ _______ _______ _____ _____    ______ ____
ROOT
ATOM      1  C   UNL     1      49.526   8.117  12.362  0.00  0.00    +0.000 A 
ATOM      2  C   UNL     1      48.356   8.636  11.818  0.00  0.00    +0.000 A 
ATOM      3  C   UNL     1      47.134   8.051  12.153  0.00  0.00    +0.000 A 
ATOM      4  C   UNL     1      47.100   6.964  13.020  0.00  0.00    +0.000 A 
ATOM      5  N   UNL     1      45.933   6.392  13.478  0.00  0.00    +0.000 N 
ATOM      6  N   UNL     1      48.233   6.438  13.531  0.00  0.00    +0.000 NA
ATOM      7  C   UNL     1      49.417   7.011  13.187  0.00  0.00    +0.000 A 
ATOM      8  H   UNL     1      46.155   5.560  14.017  0.00  0.00    +0.000 HD
ENDROOT
BRANCH   1  10
ATOM      9  N   UNL     1      51.830   7.846  11.649  0.00  0.00    +0.000 N 
ATOM     10  C   UNL     1      50.856   8.700  12.090  0.00  0.00    +0.000 C 
ATOM     11  O   UNL     1      51.069   9.900  12.215  0.00  0.00    +0.000 OA
ATOM     12  H   UNL     1      52.703   8.270  11.366  0.00  0.00    +0.000 HD
ATOM     13  H   UNL     1      51.619   6.925  11.288  0.00  0.00    +0.000 HD
ENDBRANCH   1  10
BRANCH   5  14
ATOM     14  C   UNL     1      44.740   6.328  12.645  0.00  0.00    +0.000 C 
BRANCH  14  15
ATOM     15  C   UNL     1      44.446   4.919  12.180  0.00  0.00    +0.000 A 
ATOM     16  C   UNL     1      43.746   4.028  12.985  0.00  0.00    +0.000 A 
ATOM     17  N   UNL     1      43.399   2.792  12.575  0.00  0.00    +0.000 NA
ATOM     18  C   UNL     1      43.786   2.487  11.312  0.00  0.00    +0.000 A 
ATOM     19  C   UNL     1      44.510   3.338  10.471  0.00  0.00    +0.000 A 
ATOM     20  N   UNL     1      44.860   4.565  10.928  0.00  0.00    +0.000 NA
BRANCH  19  21
ATOM     21  N   UNL     1      44.857   2.993   9.192  0.00  0.00    +0.000 N 
ATOM     22  C   UNL     1      45.061   1.593   8.818  0.00  0.00    +0.000 C 
ATOM     23  C   UNL     1      46.393   1.430   8.074  0.00  0.00    +0.000 C 
ATOM     24  O   UNL     1      46.499   2.343   6.966  0.00  0.00    +0.000 OA
ATOM     25  C   UNL     1      46.409   3.699   7.431  0.00  0.00    +0.000 C 
ATOM     26  C   UNL     1      45.063   3.973   8.124  0.00  0.00    +0.000 C 
ENDBRANCH  19  21
ENDBRANCH  14  15
ENDBRANCH   5  14
TORSDOF 4
ENDMDL
MODEL 5
REMARK VINA RESULT:    -6.789      1.625      2.334
REMARK INTER + INTRA:          -8.993
REMARK INTER:                  -8.615
REMARK INTRA:                  -0.378
REMARK UNBOUND:                -0.617
REMARK  Name = 
REMARK  4 active torsions:
REMARK  status: ('A' for Active; 'I' for Inactive)
REMARK    1  A    between atoms: C_2  and  C_4
REMARK    2  A    between atoms: N_8  and  C_9
REMARK    3  A    between atoms: C_9  and  C_10
REMARK    4  A    between atoms: C_14  and  N_15
REMARK                            x       y       z     vdW  Elec       q    Type
REMARK                         _______ _______ _______ _____ _____    ______ ____
ROOT
ATOM      1  C   UNL     1      46.420   2.681   7.477  0.00  0.00    +0.000 A 
ATOM      2  C   UNL     1      45.975   3.984   7.680  0.00  0.00    +0.000 A 
ATOM      3  C   UNL     1      45.226   4.275   8.820  0.00  0.00    +0.000 A 
ATOM      4  C   UNL     1      44.934   3.268   9.734  0.00  0.00    +0.000 A 
ATOM      5  N   UNL     1      44.286   3.490  10.931  0.00  0.00    +0.000 N 
ATOM      6  N   UNL     1      45.338   1.997   9.532  0.00  0.00    +0.000 NA
ATOM      7  C   UNL     1      46.058   1.725   8.411  0.00  0.00    +0.000 A 
ATOM      8  H   UNL     1      44.100   2.600  11.383  0.00  0.00    +0.000 HD
ENDROOT
BRANCH   1  10
ATOM      9  N   UNL     1      47.197   3.110   5.219  0.00  0.00    +0.000 N 
ATOM     10  C   UNL     1      47.250   2.296   6.318  0.00  0.00    +0.000 C 
ATOM     11  O   UNL     1      47.984   1.316   6.350  0.00  0.00    +0.000 OA
ATOM     12  H   UNL     1      47.846   2.899   4.473  0.00  0.00    +0.000 HD
ATOM     13  H   UNL     1      46.820   4.048   5.258  0.00  0.00    +0.000 HD
ENDBRANCH   1  10
BRANCH   5  14
ATOM     14  C   UNL     1      43.258   4.514  11.060  0.00  0.00    +0.000 C 
BRANCH  14  15
ATOM     15  C   UNL     1      43.848   5.884  11.310  0.00  0.00    +0.000 A 
ATOM     16  C   UNL     1      43.192   7.036  10.890  0.00  0.00    +0.000 A 
ATOM     17  N   UNL     1      43.648   8.275  11.161  0.00  0.00    +0.000 NA
ATOM     18  C   UNL     1      44.796   8.308  11.879  0.00  0.00    +0.000 A 
ATOM     19  C   UNL     1      45.506   7.182  12.305  0.00  0.00    +0.000 A 
ATOM     20  N   UNL     1      45.027   5.952  11.993  0.00  0.00    +0.000 NA
BRANCH  19  21
ATOM     21  N   UNL     1      46.651   7.267  13.051  0.00  0.00    +0.000 N 
ATOM     22  C   UNL     1      46.980   8.487  13.789  0.00  0.00    +0.000 C 
ATOM     23  C   UNL     1      48.424   8.914  13.494  0.00  0.00    +0.000 C 
ATOM     24  O   UNL     1      49.353   7.838  13.718  0.00  0.00    +0.000 OA
ATOM     25  C   UNL     1      49.034   6.723  12.869  0.00  0.00    +0.000 C 
ATOM     26  C   UNL     1      47.625   6.178  13.156  0.00  0.00    +0.000 C 
ENDBRANCH  19  21
ENDBRANCH  14  15
ENDBRANCH   5  14
TORSDOF 4
ENDMDL
MODEL 6
REMARK VINA RESULT:    -6.762      5.152      8.266
REMARK INTER + INTRA:          -8.960
REMARK INTER:                  -8.411
REMARK INTRA:                  -0.550
REMARK UNBOUND:                -0.617
REMARK  Name = 
REMARK  4 active torsions:
REMARK  status: ('A' for Active; 'I' for Inactive)
REMARK    1  A    between atoms: C_2  and  C_4
REMARK    2  A    between atoms: N_8  and  C_9
REMARK    3  A    between atoms: C_9  and  C_10
REMARK    4  A    between atoms: C_14  and  N_15
REMARK                            x       y       z     vdW  Elec       q    Type
REMARK                         _______ _______ _______ _____ _____    ______ ____
ROOT
ATOM      1  C   UNL     1      51.801   2.489  17.767  0.00  0.00    +0.000 A 
ATOM      2  C   UNL     1      51.138   3.594  18.293  0.00  0.00    +0.000 A 
ATOM      3  C   UNL     1      49.791   3.787  17.985  0.00  0.00    +0.000 A 
ATOM      4  C   UNL     1      49.131   2.881  17.160  0.00  0.00    +0.000 A 
ATOM      5  N   UNL     1      47.782   2.944  16.887  0.00  0.00    +0.000 N 
ATOM      6  N   UNL     1      49.774   1.822  16.624  0.00  0.00    +0.000 NA
ATOM      7  C   UNL     1      51.089   1.653  16.925  0.00  0.00    +0.000 A 
ATOM      8  H   UNL     1      47.547   2.242  16.191  0.00  0.00    +0.000 HD
ENDROOT
BRANCH   1  10
ATOM      9  N   UNL     1      53.494   0.939  18.554  0.00  0.00    +0.000 N 
ATOM     10  C   UNL     1      53.214   2.190  18.074  0.00  0.00    +0.000 C 
ATOM     11  O   UNL     1      54.102   3.008  17.873  0.00  0.00    +0.000 OA
ATOM     12  H   UNL     1      54.473   0.708  18.660  0.00  0.00    +0.000 HD
ATOM     13  H   UNL     1      52.839   0.172  18.478  0.00  0.00    +0.000 HD
ENDBRANCH   1  10
BRANCH   5  14
ATOM     14  C   UNL     1      47.085   4.219  16.786  0.00  0.00    +0.000 C 
BRANCH  14  15
ATOM     15  C   UNL     1      47.166   4.803  15.393  0.00  0.00    +0.000 A 
ATOM     16  C   UNL     1      48.163   5.710  15.051  0.00  0.00    +0.000 A 
ATOM     17  N   UNL     1      48.313   6.193  13.802  0.00  0.00    +0.000 NA
ATOM     18  C   UNL     1      47.416   5.720  12.904  0.00  0.00    +0.000 A 
ATOM     19  C   UNL     1      46.383   4.826  13.200  0.00  0.00    +0.000 A 
ATOM     20  N   UNL     1      46.250   4.380  14.474  0.00  0.00    +0.000 NA
BRANCH  19  21
ATOM     21  N   UNL     1      45.514   4.357  12.251  0.00  0.00    +0.000 N 
ATOM     22  C   UNL     1      44.968   5.248  11.225  0.00  0.00    +0.000 C 
ATOM     23  C   UNL     1      43.443   5.096  11.147  0.00  0.00    +0.000 C 
ATOM     24  O   UNL     1      43.053   3.720  10.982  0.00  0.00    +0.000 OA
ATOM     25  C   UNL     1      43.525   2.935  12.089  0.00  0.00    +0.000 C 
ATOM     26  C   UNL     1      45.059   2.967  12.194  0.00  0.00    +0.000 C 
ENDBRANCH  19  21
ENDBRANCH  14  15
ENDBRANCH   5  14
TORSDOF 4
ENDMDL
MODEL 7
REMARK VINA RESULT:    -6.548      2.504      7.246
REMARK INTER + INTRA:          -8.696
REMARK INTER:                  -8.320
REMARK INTRA:                  -0.376
REMARK UNBOUND:                -0.617
REMARK  Name = 
REMARK  4 active torsions:
REMARK  status: ('A' for Active; 'I' for Inactive)
REMARK    1  A    between atoms: C_2  and  C_4
REMARK    2  A    between atoms: N_8  and  C_9
REMARK    3  A    between atoms: C_9  and  C_10
REMARK    4  A    between atoms: C_14  and  N_15
REMARK                            x       y       z     vdW  Elec       q    Type
REMARK                         _______ _______ _______ _____ _____    ______ ____
ROOT
ATOM      1  C   UNL     1      48.145   5.566  15.418  0.00  0.00    +0.000 A 
ATOM      2  C   UNL     1      47.023   4.850  15.010  0.00  0.00    +0.000 A 
ATOM      3  C   UNL     1      46.459   5.126  13.764  0.00  0.00    +0.000 A 
ATOM      4  C   UNL     1      47.018   6.105  12.950  0.00  0.00    +0.000 A 
ATOM      5  N   UNL     1      46.584   6.370  11.669  0.00  0.00    +0.000 N 
ATOM      6  N   UNL     1      48.089   6.822  13.349  0.00  0.00    +0.000 NA
ATOM      7  C   UNL     1      48.622   6.551  14.570  0.00  0.00    +0.000 A 
ATOM      8  H   UNL     1      47.074   7.183  11.309  0.00  0.00    +0.000 HD
ENDROOT
BRANCH   1  10
ATOM      9  N   UNL     1      48.606   6.210  17.712  0.00  0.00    +0.000 N 
ATOM     10  C   UNL     1      48.826   5.311  16.703  0.00  0.00    +0.000 C 
ATOM     11  O   UNL     1      49.526   4.321  16.873  0.00  0.00    +0.000 OA
ATOM     12  H   UNL     1      48.990   5.971  18.616  0.00  0.00    +0.000 HD
ATOM     13  H   UNL     1      47.841   6.872  17.688  0.00  0.00    +0.000 HD
ENDBRANCH   1  10
BRANCH   5  14
ATOM     14  C   UNL     1      45.180   6.240  11.300  0.00  0.00    +0.000 C 
BRANCH  14  15
ATOM     15  C   UNL     1      44.839   4.836  10.851  0.00  0.00    +0.000 A 
ATOM     16  C   UNL     1      43.843   4.102  11.484  0.00  0.00    +0.000 A 
ATOM     17  N   UNL     1      43.458   2.880  11.064  0.00  0.00    +0.000 NA
ATOM     18  C   UNL     1      44.119   2.426   9.972  0.00  0.00    +0.000 A 
ATOM     19  C   UNL     1      45.142   3.114   9.312  0.00  0.00    +0.000 A 
ATOM     20  N   UNL     1      45.516   4.331   9.779  0.00  0.00    +0.000 NA
BRANCH  19  21
ATOM     21  N   UNL     1      45.764   2.623   8.196  0.00  0.00    +0.000 N 
ATOM     22  C   UNL     1      45.929   1.182   7.998  0.00  0.00    +0.000 C 
ATOM     23  C   UNL     1      47.385   0.858   7.635  0.00  0.00    +0.000 C 
ATOM     24  O   UNL     1      47.844   1.649   6.523  0.00  0.00    +0.000 OA
ATOM     25  C   UNL     1      47.763   3.047   6.842  0.00  0.00    +0.000 C 
ATOM     26  C   UNL     1      46.317   3.477   7.143  0.00  0.00    +0.000 C 
ENDBRANCH  19  21
ENDBRANCH  14  15
ENDBRANCH   5  14
TORSDOF 4
ENDMDL
MODEL 8
REMARK VINA RESULT:    -6.367      4.194      6.432
REMARK INTER + INTRA:          -8.472
REMARK INTER:                  -7.880
REMARK INTRA:                  -0.592
REMARK UNBOUND:                -0.617
REMARK  Name = 
REMARK  4 active torsions:
REMARK  status: ('A' for Active; 'I' for Inactive)
REMARK    1  A    between atoms: C_2  and  C_4
REMARK    2  A    between atoms: N_8  and  C_9
REMARK    3  A    between atoms: C_9  and  C_10
REMARK    4  A    between atoms: C_14  and  N_15
REMARK                            x       y       z     vdW  Elec       q    Type
REMARK                         _______ _______ _______ _____ _____    ______ ____
ROOT
ATOM      1  C   UNL     1      44.685   5.194  11.417  0.00  0.00    +0.000 A 
ATOM      2  C   UNL     1      45.802   4.683  12.071  0.00  0.00    +0.000 A 
ATOM      3  C   UNL     1      46.588   5.540  12.842  0.00  0.00    +0.000 A 
ATOM      4  C   UNL     1      46.249   6.885  12.948  0.00  0.00    +0.000 A 
ATOM      5  N   UNL     1      46.911   7.775  13.766  0.00  0.00    +0.000 N 
ATOM      6  N   UNL     1      45.182   7.394  12.296  0.00  0.00    +0.000 NA
ATOM      7  C   UNL     1      44.432   6.550  11.540  0.00  0.00    +0.000 A 
ATOM      8  H   UNL     1      46.551   8.711  13.606  0.00  0.00    +0.000 HD
ENDROOT
BRANCH   1  10
ATOM      9  N   UNL     1      43.824   4.509   9.254  0.00  0.00    +0.000 N 
ATOM     10  C   UNL     1      43.779   4.349  10.613  0.00  0.00    +0.000 C 
ATOM     11  O   UNL     1      43.049   3.515  11.133  0.00  0.00    +0.000 OA
ATOM     12  H   UNL     1      43.280   3.855   8.708  0.00  0.00    +0.000 HD
ATOM     13  H   UNL     1      44.588   4.984   8.791  0.00  0.00    +0.000 HD
ENDBRANCH   1  10
BRANCH   5  14
ATOM     14  C   UNL     1      48.343   7.662  14.010  0.00  0.00    +0.000 C 
BRANCH  14  15
ATOM     15  C   UNL     1      48.648   7.305  15.449  0.00  0.00    +0.000 A 
ATOM     16  C   UNL     1      48.673   8.279  16.440  0.00  0.00    +0.000 A 
ATOM     17  N   UNL     1      48.865   7.990  17.742  0.00  0.00    +0.000 NA
ATOM     18  C   UNL     1      49.029   6.672  18.008  0.00  0.00    +0.000 A 
ATOM     19  C   UNL     1      49.034   5.657  17.048  0.00  0.00    +0.000 A 
ATOM     20  N   UNL     1      48.861   5.990  15.745  0.00  0.00    +0.000 NA
BRANCH  19  21
ATOM     21  N   UNL     1      49.179   4.334  17.369  0.00  0.00    +0.000 N 
ATOM     22  C   UNL     1      50.368   3.857  18.080  0.00  0.00    +0.000 C 
ATOM     23  C   UNL     1      50.962   2.637  17.364  0.00  0.00    +0.000 C 
ATOM     24  O   UNL     1      49.973   1.615  17.146  0.00  0.00    +0.000 OA
ATOM     25  C   UNL     1      48.899   2.127  16.340  0.00  0.00    +0.000 C 
ATOM     26  C   UNL     1      48.193   3.309  17.024  0.00  0.00    +0.000 C 
ENDBRANCH  19  21
ENDBRANCH  14  15
ENDBRANCH   5  14
TORSDOF 4
ENDMDL
MODEL 9
REMARK VINA RESULT:    -6.088      5.226      7.012
REMARK INTER + INTRA:          -8.129
REMARK INTER:                  -7.745
REMARK INTRA:                  -0.384
REMARK UNBOUND:                -0.617
REMARK  Name = 
REMARK  4 active torsions:
REMARK  status: ('A' for Active; 'I' for Inactive)
REMARK    1  A    between atoms: C_2  and  C_4
REMARK    2  A    between atoms: N_8  and  C_9
REMARK    3  A    between atoms: C_9  and  C_10
REMARK    4  A    between atoms: C_14  and  N_15
REMARK                            x       y       z     vdW  Elec       q    Type
REMARK                         _______ _______ _______ _____ _____    ______ ____
ROOT
ATOM      1  C   UNL     1      44.440   4.916  11.864  0.00  0.00    +0.000 A 
ATOM      2  C   UNL     1      44.993   5.796  12.788  0.00  0.00    +0.000 A 
ATOM      3  C   UNL     1      45.892   5.307  13.738  0.00  0.00    +0.000 A 
ATOM      4  C   UNL     1      46.221   3.956  13.750  0.00  0.00    +0.000 A 
ATOM      5  N   UNL     1      47.171   3.411  14.587  0.00  0.00    +0.000 N 
ATOM      6  N   UNL     1      45.669   3.091  12.874  0.00  0.00    +0.000 NA
ATOM      7  C   UNL     1      44.787   3.579  11.962  0.00  0.00    +0.000 A 
ATOM      8  H   UNL     1      47.171   2.401  14.484  0.00  0.00    +0.000 HD
ENDROOT
BRANCH   1  10
ATOM      9  N   UNL     1      42.730   6.447  11.076  0.00  0.00    +0.000 N 
ATOM     10  C   UNL     1      43.512   5.357  10.803  0.00  0.00    +0.000 C 
ATOM     11  O   UNL     1      43.470   4.800   9.714  0.00  0.00    +0.000 OA
ATOM     12  H   UNL     1      42.177   6.805  10.309  0.00  0.00    +0.000 HD
ATOM     13  H   UNL     1      42.929   7.076  11.843  0.00  0.00    +0.000 HD
ENDBRANCH   1  10
BRANCH   5  14
ATOM     14  C   UNL     1      47.385   3.928  15.932  0.00  0.00    +0.000 C 
BRANCH  14  15
ATOM     15  C   UNL     1      48.683   3.434  16.531  0.00  0.00    +0.000 A 
ATOM     16  C   UNL     1      49.021   2.086  16.502  0.00  0.00    +0.000 A 
ATOM     17  N   UNL     1      50.200   1.619  16.956  0.00  0.00    +0.000 NA
ATOM     18  C   UNL     1      51.033   2.570  17.443  0.00  0.00    +0.000 A 
ATOM     19  C   UNL     1      50.733   3.934  17.516  0.00  0.00    +0.000 A 
ATOM     20  N   UNL     1      49.527   4.362  17.069  0.00  0.00    +0.000 NA
BRANCH  19  21
ATOM     21  N   UNL     1      51.619   4.862  17.994  0.00  0.00    +0.000 N 
ATOM     22  C   UNL     1      52.296   5.794  17.090  0.00  0.00    +0.000 C 
ATOM     23  C   UNL     1      53.806   5.796  17.361  0.00  0.00    +0.000 C 
ATOM     24  O   UNL     1      54.096   6.030  18.752  0.00  0.00    +0.000 OA
ATOM     25  C   UNL     1      53.498   5.006  19.563  0.00  0.00    +0.000 C 
ATOM     26  C   UNL     1      51.967   4.986  19.411  0.00  0.00    +0.000 C 
ENDBRANCH  19  21
ENDBRANCH  14  15
ENDBRANCH   5  14
TORSDOF 4
ENDMDL
