MODEL 1
REMARK VINA RESULT:    -8.691      0.000      0.000
REMARK INTER + INTRA:         -11.660
REMARK INTER:                 -11.231
REMARK INTRA:                  -0.429
REMARK UNBOUND:                -0.429
REMARK  Name = 
REMARK  6 active torsions:
REMARK  status: ('A' for Active; 'I' for Inactive)
REMARK    1  A    between atoms: C_2  and  O_3
REMARK    2  A    between atoms: C_2  and  C_4
REMARK    3  A    between atoms: N_8  and  C_9
REMARK    4  A    between atoms: C_9  and  C_10
REMARK    5  A    between atoms: C_10  and  O_11
REMARK    6  A    between atoms: C_10  and  C_12
REMARK                            x       y       z     vdW  Elec       q    Type
REMARK                         _______ _______ _______ _____ _____    ______ ____
ROOT
ATOM      1  C   UNL     1      46.378   2.062   7.795  0.00  0.00    +0.000 A 
ATOM      2  C   UNL     1      45.493   1.750   8.793  0.00  0.00    +0.000 A 
ATOM      3  N   UNL     1      44.685   2.663   9.380  0.00  0.00    +0.000 NA
ATOM      4  C   UNL     1      44.714   3.915   8.883  0.00  0.00    +0.000 A 
ATOM      5  N   UNL     1      43.942   4.904   9.466  0.00  0.00    +0.000 N 
ATOM      6  N   UNL     1      45.483   4.287   7.852  0.00  0.00    +0.000 NA
ATOM      7  C   UNL     1      46.322   3.358   7.344  0.00  0.00    +0.000 A 
ATOM      8  H   UNL     1      43.333   5.286   8.753  0.00  0.00    +0.000 HD
ENDROOT
BRANCH   1  10
ATOM      9  O   UNL     1      48.087   1.284   6.386  0.00  0.00    +0.000 OA
ATOM     10  C   UNL     1      47.249   1.028   7.234  0.00  0.00    +0.000 C 
BRANCH  10  11
ATOM     11  O   UNL     1      47.019  -0.211   7.701  0.00  0.00    +0.000 OA
ATOM     12  H   UNL     1      46.246  -0.326   8.289  0.00  0.00    +0.000 HD
ENDBRANCH  10  11
ENDBRANCH   1  10
BRANCH   5  13
ATOM     13  C   UNL     1      43.326   4.597  10.751  0.00  0.00    +0.000 C 
BRANCH  13  14
ATOM     14  C   UNL     1      43.558   5.752  11.772  0.00  0.00    +0.000 C 
BRANCH  14  15
ATOM     15  C   UNL     1      44.988   5.819  12.252  0.00  0.00    +0.000 A 
ATOM     16  C   UNL     1      45.910   6.683  11.640  0.00  0.00    +0.000 A 
ATOM     17  C   UNL     1      47.220   6.772  12.104  0.00  0.00    +0.000 A 
ATOM     18  C   UNL     1      47.624   5.995  13.192  0.00  0.00    +0.000 A 
ATOM     19  C   UNL     1      46.708   5.144  13.809  0.00  0.00    +0.000 A 
ATOM     20 CL   UNL     1      47.202   4.205  15.166  0.00  0.00    +0.000 Cl
ATOM     21  C   UNL     1      45.399   5.051  13.348  0.00  0.00    +0.000 A 
ENDBRANCH  14  15
BRANCH  14  22
ATOM     22  O   UNL     1      43.267   7.058  11.265  0.00  0.00    +0.000 OA
ATOM     23  H   UNL     1      43.583   7.693  11.935  0.00  0.00    +0.000 HD
ENDBRANCH  14  22
ENDBRANCH  13  14
ENDBRANCH   5  13
TORSDOF 6
ENDMDL
MODEL 2
REMARK VINA RESULT:    -8.656      1.145      1.572
REMARK INTER + INTRA:         -11.614
REMARK INTER:                 -11.154
REMARK INTRA:                  -0.461
REMARK UNBOUND:                -0.429
REMARK  Name = 
REMARK  6 active torsions:
REMARK  status: ('A' for Active; 'I' for Inactive)
REMARK    1  A    between atoms: C_2  and  O_3
REMARK    2  A    between atoms: C_2  and  C_4
REMARK    3  A    between atoms: N_8  and  C_9
REMARK    4  A    between atoms: C_9  and  C_10
REMARK    5  A    between atoms: C_10  and  O_11
REMARK    6  A    between atoms: C_10  and  C_12
REMARK                            x       y       z     vdW  Elec       q    Type
REMARK                         _______ _______ _______ _____ _____    ______ ____
ROOT
ATOM      1  C   UNL     1      46.359   2.088   7.830  0.00  0.00    +0.000 A 
ATOM      2  C   UNL     1      45.465   1.777   8.821  0.00  0.00    +0.000 A 
ATOM      3  N   UNL     1      44.667   2.695   9.414  0.00  0.00    +0.000 NA
ATOM      4  C   UNL     1      44.715   3.952   8.932  0.00  0.00    +0.000 A 
ATOM      5  N   UNL     1      43.956   4.945   9.524  0.00  0.00    +0.000 N 
ATOM      6  N   UNL     1      45.495   4.324   7.909  0.00  0.00    +0.000 NA
ATOM      7  C   UNL     1      46.322   3.389   7.393  0.00  0.00    +0.000 A 
ATOM      8  H   UNL     1      43.355   5.343   8.812  0.00  0.00    +0.000 HD
ENDROOT
BRANCH   1  10
ATOM      9  O   UNL     1      48.055   1.300   6.411  0.00  0.00    +0.000 OA
ATOM     10  C   UNL     1      47.217   1.049   7.261  0.00  0.00    +0.000 C 
BRANCH  10  11
ATOM     11  O   UNL     1      46.975  -0.191   7.722  0.00  0.00    +0.000 OA
ATOM     12  H   UNL     1      46.855  -0.895   7.055  0.00  0.00    +0.000 HD
ENDBRANCH  10  11
ENDBRANCH   1  10
BRANCH   5  13
ATOM     13  C   UNL     1      43.330   4.632  10.802  0.00  0.00    +0.000 C 
BRANCH  13  14
ATOM     14  C   UNL     1      43.538   5.790  11.825  0.00  0.00    +0.000 C 
BRANCH  14  15
ATOM     15  C   UNL     1      44.937   5.811  12.394  0.00  0.00    +0.000 A 
ATOM     16  C   UNL     1      45.321   4.897  13.389  0.00  0.00    +0.000 A 
ATOM     17  C   UNL     1      46.619   4.893  13.890  0.00  0.00    +0.000 A 
ATOM     18  C   UNL     1      47.556   5.806  13.397  0.00  0.00    +0.000 A 
ATOM     19  C   UNL     1      47.182   6.707  12.401  0.00  0.00    +0.000 A 
ATOM     20 CL   UNL     1      48.344   7.815  11.778  0.00  0.00    +0.000 Cl
ATOM     21  C   UNL     1      45.884   6.716  11.899  0.00  0.00    +0.000 A 
ENDBRANCH  14  15
BRANCH  14  22
ATOM     22  O   UNL     1      43.328   7.100  11.287  0.00  0.00    +0.000 OA
ATOM     23  H   UNL     1      43.781   7.122  10.423  0.00  0.00    +0.000 HD
ENDBRANCH  14  22
ENDBRANCH  13  14
ENDBRANCH   5  13
TORSDOF 6
ENDMDL
MODEL 3
REMARK VINA RESULT:    -7.592      1.686      2.323
REMARK INTER + INTRA:         -10.240
REMARK INTER:                  -9.826
REMARK INTRA:                  -0.414
REMARK UNBOUND:                -0.429
REMARK  Name = 
REMARK  6 active torsions:
REMARK  status: ('A' for Active; 'I' for Inactive)
REMARK    1  A    between atoms: C_2  and  O_3
REMARK    2  A    between atoms: C_2  and  C_4
REMARK    3  A    between atoms: N_8  and  C_9
REMARK    4  A    between atoms: C_9  and  C_10
REMARK    5  A    between atoms: C_10  and  O_11
REMARK    6  A    between atoms: C_10  and  C_12
REMARK                            x       y       z     vdW  Elec       q    Type
REMARK                         _______ _______ _______ _____ _____    ______ ____
ROOT
ATOM      1  C   UNL     1      46.682   2.546   7.223  0.00  0.00    +0.000 A 
ATOM      2  C   UNL     1      46.291   3.804   7.598  0.00  0.00    +0.000 A 
ATOM      3  N   UNL     1      45.452   4.043   8.633  0.00  0.00    +0.000 NA
ATOM      4  C   UNL     1      45.063   2.980   9.363  0.00  0.00    +0.000 A 
ATOM      5  N   UNL     1      44.172   3.152  10.408  0.00  0.00    +0.000 N 
ATOM      6  N   UNL     1      45.466   1.726   9.122  0.00  0.00    +0.000 NA
ATOM      7  C   UNL     1      46.249   1.529   8.039  0.00  0.00    +0.000 A 
ATOM      8  H   UNL     1      44.611   2.805  11.252  0.00  0.00    +0.000 HD
ENDROOT
BRANCH   1  10
ATOM      9  O   UNL     1      48.396   1.473   6.031  0.00  0.00    +0.000 OA
ATOM     10  C   UNL     1      47.562   2.361   6.069  0.00  0.00    +0.000 C 
BRANCH  10  11
ATOM     11  O   UNL     1      47.396   3.268   5.089  0.00  0.00    +0.000 OA
ATOM     12  H   UNL     1      47.330   2.925   4.177  0.00  0.00    +0.000 HD
ENDBRANCH  10  11
ENDBRANCH   1  10
BRANCH   5  13
ATOM     13  C   UNL     1      43.504   4.444  10.506  0.00  0.00    +0.000 C 
BRANCH  13  14
ATOM     14  C   UNL     1      43.388   4.901  11.992  0.00  0.00    +0.000 C 
BRANCH  14  15
ATOM     15  C   UNL     1      44.683   5.470  12.523  0.00  0.00    +0.000 A 
ATOM     16  C   UNL     1      45.557   4.675  13.282  0.00  0.00    +0.000 A 
ATOM     17  C   UNL     1      46.766   5.188  13.743  0.00  0.00    +0.000 A 
ATOM     18  C   UNL     1      47.119   6.507  13.446  0.00  0.00    +0.000 A 
ATOM     19  C   UNL     1      46.259   7.294  12.682  0.00  0.00    +0.000 A 
ATOM     20 CL   UNL     1      46.706   8.913  12.297  0.00  0.00    +0.000 Cl
ATOM     21  C   UNL     1      45.048   6.787  12.222  0.00  0.00    +0.000 A 
ENDBRANCH  14  15
BRANCH  14  22
ATOM     22  O   UNL     1      42.405   5.915  12.224  0.00  0.00    +0.000 OA
ATOM     23  H   UNL     1      41.563   5.452  12.394  0.00  0.00    +0.000 HD
ENDBRANCH  14  22
ENDBRANCH  13  14
ENDBRANCH   5  13
TORSDOF 6
ENDMDL
MODEL 4
REMARK VINA RESULT:    -7.488      3.812      6.802
REMARK INTER + INTRA:         -10.105
REMARK INTER:                  -9.756
REMARK INTRA:                  -0.349
REMARK UNBOUND:                -0.429
REMARK  Name = 
REMARK  6 active torsions:
REMARK  status: ('A' for Active; 'I' for Inactive)
REMARK    1  A    between atoms: C_2  and  O_3
REMARK    2  A    between atoms: C_2  and  C_4
REMARK    3  A    between atoms: N_8  and  C_9
REMARK    4  A    between atoms: C_9  and  C_10
REMARK    5  A    between atoms: C_10  and  O_11
REMARK    6  A    between atoms: C_10  and  C_12
REMARK                            x       y       z     vdW  Elec       q    Type
REMARK                         _______ _______ _______ _____ _____    ______ ____
ROOT
ATOM      1  C   UNL     1      47.755   5.838  14.714  0.00  0.00    +0.000 A 
ATOM      2  C   UNL     1      47.263   6.473  13.605  0.00  0.00    +0.000 A 
ATOM      3  N   UNL     1      46.334   5.926  12.787  0.00  0.00    +0.000 NA
ATOM      4  C   UNL     1      45.827   4.732  13.150  0.00  0.00    +0.000 A 
ATOM      5  N   UNL     1      44.906   4.099  12.334  0.00  0.00    +0.000 N 
ATOM      6  N   UNL     1      46.186   4.080  14.263  0.00  0.00    +0.000 NA
ATOM      7  C   UNL     1      47.164   4.635  15.012  0.00  0.00    +0.000 A 
ATOM      8  H   UNL     1      44.067   3.939  12.878  0.00  0.00    +0.000 HD
ENDROOT
BRANCH   1  10
ATOM      9  O   UNL     1      49.916   6.666  15.111  0.00  0.00    +0.000 OA
ATOM     10  C   UNL     1      48.787   6.477  15.531  0.00  0.00    +0.000 C 
BRANCH  10  11
ATOM     11  O   UNL     1      48.396   6.795  16.778  0.00  0.00    +0.000 OA
ATOM     12  H   UNL     1      48.770   6.264  17.508  0.00  0.00    +0.000 HD
ENDBRANCH  10  11
ENDBRANCH   1  10
BRANCH   5  13
ATOM     13  C   UNL     1      44.719   4.643  10.995  0.00  0.00    +0.000 C 
BRANCH  13  14
ATOM     14  C   UNL     1      44.127   3.569  10.033  0.00  0.00    +0.000 C 
BRANCH  14  15
ATOM     15  C   UNL     1      45.103   3.157   8.956  0.00  0.00    +0.000 A 
ATOM     16  C   UNL     1      45.713   4.120   8.135  0.00  0.00    +0.000 A 
ATOM     17  C   UNL     1      46.639   3.745   7.166  0.00  0.00    +0.000 A 
ATOM     18  C   UNL     1      46.971   2.397   7.008  0.00  0.00    +0.000 A 
ATOM     19  C   UNL     1      46.376   1.441   7.829  0.00  0.00    +0.000 A 
ATOM     20 CL   UNL     1      46.804  -0.218   7.648  0.00  0.00    +0.000 Cl
ATOM     21  C   UNL     1      45.448   1.810   8.797  0.00  0.00    +0.000 A 
ENDBRANCH  14  15
BRANCH  14  22
ATOM     22  O   UNL     1      43.735   2.351  10.675  0.00  0.00    +0.000 OA
ATOM     23  H   UNL     1      44.434   1.697  10.480  0.00  0.00    +0.000 HD
ENDBRANCH  14  22
ENDBRANCH  13  14
ENDBRANCH   5  13
TORSDOF 6
ENDMDL
MODEL 5
REMARK VINA RESULT:    -7.286      3.182      6.606
REMARK INTER + INTRA:          -9.844
REMARK INTER:                  -9.989
REMARK INTRA:                   0.145
REMARK UNBOUND:                -0.429
REMARK  Name = 
REMARK  6 active torsions:
REMARK  status: ('A' for Active; 'I' for Inactive)
REMARK    1  A    between atoms: C_2  and  O_3
REMARK    2  A    between atoms: C_2  and  C_4
REMARK    3  A    between atoms: N_8  and  C_9
REMARK    4  A    between atoms: C_9  and  C_10
REMARK    5  A    between atoms: C_10  and  O_11
REMARK    6  A    between atoms: C_10  and  C_12
REMARK                            x       y       z     vdW  Elec       q    Type
REMARK                         _______ _______ _______ _____ _____    ______ ____
ROOT
ATOM      1  C   UNL     1      45.765   7.136  12.734  0.00  0.00    +0.000 A 
ATOM      2  C   UNL     1      44.799   6.786  11.829  0.00  0.00    +0.000 A 
ATOM      3  N   UNL     1      44.552   5.506  11.466  0.00  0.00    +0.000 NA
ATOM      4  C   UNL     1      45.248   4.544  12.101  0.00  0.00    +0.000 A 
ATOM      5  N   UNL     1      45.072   3.219  11.745  0.00  0.00    +0.000 N 
ATOM      6  N   UNL     1      46.148   4.791  13.061  0.00  0.00    +0.000 NA
ATOM      7  C   UNL     1      46.409   6.086  13.342  0.00  0.00    +0.000 A 
ATOM      8  H   UNL     1      44.784   2.709  12.572  0.00  0.00    +0.000 HD
ENDROOT
BRANCH   1  10
ATOM      9  O   UNL     1      47.090   8.945  13.430  0.00  0.00    +0.000 OA
ATOM     10  C   UNL     1      46.002   8.545  13.050  0.00  0.00    +0.000 C 
BRANCH  10  11
ATOM     11  O   UNL     1      44.922   9.336  12.925  0.00  0.00    +0.000 OA
ATOM     12  H   UNL     1      44.679   9.610  12.019  0.00  0.00    +0.000 HD
ENDBRANCH  10  11
ENDBRANCH   1  10
BRANCH   5  13
ATOM     13  C   UNL     1      44.324   2.951  10.523  0.00  0.00    +0.000 C 
BRANCH  13  14
ATOM     14  C   UNL     1      44.813   3.863   9.357  0.00  0.00    +0.000 C 
BRANCH  14  15
ATOM     15  C   UNL     1      45.654   3.112   8.352  0.00  0.00    +0.000 A 
ATOM     16  C   UNL     1      46.362   3.799   7.353  0.00  0.00    +0.000 A 
ATOM     17  C   UNL     1      47.165   3.111   6.448  0.00  0.00    +0.000 A 
ATOM     18  C   UNL     1      47.272   1.720   6.533  0.00  0.00    +0.000 A 
ATOM     19  C   UNL     1      46.580   1.036   7.531  0.00  0.00    +0.000 A 
ATOM     20 CL   UNL     1      46.732  -0.676   7.649  0.00  0.00    +0.000 Cl
ATOM     21  C   UNL     1      45.774   1.719   8.436  0.00  0.00    +0.000 A 
ENDBRANCH  14  15
BRANCH  14  22
ATOM     22  O   UNL     1      43.763   4.467   8.596  0.00  0.00    +0.000 OA
ATOM     23  H   UNL     1      43.934   5.427   8.598  0.00  0.00    +0.000 HD
ENDBRANCH  14  22
ENDBRANCH  13  14
ENDBRANCH   5  13
TORSDOF 6
ENDMDL
MODEL 6
REMARK VINA RESULT:    -6.915      3.951      6.826
REMARK INTER + INTRA:          -9.365
REMARK INTER:                  -9.036
REMARK INTRA:                  -0.329
REMARK UNBOUND:                -0.429
REMARK  Name = 
REMARK  6 active torsions:
REMARK  status: ('A' for Active; 'I' for Inactive)
REMARK    1  A    between atoms: C_2  and  O_3
REMARK    2  A    between atoms: C_2  and  C_4
REMARK    3  A    between atoms: N_8  and  C_9
REMARK    4  A    between atoms: C_9  and  C_10
REMARK    5  A    between atoms: C_10  and  O_11
REMARK    6  A    between atoms: C_10  and  C_12
REMARK                            x       y       z     vdW  Elec       q    Type
REMARK                         _______ _______ _______ _____ _____    ______ ____
ROOT
ATOM      1  C   UNL     1      47.203   4.549  14.975  0.00  0.00    +0.000 A 
ATOM      2  C   UNL     1      46.685   3.546  14.199  0.00  0.00    +0.000 A 
ATOM      3  N   UNL     1      46.196   3.750  12.954  0.00  0.00    +0.000 NA
ATOM      4  C   UNL     1      46.309   4.993  12.447  0.00  0.00    +0.000 A 
ATOM      5  N   UNL     1      45.790   5.276  11.196  0.00  0.00    +0.000 N 
ATOM      6  N   UNL     1      46.881   6.012  13.101  0.00  0.00    +0.000 NA
ATOM      7  C   UNL     1      47.294   5.776  14.366  0.00  0.00    +0.000 A 
ATOM      8  H   UNL     1      46.544   5.626  10.617  0.00  0.00    +0.000 HD
ENDROOT
BRANCH   1  10
ATOM      9  O   UNL     1      48.814   4.535  16.683  0.00  0.00    +0.000 OA
ATOM     10  C   UNL     1      47.680   4.261  16.328  0.00  0.00    +0.000 C 
BRANCH  10  11
ATOM     11  O   UNL     1      46.783   3.642  17.117  0.00  0.00    +0.000 OA
ATOM     12  H   UNL     1      47.132   2.990  17.755  0.00  0.00    +0.000 HD
ENDBRANCH  10  11
ENDBRANCH   1  10
BRANCH   5  13
ATOM     13  C   UNL     1      44.920   4.273  10.594  0.00  0.00    +0.000 C 
BRANCH  13  14
ATOM     14  C   UNL     1      44.917   4.397   9.040  0.00  0.00    +0.000 C 
BRANCH  14  15
ATOM     15  C   UNL     1      45.636   3.250   8.369  0.00  0.00    +0.000 A 
ATOM     16  C   UNL     1      45.511   1.940   8.859  0.00  0.00    +0.000 A 
ATOM     17  C   UNL     1      46.145   0.878   8.221  0.00  0.00    +0.000 A 
ATOM     18  C   UNL     1      46.913   1.114   7.077  0.00  0.00    +0.000 A 
ATOM     19  C   UNL     1      47.029   2.412   6.581  0.00  0.00    +0.000 A 
ATOM     20 CL   UNL     1      47.956   2.698   5.158  0.00  0.00    +0.000 Cl
ATOM     21  C   UNL     1      46.399   3.477   7.217  0.00  0.00    +0.000 A 
ENDBRANCH  14  15
BRANCH  14  22
ATOM     22  O   UNL     1      43.612   4.422   8.452  0.00  0.00    +0.000 OA
ATOM     23  H   UNL     1      43.380   3.496   8.249  0.00  0.00    +0.000 HD
ENDBRANCH  14  22
ENDBRANCH  13  14
ENDBRANCH   5  13
TORSDOF 6
ENDMDL
MODEL 7
REMARK VINA RESULT:    -6.804      3.412      6.492
REMARK INTER + INTRA:          -9.221
REMARK INTER:                  -9.721
REMARK INTRA:                   0.499
REMARK UNBOUND:                -0.429
REMARK  Name = 
REMARK  6 active torsions:
REMARK  status: ('A' for Active; 'I' for Inactive)
REMARK    1  A    between atoms: C_2  and  O_3
REMARK    2  A    between atoms: C_2  and  C_4
REMARK    3  A    between atoms: N_8  and  C_9
REMARK    4  A    between atoms: C_9  and  C_10
REMARK    5  A    between atoms: C_10  and  O_11
REMARK    6  A    between atoms: C_10  and  C_12
REMARK                            x       y       z     vdW  Elec       q    Type
REMARK                         _______ _______ _______ _____ _____    ______ ____
ROOT
ATOM      1  C   UNL     1      46.983   5.653  13.208  0.00  0.00    +0.000 A 
ATOM      2  C   UNL     1      45.999   5.902  12.288  0.00  0.00    +0.000 A 
ATOM      3  N   UNL     1      45.195   4.938  11.783  0.00  0.00    +0.000 NA
ATOM      4  C   UNL     1      45.336   3.697  12.286  0.00  0.00    +0.000 A 
ATOM      5  N   UNL     1      44.573   2.659  11.781  0.00  0.00    +0.000 N 
ATOM      6  N   UNL     1      46.211   3.382  13.250  0.00  0.00    +0.000 NA
ATOM      7  C   UNL     1      47.037   4.363  13.675  0.00  0.00    +0.000 A 
ATOM      8  H   UNL     1      44.050   2.255  12.548  0.00  0.00    +0.000 HD
ENDROOT
BRANCH   1  10
ATOM      9  O   UNL     1      49.055   6.691  13.585  0.00  0.00    +0.000 OA
ATOM     10  C   UNL     1      47.840   6.740  13.682  0.00  0.00    +0.000 C 
BRANCH  10  11
ATOM     11  O   UNL     1      47.181   7.760  14.260  0.00  0.00    +0.000 OA
ATOM     12  H   UNL     1      47.175   8.611  13.779  0.00  0.00    +0.000 HD
ENDBRANCH  10  11
ENDBRANCH   1  10
BRANCH   5  13
ATOM     13  C   UNL     1      43.833   2.914  10.552  0.00  0.00    +0.000 C 
BRANCH  13  14
ATOM     14  C   UNL     1      44.681   3.759   9.554  0.00  0.00    +0.000 C 
BRANCH  14  15
ATOM     15  C   UNL     1      45.469   2.898   8.595  0.00  0.00    +0.000 A 
ATOM     16  C   UNL     1      45.662   1.531   8.851  0.00  0.00    +0.000 A 
ATOM     17  C   UNL     1      46.358   0.730   7.951  0.00  0.00    +0.000 A 
ATOM     18  C   UNL     1      46.871   1.288   6.777  0.00  0.00    +0.000 A 
ATOM     19  C   UNL     1      46.671   2.642   6.514  0.00  0.00    +0.000 A 
ATOM     20 CL   UNL     1      47.283   3.324   5.056  0.00  0.00    +0.000 Cl
ATOM     21  C   UNL     1      45.978   3.448   7.412  0.00  0.00    +0.000 A 
ENDBRANCH  14  15
BRANCH  14  22
ATOM     22  O   UNL     1      43.916   4.643   8.728  0.00  0.00    +0.000 OA
ATOM     23  H   UNL     1      44.343   4.643   7.850  0.00  0.00    +0.000 HD
ENDBRANCH  14  22
ENDBRANCH  13  14
ENDBRANCH   5  13
TORSDOF 6
ENDMDL
MODEL 8
REMARK VINA RESULT:    -6.729      4.662      6.618
REMARK INTER + INTRA:          -9.125
REMARK INTER:                  -8.837
REMARK INTRA:                  -0.288
REMARK UNBOUND:                -0.429
REMARK  Name = 
REMARK  6 active torsions:
REMARK  status: ('A' for Active; 'I' for Inactive)
REMARK    1  A    between atoms: C_2  and  O_3
REMARK    2  A    between atoms: C_2  and  C_4
REMARK    3  A    between atoms: N_8  and  C_9
REMARK    4  A    between atoms: C_9  and  C_10
REMARK    5  A    between atoms: C_10  and  O_11
REMARK    6  A    between atoms: C_10  and  C_12
REMARK                            x       y       z     vdW  Elec       q    Type
REMARK                         _______ _______ _______ _____ _____    ______ ____
ROOT
ATOM      1  C   UNL     1      44.443   4.787  11.821  0.00  0.00    +0.000 A 
ATOM      2  C   UNL     1      45.051   5.585  12.753  0.00  0.00    +0.000 A 
ATOM      3  N   UNL     1      45.935   5.119  13.666  0.00  0.00    +0.000 NA
ATOM      4  C   UNL     1      46.278   3.820  13.578  0.00  0.00    +0.000 A 
ATOM      5  N   UNL     1      47.144   3.273  14.507  0.00  0.00    +0.000 N 
ATOM      6  N   UNL     1      45.800   2.988  12.644  0.00  0.00    +0.000 NA
ATOM      7  C   UNL     1      44.870   3.482  11.798  0.00  0.00    +0.000 A 
ATOM      8  H   UNL     1      47.936   2.888  14.007  0.00  0.00    +0.000 HD
ENDROOT
BRANCH   1  10
ATOM      9  O   UNL     1      42.611   6.142  11.255  0.00  0.00    +0.000 OA
ATOM     10  C   UNL     1      43.468   5.354  10.890  0.00  0.00    +0.000 C 
BRANCH  10  11
ATOM     11  O   UNL     1      43.575   4.907   9.626  0.00  0.00    +0.000 OA
ATOM     12  H   UNL     1      42.770   4.944   9.074  0.00  0.00    +0.000 HD
ENDBRANCH  10  11
ENDBRANCH   1  10
BRANCH   5  13
ATOM     13  C   UNL     1      47.447   4.073  15.687  0.00  0.00    +0.000 C 
BRANCH  13  14
ATOM     14  C   UNL     1      47.770   3.164  16.912  0.00  0.00    +0.000 C 
BRANCH  14  15
ATOM     15  C   UNL     1      49.218   3.255  17.332  0.00  0.00    +0.000 A 
ATOM     16  C   UNL     1      49.712   4.412  17.956  0.00  0.00    +0.000 A 
ATOM     17  C   UNL     1      51.037   4.484  18.375  0.00  0.00    +0.000 A 
ATOM     18  C   UNL     1      51.888   3.394  18.176  0.00  0.00    +0.000 A 
ATOM     19  C   UNL     1      51.398   2.240  17.567  0.00  0.00    +0.000 A 
ATOM     20 CL   UNL     1      52.441   0.887  17.344  0.00  0.00    +0.000 Cl
ATOM     21  C   UNL     1      50.074   2.164  17.144  0.00  0.00    +0.000 A 
ENDBRANCH  14  15
BRANCH  14  22
ATOM     22  O   UNL     1      47.014   3.466  18.089  0.00  0.00    +0.000 OA
ATOM     23  H   UNL     1      46.939   4.438  18.129  0.00  0.00    +0.000 HD
ENDBRANCH  14  22
ENDBRANCH  13  14
ENDBRANCH   5  13
TORSDOF 6
ENDMDL
MODEL 9
REMARK VINA RESULT:    -6.568      5.138      7.498
REMARK INTER + INTRA:          -8.916
REMARK INTER:                  -8.533
REMARK INTRA:                  -0.383
REMARK UNBOUND:                -0.429
REMARK  Name = 
REMARK  6 active torsions:
REMARK  status: ('A' for Active; 'I' for Inactive)
REMARK    1  A    between atoms: C_2  and  O_3
REMARK    2  A    between atoms: C_2  and  C_4
REMARK    3  A    between atoms: N_8  and  C_9
REMARK    4  A    between atoms: C_9  and  C_10
REMARK    5  A    between atoms: C_10  and  O_11
REMARK    6  A    between atoms: C_10  and  C_12
REMARK                            x       y       z     vdW  Elec       q    Type
REMARK                         _______ _______ _______ _____ _____    ______ ____
ROOT
ATOM      1  C   UNL     1      48.296   3.607  17.534  0.00  0.00    +0.000 A 
ATOM      2  C   UNL     1      47.254   4.444  17.236  0.00  0.00    +0.000 A 
ATOM      3  N   UNL     1      46.677   4.505  16.013  0.00  0.00    +0.000 NA
ATOM      4  C   UNL     1      47.116   3.632  15.085  0.00  0.00    +0.000 A 
ATOM      5  N   UNL     1      46.597   3.672  13.803  0.00  0.00    +0.000 N 
ATOM      6  N   UNL     1      48.069   2.720  15.316  0.00  0.00    +0.000 NA
ATOM      7  C   UNL     1      48.660   2.743  16.531  0.00  0.00    +0.000 A 
ATOM      8  H   UNL     1      46.205   2.761  13.597  0.00  0.00    +0.000 HD
ENDROOT
BRANCH   1  10
ATOM      9  O   UNL     1      49.934   4.216  19.101  0.00  0.00    +0.000 OA
ATOM     10  C   UNL     1      48.894   3.623  18.869  0.00  0.00    +0.000 C 
BRANCH  10  11
ATOM     11  O   UNL     1      48.227   2.905  19.789  0.00  0.00    +0.000 OA
ATOM     12  H   UNL     1      47.329   3.211  20.022  0.00  0.00    +0.000 HD
ENDBRANCH  10  11
ENDBRANCH   1  10
BRANCH   5  13
ATOM     13  C   UNL     1      45.780   4.826  13.452  0.00  0.00    +0.000 C 
BRANCH  13  14
ATOM     14  C   UNL     1      44.551   4.401  12.593  0.00  0.00    +0.000 C 
BRANCH  14  15
ATOM     15  C   UNL     1      44.907   4.193  11.140  0.00  0.00    +0.000 A 
ATOM     16  C   UNL     1      45.349   5.266  10.349  0.00  0.00    +0.000 A 
ATOM     17  C   UNL     1      45.711   5.069   9.019  0.00  0.00    +0.000 A 
ATOM     18  C   UNL     1      45.638   3.789   8.462  0.00  0.00    +0.000 A 
ATOM     19  C   UNL     1      45.211   2.720   9.248  0.00  0.00    +0.000 A 
ATOM     20 CL   UNL     1      45.143   1.139   8.567  0.00  0.00    +0.000 Cl
ATOM     21  C   UNL     1      44.845   2.912  10.577  0.00  0.00    +0.000 A 
ENDBRANCH  14  15
BRANCH  14  22
ATOM     22  O   UNL     1      43.932   3.179  13.009  0.00  0.00    +0.000 OA
ATOM     23  H   UNL     1      43.065   3.140  12.561  0.00  0.00    +0.000 HD
ENDBRANCH  14  22
ENDBRANCH  13  14
ENDBRANCH   5  13
TORSDOF 6
ENDMDL
