MODEL 1
REMARK VINA RESULT:    -7.760      0.000      0.000
REMARK INTER + INTRA:         -10.347
REMARK INTER:                  -9.801
REMARK INTRA:                  -0.546
REMARK UNBOUND:                -0.546
REMARK  Name = 
REMARK  5 active torsions:
REMARK  status: ('A' for Active; 'I' for Inactive)
REMARK    1  A    between atoms: N_1  and  C_2
REMARK    2  A    between atoms: C_2  and  C_3
REMARK    3  A    between atoms: C_3  and  C_4
REMARK    4  A    between atoms: C_7  and  C_8
REMARK    5  A    between atoms: C_8  and  N_9
REMARK                            x       y       z     vdW  Elec       q    Type
REMARK                         _______ _______ _______ _____ _____    ______ ____
ROOT
ATOM      1  C   UNL     1      45.772   2.621   8.245  0.00  0.00    +0.000 A 
ATOM      2  C   UNL     1      44.918   1.993   9.154  0.00  0.00    +0.000 A 
ATOM      3  C   UNL     1      44.170   2.750  10.063  0.00  0.00    +0.000 A 
ATOM      4  C   UNL     1      44.250   4.145  10.070  0.00  0.00    +0.000 A 
ATOM      5  C   UNL     1      45.090   4.776   9.143  0.00  0.00    +0.000 A 
ATOM      6  C   UNL     1      45.837   4.014   8.231  0.00  0.00    +0.000 A 
ENDROOT
BRANCH   1   7
ATOM      7  C   UNL     1      46.630   1.803   7.301  0.00  0.00    +0.000 C 
BRANCH   7   8
ATOM      8  C   UNL     1      47.871   2.545   6.797  0.00  0.00    +0.000 C 
BRANCH   8   9
ATOM      9  N   UNL     1      48.509   1.802   5.708  0.00  0.00    +0.000 NA
ATOM     10  H   UNL     1      48.373   2.302   4.833  0.00  0.00    +0.000 HD
ATOM     11  H   UNL     1      48.051   0.897   5.595  0.00  0.00    +0.000 HD
ENDBRANCH   8   9
ENDBRANCH   7   8
ENDBRANCH   1   7
BRANCH   4  12
ATOM     12  C   UNL     1      43.407   4.965  11.018  0.00  0.00    +0.000 C 
BRANCH  12  13
ATOM     13  N   UNL     1      44.107   6.024  11.735  0.00  0.00    +0.000 N 
ATOM     14  C   UNL     1      44.181   7.334  11.343  0.00  0.00    +0.000 A 
ATOM     15  N   UNL     1      45.270   7.916  11.789  0.00  0.00    +0.000 NA
ATOM     16  C   UNL     1      45.905   6.966  12.545  0.00  0.00    +0.000 A 
ATOM     17  C   UNL     1      47.160   7.015  13.173  0.00  0.00    +0.000 A 
ATOM     18  C   UNL     1      47.597   5.901  13.901  0.00  0.00    +0.000 A 
ATOM     19  C   UNL     1      46.776   4.781  14.036  0.00  0.00    +0.000 A 
ATOM     20 CL   UNL     1      47.325   3.442  14.972  0.00  0.00    +0.000 Cl
ATOM     21  C   UNL     1      45.529   4.702  13.406  0.00  0.00    +0.000 A 
ATOM     22  C   UNL     1      45.141   5.803  12.627  0.00  0.00    +0.000 A 
ENDBRANCH  12  13
ENDBRANCH   4  12
TORSDOF 5
ENDMDL
MODEL 2
REMARK VINA RESULT:    -6.696      2.064      2.819
REMARK INTER + INTRA:          -9.004
REMARK INTER:                  -8.448
REMARK INTRA:                  -0.555
REMARK UNBOUND:                -0.546
REMARK  Name = 
REMARK  5 active torsions:
REMARK  status: ('A' for Active; 'I' for Inactive)
REMARK    1  A    between atoms: N_1  and  C_2
REMARK    2  A    between atoms: C_2  and  C_3
REMARK    3  A    between atoms: C_3  and  C_4
REMARK    4  A    between atoms: C_7  and  C_8
REMARK    5  A    between atoms: C_8  and  N_9
REMARK                            x       y       z     vdW  Elec       q    Type
REMARK                         _______ _______ _______ _____ _____    ______ ____
ROOT
ATOM      1  C   UNL     1      45.855   3.093   7.422  0.00  0.00    +0.000 A 
ATOM      2  C   UNL     1      46.293   4.398   7.658  0.00  0.00    +0.000 A 
ATOM      3  C   UNL     1      45.970   5.049   8.853  0.00  0.00    +0.000 A 
ATOM      4  C   UNL     1      45.219   4.404   9.839  0.00  0.00    +0.000 A 
ATOM      5  C   UNL     1      44.798   3.088   9.612  0.00  0.00    +0.000 A 
ATOM      6  C   UNL     1      45.126   2.436   8.413  0.00  0.00    +0.000 A 
ENDROOT
BRANCH   1   7
ATOM      7  C   UNL     1      46.149   2.406   6.104  0.00  0.00    +0.000 C 
BRANCH   7   8
ATOM      8  C   UNL     1      47.519   2.757   5.517  0.00  0.00    +0.000 C 
BRANCH   8   9
ATOM      9  N   UNL     1      48.549   1.857   6.038  0.00  0.00    +0.000 NA
ATOM     10  H   UNL     1      49.304   1.779   5.361  0.00  0.00    +0.000 HD
ATOM     11  H   UNL     1      48.164   0.919   6.145  0.00  0.00    +0.000 HD
ENDBRANCH   8   9
ENDBRANCH   7   8
ENDBRANCH   1   7
BRANCH   4  12
ATOM     12  C   UNL     1      44.911   5.089  11.150  0.00  0.00    +0.000 C 
BRANCH  12  13
ATOM     13  N   UNL     1      45.891   4.893  12.212  0.00  0.00    +0.000 N 
ATOM     14  C   UNL     1      45.729   4.080  13.301  0.00  0.00    +0.000 A 
ATOM     15  N   UNL     1      46.432   4.495  14.330  0.00  0.00    +0.000 NA
ATOM     16  C   UNL     1      47.121   5.591  13.878  0.00  0.00    +0.000 A 
ATOM     17  C   UNL     1      47.943   6.484  14.585  0.00  0.00    +0.000 A 
ATOM     18  C   UNL     1      48.546   7.541  13.892  0.00  0.00    +0.000 A 
ATOM     19  C   UNL     1      48.368   7.675  12.515  0.00  0.00    +0.000 A 
ATOM     20 CL   UNL     1      49.155   8.964  11.684  0.00  0.00    +0.000 Cl
ATOM     21  C   UNL     1      47.540   6.808  11.792  0.00  0.00    +0.000 A 
ATOM     22  C   UNL     1      46.892   5.797  12.519  0.00  0.00    +0.000 A 
ENDBRANCH  12  13
ENDBRANCH   4  12
TORSDOF 5
ENDMDL
MODEL 3
REMARK VINA RESULT:    -6.542      2.855      6.023
REMARK INTER + INTRA:          -8.808
REMARK INTER:                  -8.548
REMARK INTRA:                  -0.261
REMARK UNBOUND:                -0.546
REMARK  Name = 
REMARK  5 active torsions:
REMARK  status: ('A' for Active; 'I' for Inactive)
REMARK    1  A    between atoms: N_1  and  C_2
REMARK    2  A    between atoms: C_2  and  C_3
REMARK    3  A    between atoms: C_3  and  C_4
REMARK    4  A    between atoms: C_7  and  C_8
REMARK    5  A    between atoms: C_8  and  N_9
REMARK                            x       y       z     vdW  Elec       q    Type
REMARK                         _______ _______ _______ _____ _____    ______ ____
ROOT
ATOM      1  C   UNL     1      47.487   6.750  13.584  0.00  0.00    +0.000 A 
ATOM      2  C   UNL     1      47.085   5.482  13.160  0.00  0.00    +0.000 A 
ATOM      3  C   UNL     1      45.973   5.332  12.325  0.00  0.00    +0.000 A 
ATOM      4  C   UNL     1      45.253   6.447  11.885  0.00  0.00    +0.000 A 
ATOM      5  C   UNL     1      45.669   7.721  12.292  0.00  0.00    +0.000 A 
ATOM      6  C   UNL     1      46.787   7.867  13.128  0.00  0.00    +0.000 A 
ENDROOT
BRANCH   1   7
ATOM      7  C   UNL     1      48.653   6.912  14.538  0.00  0.00    +0.000 C 
BRANCH   7   8
ATOM      8  C   UNL     1      49.815   7.723  13.959  0.00  0.00    +0.000 C 
BRANCH   8   9
ATOM      9  N   UNL     1      50.179   7.226  12.631  0.00  0.00    +0.000 NA
ATOM     10  H   UNL     1      49.777   7.833  11.921  0.00  0.00    +0.000 HD
ATOM     11  H   UNL     1      49.768   6.303  12.484  0.00  0.00    +0.000 HD
ENDBRANCH   8   9
ENDBRANCH   7   8
ENDBRANCH   1   7
BRANCH   4  12
ATOM     12  C   UNL     1      44.082   6.290  10.944  0.00  0.00    +0.000 C 
BRANCH  12  13
ATOM     13  N   UNL     1      43.697   4.918  10.633  0.00  0.00    +0.000 N 
ATOM     14  C   UNL     1      43.023   4.073  11.473  0.00  0.00    +0.000 A 
ATOM     15  N   UNL     1      43.299   2.814  11.223  0.00  0.00    +0.000 NA
ATOM     16  C   UNL     1      44.143   2.835  10.144  0.00  0.00    +0.000 A 
ATOM     17  C   UNL     1      44.827   1.778   9.522  0.00  0.00    +0.000 A 
ATOM     18  C   UNL     1      45.643   2.056   8.418  0.00  0.00    +0.000 A 
ATOM     19  C   UNL     1      45.736   3.356   7.919  0.00  0.00    +0.000 A 
ATOM     20 CL   UNL     1      46.717   3.658   6.535  0.00  0.00    +0.000 Cl
ATOM     21  C   UNL     1      45.078   4.428   8.532  0.00  0.00    +0.000 A 
ATOM     22  C   UNL     1      44.320   4.136   9.677  0.00  0.00    +0.000 A 
ENDBRANCH  12  13
ENDBRANCH   4  12
TORSDOF 5
ENDMDL
MODEL 4
REMARK VINA RESULT:    -6.530      2.785      6.594
REMARK INTER + INTRA:          -8.794
REMARK INTER:                  -8.783
REMARK INTRA:                  -0.011
REMARK UNBOUND:                -0.546
REMARK  Name = 
REMARK  5 active torsions:
REMARK  status: ('A' for Active; 'I' for Inactive)
REMARK    1  A    between atoms: N_1  and  C_2
REMARK    2  A    between atoms: C_2  and  C_3
REMARK    3  A    between atoms: C_3  and  C_4
REMARK    4  A    between atoms: C_7  and  C_8
REMARK    5  A    between atoms: C_8  and  N_9
REMARK                            x       y       z     vdW  Elec       q    Type
REMARK                         _______ _______ _______ _____ _____    ______ ____
ROOT
ATOM      1  C   UNL     1      47.495   5.352  14.879  0.00  0.00    +0.000 A 
ATOM      2  C   UNL     1      46.613   4.402  14.361  0.00  0.00    +0.000 A 
ATOM      3  C   UNL     1      45.887   4.668  13.196  0.00  0.00    +0.000 A 
ATOM      4  C   UNL     1      46.041   5.881  12.518  0.00  0.00    +0.000 A 
ATOM      5  C   UNL     1      46.942   6.826  13.025  0.00  0.00    +0.000 A 
ATOM      6  C   UNL     1      47.671   6.554  14.193  0.00  0.00    +0.000 A 
ENDROOT
BRANCH   1   7
ATOM      7  C   UNL     1      48.237   5.093  16.175  0.00  0.00    +0.000 C 
BRANCH   7   8
ATOM      8  C   UNL     1      47.504   4.142  17.125  0.00  0.00    +0.000 C 
BRANCH   8   9
ATOM      9  N   UNL     1      46.742   4.897  18.122  0.00  0.00    +0.000 NA
ATOM     10  H   UNL     1      47.089   4.673  19.053  0.00  0.00    +0.000 HD
ATOM     11  H   UNL     1      45.765   4.603  18.104  0.00  0.00    +0.000 HD
ENDBRANCH   8   9
ENDBRANCH   7   8
ENDBRANCH   1   7
BRANCH   4  12
ATOM     12  C   UNL     1      45.294   6.150  11.232  0.00  0.00    +0.000 C 
BRANCH  12  13
ATOM     13  N   UNL     1      44.483   5.049  10.728  0.00  0.00    +0.000 N 
ATOM     14  C   UNL     1      43.494   4.408  11.425  0.00  0.00    +0.000 A 
ATOM     15  N   UNL     1      43.334   3.170  11.017  0.00  0.00    +0.000 NA
ATOM     16  C   UNL     1      44.214   3.013   9.979  0.00  0.00    +0.000 A 
ATOM     17  C   UNL     1      44.535   1.861   9.244  0.00  0.00    +0.000 A 
ATOM     18  C   UNL     1      45.480   1.955   8.215  0.00  0.00    +0.000 A 
ATOM     19  C   UNL     1      46.058   3.185   7.898  0.00  0.00    +0.000 A 
ATOM     20 CL   UNL     1      47.188   3.275   6.600  0.00  0.00    +0.000 Cl
ATOM     21  C   UNL     1      45.767   4.344   8.627  0.00  0.00    +0.000 A 
ATOM     22  C   UNL     1      44.868   4.211   9.697  0.00  0.00    +0.000 A 
ENDBRANCH  12  13
ENDBRANCH   4  12
TORSDOF 5
ENDMDL
MODEL 5
REMARK VINA RESULT:    -6.450      2.528      3.274
REMARK INTER + INTRA:          -8.693
REMARK INTER:                  -8.207
REMARK INTRA:                  -0.486
REMARK UNBOUND:                -0.546
REMARK  Name = 
REMARK  5 active torsions:
REMARK  status: ('A' for Active; 'I' for Inactive)
REMARK    1  A    between atoms: N_1  and  C_2
REMARK    2  A    between atoms: C_2  and  C_3
REMARK    3  A    between atoms: C_3  and  C_4
REMARK    4  A    between atoms: C_7  and  C_8
REMARK    5  A    between atoms: C_8  and  N_9
REMARK                            x       y       z     vdW  Elec       q    Type
REMARK                         _______ _______ _______ _____ _____    ______ ____
ROOT
ATOM      1  C   UNL     1      45.941   2.561   7.827  0.00  0.00    +0.000 A 
ATOM      2  C   UNL     1      45.227   1.995   8.885  0.00  0.00    +0.000 A 
ATOM      3  C   UNL     1      44.781   2.790   9.946  0.00  0.00    +0.000 A 
ATOM      4  C   UNL     1      45.027   4.166   9.962  0.00  0.00    +0.000 A 
ATOM      5  C   UNL     1      45.724   4.738   8.890  0.00  0.00    +0.000 A 
ATOM      6  C   UNL     1      46.167   3.937   7.825  0.00  0.00    +0.000 A 
ENDROOT
BRANCH   1   7
ATOM      7  C   UNL     1      46.479   1.694   6.706  0.00  0.00    +0.000 C 
BRANCH   7   8
ATOM      8  C   UNL     1      47.202   2.482   5.610  0.00  0.00    +0.000 C 
BRANCH   8   9
ATOM      9  N   UNL     1      48.566   1.981   5.431  0.00  0.00    +0.000 NA
ATOM     10  H   UNL     1      48.876   2.178   4.482  0.00  0.00    +0.000 HD
ATOM     11  H   UNL     1      48.576   0.965   5.529  0.00  0.00    +0.000 HD
ENDBRANCH   8   9
ENDBRANCH   7   8
ENDBRANCH   1   7
BRANCH   4  12
ATOM     12  C   UNL     1      44.504   5.033  11.083  0.00  0.00    +0.000 C 
BRANCH  12  13
ATOM     13  N   UNL     1      45.402   6.089  11.538  0.00  0.00    +0.000 N 
ATOM     14  C   UNL     1      46.408   5.934  12.453  0.00  0.00    +0.000 A 
ATOM     15  N   UNL     1      46.662   7.053  13.093  0.00  0.00    +0.000 NA
ATOM     16  C   UNL     1      45.827   7.986  12.536  0.00  0.00    +0.000 A 
ATOM     17  C   UNL     1      45.606   9.322  12.906  0.00  0.00    +0.000 A 
ATOM     18  C   UNL     1      44.690  10.085  12.171  0.00  0.00    +0.000 A 
ATOM     19  C   UNL     1      44.043   9.537  11.063  0.00  0.00    +0.000 A 
ATOM     20 CL   UNL     1      42.952  10.514  10.155  0.00  0.00    +0.000 Cl
ATOM     21  C   UNL     1      44.234   8.203  10.685  0.00  0.00    +0.000 A 
ATOM     22  C   UNL     1      45.105   7.439  11.477  0.00  0.00    +0.000 A 
ENDBRANCH  12  13
ENDBRANCH   4  12
TORSDOF 5
ENDMDL
MODEL 6
REMARK VINA RESULT:    -5.523      2.878      6.405
REMARK INTER + INTRA:          -7.521
REMARK INTER:                  -7.020
REMARK INTRA:                  -0.501
REMARK UNBOUND:                -0.546
REMARK  Name = 
REMARK  5 active torsions:
REMARK  status: ('A' for Active; 'I' for Inactive)
REMARK    1  A    between atoms: N_1  and  C_2
REMARK    2  A    between atoms: C_2  and  C_3
REMARK    3  A    between atoms: C_3  and  C_4
REMARK    4  A    between atoms: C_7  and  C_8
REMARK    5  A    between atoms: C_8  and  N_9
REMARK                            x       y       z     vdW  Elec       q    Type
REMARK                         _______ _______ _______ _____ _____    ______ ____
ROOT
ATOM      1  C   UNL     1      46.146   9.220  11.921  0.00  0.00    +0.000 A 
ATOM      2  C   UNL     1      47.211   8.436  12.369  0.00  0.00    +0.000 A 
ATOM      3  C   UNL     1      47.015   7.089  12.691  0.00  0.00    +0.000 A 
ATOM      4  C   UNL     1      45.755   6.497  12.556  0.00  0.00    +0.000 A 
ATOM      5  C   UNL     1      44.692   7.277  12.085  0.00  0.00    +0.000 A 
ATOM      6  C   UNL     1      44.893   8.628  11.760  0.00  0.00    +0.000 A 
ENDROOT
BRANCH   1   7
ATOM      7  C   UNL     1      46.340  10.694  11.629  0.00  0.00    +0.000 C 
BRANCH   7   8
ATOM      8  C   UNL     1      47.763  11.193  11.895  0.00  0.00    +0.000 C 
BRANCH   8   9
ATOM      9  N   UNL     1      48.475  11.414  10.635  0.00  0.00    +0.000 NA
ATOM     10  H   UNL     1      49.477  11.345  10.796  0.00  0.00    +0.000 HD
ATOM     11  H   UNL     1      48.303  12.364  10.305  0.00  0.00    +0.000 HD
ENDBRANCH   8   9
ENDBRANCH   7   8
ENDBRANCH   1   7
BRANCH   4  12
ATOM     12  C   UNL     1      45.553   5.031  12.857  0.00  0.00    +0.000 C 
BRANCH  12  13
ATOM     13  N   UNL     1      44.587   4.338  12.011  0.00  0.00    +0.000 N 
ATOM     14  C   UNL     1      43.559   3.553  12.460  0.00  0.00    +0.000 A 
ATOM     15  N   UNL     1      43.227   2.636  11.581  0.00  0.00    +0.000 NA
ATOM     16  C   UNL     1      44.032   2.866  10.495  0.00  0.00    +0.000 A 
ATOM     17  C   UNL     1      44.171   2.123   9.312  0.00  0.00    +0.000 A 
ATOM     18  C   UNL     1      45.072   2.567   8.336  0.00  0.00    +0.000 A 
ATOM     19  C   UNL     1      45.783   3.753   8.519  0.00  0.00    +0.000 A 
ATOM     20 CL   UNL     1      46.854   4.294   7.282  0.00  0.00    +0.000 Cl
ATOM     21  C   UNL     1      45.674   4.501   9.697  0.00  0.00    +0.000 A 
ATOM     22  C   UNL     1      44.817   4.001  10.689  0.00  0.00    +0.000 A 
ENDBRANCH  12  13
ENDBRANCH   4  12
TORSDOF 5
ENDMDL
MODEL 7
REMARK VINA RESULT:    -5.474      4.449      7.276
REMARK INTER + INTRA:          -7.460
REMARK INTER:                  -7.131
REMARK INTRA:                  -0.329
REMARK UNBOUND:                -0.546
REMARK  Name = 
REMARK  5 active torsions:
REMARK  status: ('A' for Active; 'I' for Inactive)
REMARK    1  A    between atoms: N_1  and  C_2
REMARK    2  A    between atoms: C_2  and  C_3
REMARK    3  A    between atoms: C_3  and  C_4
REMARK    4  A    between atoms: C_7  and  C_8
REMARK    5  A    between atoms: C_8  and  N_9
REMARK                            x       y       z     vdW  Elec       q    Type
REMARK                         _______ _______ _______ _____ _____    ______ ____
ROOT
ATOM      1  C   UNL     1      50.337   3.074  17.427  0.00  0.00    +0.000 A 
ATOM      2  C   UNL     1      49.393   2.250  16.810  0.00  0.00    +0.000 A 
ATOM      3  C   UNL     1      48.264   2.802  16.196  0.00  0.00    +0.000 A 
ATOM      4  C   UNL     1      48.066   4.186  16.173  0.00  0.00    +0.000 A 
ATOM      5  C   UNL     1      49.023   5.013  16.772  0.00  0.00    +0.000 A 
ATOM      6  C   UNL     1      50.157   4.456  17.386  0.00  0.00    +0.000 A 
ENDROOT
BRANCH   1   7
ATOM      7  C   UNL     1      51.530   2.477  18.147  0.00  0.00    +0.000 C 
BRANCH   7   8
ATOM      8  C   UNL     1      52.117   1.246  17.452  0.00  0.00    +0.000 C 
BRANCH   8   9
ATOM      9  N   UNL     1      51.837   0.035  18.225  0.00  0.00    +0.000 NA
ATOM     10  H   UNL     1      52.648  -0.579  18.197  0.00  0.00    +0.000 HD
ATOM     11  H   UNL     1      51.073  -0.482  17.790  0.00  0.00    +0.000 HD
ENDBRANCH   8   9
ENDBRANCH   7   8
ENDBRANCH   1   7
BRANCH   4  12
ATOM     12  C   UNL     1      46.872   4.785  15.468  0.00  0.00    +0.000 C 
BRANCH  12  13
ATOM     13  N   UNL     1      47.096   5.207  14.089  0.00  0.00    +0.000 N 
ATOM     14  C   UNL     1      47.830   6.295  13.701  0.00  0.00    +0.000 A 
ATOM     15  N   UNL     1      47.422   6.772  12.548  0.00  0.00    +0.000 NA
ATOM     16  C   UNL     1      46.420   5.930  12.141  0.00  0.00    +0.000 A 
ATOM     17  C   UNL     1      45.567   6.026  11.030  0.00  0.00    +0.000 A 
ATOM     18  C   UNL     1      44.609   5.025  10.824  0.00  0.00    +0.000 A 
ATOM     19  C   UNL     1      44.537   3.930  11.685  0.00  0.00    +0.000 A 
ATOM     20 CL   UNL     1      43.373   2.695  11.381  0.00  0.00    +0.000 Cl
ATOM     21  C   UNL     1      45.364   3.821  12.808  0.00  0.00    +0.000 A 
ATOM     22  C   UNL     1      46.270   4.869  13.032  0.00  0.00    +0.000 A 
ENDBRANCH  12  13
ENDBRANCH   4  12
TORSDOF 5
ENDMDL
MODEL 8
REMARK VINA RESULT:    -5.232      3.272      5.259
REMARK INTER + INTRA:          -7.154
REMARK INTER:                  -6.678
REMARK INTRA:                  -0.476
REMARK UNBOUND:                -0.546
REMARK  Name = 
REMARK  5 active torsions:
REMARK  status: ('A' for Active; 'I' for Inactive)
REMARK    1  A    between atoms: N_1  and  C_2
REMARK    2  A    between atoms: C_2  and  C_3
REMARK    3  A    between atoms: C_3  and  C_4
REMARK    4  A    between atoms: C_7  and  C_8
REMARK    5  A    between atoms: C_8  and  N_9
REMARK                            x       y       z     vdW  Elec       q    Type
REMARK                         _______ _______ _______ _____ _____    ______ ____
ROOT
ATOM      1  C   UNL     1      44.987   5.012  11.718  0.00  0.00    +0.000 A 
ATOM      2  C   UNL     1      45.624   6.100  11.118  0.00  0.00    +0.000 A 
ATOM      3  C   UNL     1      46.766   6.662  11.699  0.00  0.00    +0.000 A 
ATOM      4  C   UNL     1      47.300   6.138  12.880  0.00  0.00    +0.000 A 
ATOM      5  C   UNL     1      46.674   5.033  13.470  0.00  0.00    +0.000 A 
ATOM      6  C   UNL     1      45.530   4.470  12.882  0.00  0.00    +0.000 A 
ENDROOT
BRANCH   1   7
ATOM      7  C   UNL     1      43.715   4.439  11.126  0.00  0.00    +0.000 C 
BRANCH   7   8
ATOM      8  C   UNL     1      43.825   2.961  10.742  0.00  0.00    +0.000 C 
BRANCH   8   9
ATOM      9  N   UNL     1      43.034   2.132  11.652  0.00  0.00    +0.000 NA
ATOM     10  H   UNL     1      42.849   2.650  12.507  0.00  0.00    +0.000 HD
ATOM     11  H   UNL     1      43.574   1.311  11.927  0.00  0.00    +0.000 HD
ENDBRANCH   8   9
ENDBRANCH   7   8
ENDBRANCH   1   7
BRANCH   4  12
ATOM     12  C   UNL     1      48.561   6.714  13.481  0.00  0.00    +0.000 C 
BRANCH  12  13
ATOM     13  N   UNL     1      48.394   7.419  14.747  0.00  0.00    +0.000 N 
ATOM     14  C   UNL     1      48.369   8.779  14.901  0.00  0.00    +0.000 A 
ATOM     15  N   UNL     1      48.777   9.142  16.094  0.00  0.00    +0.000 NA
ATOM     16  C   UNL     1      49.027   7.973  16.764  0.00  0.00    +0.000 A 
ATOM     17  C   UNL     1      49.580   7.772  18.039  0.00  0.00    +0.000 A 
ATOM     18  C   UNL     1      49.736   6.463  18.511  0.00  0.00    +0.000 A 
ATOM     19  C   UNL     1      49.307   5.380  17.743  0.00  0.00    +0.000 A 
ATOM     20 CL   UNL     1      49.477   3.783  18.369  0.00  0.00    +0.000 Cl
ATOM     21  C   UNL     1      48.769   5.554  16.463  0.00  0.00    +0.000 A 
ATOM     22  C   UNL     1      48.684   6.870  15.984  0.00  0.00    +0.000 A 
ENDBRANCH  12  13
ENDBRANCH   4  12
TORSDOF 5
ENDMDL
MODEL 9
REMARK VINA RESULT:    -5.227      3.103      6.402
REMARK INTER + INTRA:          -7.147
REMARK INTER:                  -6.579
REMARK INTRA:                  -0.568
REMARK UNBOUND:                -0.546
REMARK  Name = 
REMARK  5 active torsions:
REMARK  status: ('A' for Active; 'I' for Inactive)
REMARK    1  A    between atoms: N_1  and  C_2
REMARK    2  A    between atoms: C_2  and  C_3
REMARK    3  A    between atoms: C_3  and  C_4
REMARK    4  A    between atoms: C_7  and  C_8
REMARK    5  A    between atoms: C_8  and  N_9
REMARK                            x       y       z     vdW  Elec       q    Type
REMARK                         _______ _______ _______ _____ _____    ______ ____
ROOT
ATOM      1  C   UNL     1      49.315   8.016  13.264  0.00  0.00    +0.000 A 
ATOM      2  C   UNL     1      49.146   7.395  12.025  0.00  0.00    +0.000 A 
ATOM      3  C   UNL     1      47.869   7.256  11.470  0.00  0.00    +0.000 A 
ATOM      4  C   UNL     1      46.742   7.749  12.134  0.00  0.00    +0.000 A 
ATOM      5  C   UNL     1      46.914   8.391  13.366  0.00  0.00    +0.000 A 
ATOM      6  C   UNL     1      48.196   8.531  13.920  0.00  0.00    +0.000 A 
ENDROOT
BRANCH   1   7
ATOM      7  C   UNL     1      50.687   8.114  13.899  0.00  0.00    +0.000 C 
BRANCH   7   8
ATOM      8  C   UNL     1      50.687   7.874  15.411  0.00  0.00    +0.000 C 
BRANCH   8   9
ATOM      9  N   UNL     1      51.066   6.493  15.714  0.00  0.00    +0.000 NA
ATOM     10  H   UNL     1      50.244   5.896  15.659  0.00  0.00    +0.000 HD
ATOM     11  H   UNL     1      51.400   6.431  16.676  0.00  0.00    +0.000 HD
ENDBRANCH   8   9
ENDBRANCH   7   8
ENDBRANCH   1   7
BRANCH   4  12
ATOM     12  C   UNL     1      45.369   7.642  11.512  0.00  0.00    +0.000 C 
BRANCH  12  13
ATOM     13  N   UNL     1      44.676   6.376  11.719  0.00  0.00    +0.000 N 
ATOM     14  C   UNL     1      44.228   5.904  12.923  0.00  0.00    +0.000 A 
ATOM     15  N   UNL     1      44.180   4.592  12.945  0.00  0.00    +0.000 NA
ATOM     16  C   UNL     1      44.560   4.194  11.689  0.00  0.00    +0.000 A 
ATOM     17  C   UNL     1      44.782   2.901  11.190  0.00  0.00    +0.000 A 
ATOM     18  C   UNL     1      45.169   2.749   9.852  0.00  0.00    +0.000 A 
ATOM     19  C   UNL     1      45.286   3.863   9.021  0.00  0.00    +0.000 A 
ATOM     20 CL   UNL     1      45.725   3.640   7.369  0.00  0.00    +0.000 Cl
ATOM     21  C   UNL     1      45.087   5.163   9.500  0.00  0.00    +0.000 A 
ATOM     22  C   UNL     1      44.766   5.295  10.860  0.00  0.00    +0.000 A 
ENDBRANCH  12  13
ENDBRANCH   4  12
TORSDOF 5
ENDMDL
