MODEL 1
REMARK VINA RESULT:    -7.591      0.000      0.000
REMARK INTER + INTRA:          -9.252
REMARK INTER:                  -8.922
REMARK INTRA:                  -0.330
REMARK UNBOUND:                -0.330
REMARK  Name = 
REMARK  4 active torsions:
REMARK  status: ('A' for Active; 'I' for Inactive)
REMARK    1  A    between atoms: C_1  and  C_2
REMARK    2  A    between atoms: C_4  and  C_5
REMARK    3  A    between atoms: C_10  and  C_11
REMARK    4  A    between atoms: C_11  and  C_12
REMARK                            x       y       z     vdW  Elec       q    Type
REMARK                         _______ _______ _______ _____ _____    ______ ____
ROOT
ATOM      1  C   UNL     1      47.120   4.668  15.401  0.00  0.00    +0.000 C 
ATOM      2  C   UNL     1      46.908   5.172  13.996  0.00  0.00    +0.000 A 
ATOM      3  C   UNL     1      47.562   6.271  13.559  0.00  0.00    +0.000 A 
ATOM      4  C   UNL     1      47.394   6.819  12.214  0.00  0.00    +0.000 A 
ATOM      5  C   UNL     1      46.552   6.188  11.372  0.00  0.00    +0.000 A 
ATOM      6  N   UNL     1      45.873   5.048  11.802  0.00  0.00    +0.000 N 
ATOM      7  C   UNL     1      44.974   4.228  11.139  0.00  0.00    +0.000 A 
ATOM      8  C   UNL     1      44.646   3.247  12.054  0.00  0.00    +0.000 A 
ATOM      9  N   UNL     1      45.280   3.440  13.247  0.00  0.00    +0.000 NA
ATOM     10  C   UNL     1      46.019   4.514  13.081  0.00  0.00    +0.000 A 
ENDROOT
BRANCH   4  11
ATOM     11  C   UNL     1      48.197   8.026  11.822  0.00  0.00    +0.000 C 
ATOM     12  N   UNL     1      49.477   7.822  11.405  0.00  0.00    +0.000 N 
ATOM     13  O   UNL     1      47.726   9.155  11.831  0.00  0.00    +0.000 OA
ATOM     14  H   UNL     1      49.888   6.920  11.239  0.00  0.00    +0.000 HD
ATOM     15  H   UNL     1      49.972   8.639  11.071  0.00  0.00    +0.000 HD
ENDBRANCH   4  11
BRANCH   7  16
ATOM     16  C   UNL     1      44.507   4.403   9.732  0.00  0.00    +0.000 C 
BRANCH  16  17
ATOM     17  C   UNL     1      45.315   3.579   8.757  0.00  0.00    +0.000 A 
ATOM     18  C   UNL     1      45.404   2.185   8.900  0.00  0.00    +0.000 A 
ATOM     19  C   UNL     1      46.210   1.436   8.044  0.00  0.00    +0.000 A 
ATOM     20  C   UNL     1      46.980   2.074   7.073  0.00  0.00    +0.000 A 
ATOM     21  C   UNL     1      46.908   3.456   6.929  0.00  0.00    +0.000 A 
ATOM     22  C   UNL     1      46.051   4.199   7.739  0.00  0.00    +0.000 A 
ENDBRANCH  16  17
ENDBRANCH   7  16
TORSDOF 3
ENDMDL
MODEL 2
REMARK VINA RESULT:    -7.239      2.410      3.161
REMARK INTER + INTRA:          -8.839
REMARK INTER:                  -8.758
REMARK INTRA:                  -0.081
REMARK UNBOUND:                -0.330
REMARK  Name = 
REMARK  4 active torsions:
REMARK  status: ('A' for Active; 'I' for Inactive)
REMARK    1  A    between atoms: C_1  and  C_2
REMARK    2  A    between atoms: C_4  and  C_5
REMARK    3  A    between atoms: C_10  and  C_11
REMARK    4  A    between atoms: C_11  and  C_12
REMARK                            x       y       z     vdW  Elec       q    Type
REMARK                         _______ _______ _______ _____ _____    ______ ____
ROOT
ATOM      1  C   UNL     1      44.775   7.972  12.516  0.00  0.00    +0.000 C 
ATOM      2  C   UNL     1      45.132   6.509  12.445  0.00  0.00    +0.000 A 
ATOM      3  C   UNL     1      45.890   5.944  13.411  0.00  0.00    +0.000 A 
ATOM      4  C   UNL     1      46.281   4.535  13.398  0.00  0.00    +0.000 A 
ATOM      5  C   UNL     1      45.856   3.768  12.376  0.00  0.00    +0.000 A 
ATOM      6  N   UNL     1      45.066   4.331  11.373  0.00  0.00    +0.000 N 
ATOM      7  C   UNL     1      44.506   3.764  10.239  0.00  0.00    +0.000 A 
ATOM      8  C   UNL     1      43.815   4.794   9.631  0.00  0.00    +0.000 A 
ATOM      9  N   UNL     1      43.944   5.963  10.323  0.00  0.00    +0.000 NA
ATOM     10  C   UNL     1      44.687   5.672  11.368  0.00  0.00    +0.000 A 
ENDROOT
BRANCH   4  11
ATOM     11  C   UNL     1      47.097   4.003  14.541  0.00  0.00    +0.000 C 
ATOM     12  N   UNL     1      47.247   4.803  15.633  0.00  0.00    +0.000 N 
ATOM     13  O   UNL     1      47.586   2.882  14.529  0.00  0.00    +0.000 OA
ATOM     14  H   UNL     1      46.767   5.674  15.775  0.00  0.00    +0.000 HD
ATOM     15  H   UNL     1      47.733   4.394  16.421  0.00  0.00    +0.000 HD
ENDBRANCH   4  11
BRANCH   7  16
ATOM     16  C   UNL     1      44.638   2.338   9.821  0.00  0.00    +0.000 C 
BRANCH  16  17
ATOM     17  C   UNL     1      45.558   2.174   8.634  0.00  0.00    +0.000 A 
ATOM     18  C   UNL     1      46.084   0.915   8.305  0.00  0.00    +0.000 A 
ATOM     19  C   UNL     1      46.992   0.780   7.255  0.00  0.00    +0.000 A 
ATOM     20  C   UNL     1      47.427   1.906   6.559  0.00  0.00    +0.000 A 
ATOM     21  C   UNL     1      46.921   3.161   6.883  0.00  0.00    +0.000 A 
ATOM     22  C   UNL     1      45.962   3.289   7.887  0.00  0.00    +0.000 A 
ENDBRANCH  16  17
ENDBRANCH   7  16
TORSDOF 3
ENDMDL
MODEL 3
REMARK VINA RESULT:    -7.178      1.974      2.531
REMARK INTER + INTRA:          -8.767
REMARK INTER:                  -8.301
REMARK INTRA:                  -0.466
REMARK UNBOUND:                -0.330
REMARK  Name = 
REMARK  4 active torsions:
REMARK  status: ('A' for Active; 'I' for Inactive)
REMARK    1  A    between atoms: C_1  and  C_2
REMARK    2  A    between atoms: C_4  and  C_5
REMARK    3  A    between atoms: C_10  and  C_11
REMARK    4  A    between atoms: C_11  and  C_12
REMARK                            x       y       z     vdW  Elec       q    Type
REMARK                         _______ _______ _______ _____ _____    ______ ____
ROOT
ATOM      1  C   UNL     1      49.117   7.296  14.716  0.00  0.00    +0.000 C 
ATOM      2  C   UNL     1      47.840   7.251  13.917  0.00  0.00    +0.000 A 
ATOM      3  C   UNL     1      47.279   8.394  13.461  0.00  0.00    +0.000 A 
ATOM      4  C   UNL     1      46.037   8.423  12.690  0.00  0.00    +0.000 A 
ATOM      5  C   UNL     1      45.432   7.250  12.417  0.00  0.00    +0.000 A 
ATOM      6  N   UNL     1      46.000   6.059  12.871  0.00  0.00    +0.000 N 
ATOM      7  C   UNL     1      45.585   4.745  12.720  0.00  0.00    +0.000 A 
ATOM      8  C   UNL     1      46.547   3.993  13.364  0.00  0.00    +0.000 A 
ATOM      9  N   UNL     1      47.513   4.780  13.920  0.00  0.00    +0.000 NA
ATOM     10  C   UNL     1      47.181   6.014  13.610  0.00  0.00    +0.000 A 
ENDROOT
BRANCH   4  11
ATOM     11  C   UNL     1      45.521   9.747  12.204  0.00  0.00    +0.000 C 
ATOM     12  N   UNL     1      44.230  10.063  12.497  0.00  0.00    +0.000 N 
ATOM     13  O   UNL     1      46.227  10.542  11.600  0.00  0.00    +0.000 OA
ATOM     14  H   UNL     1      43.631   9.529  13.102  0.00  0.00    +0.000 HD
ATOM     15  H   UNL     1      43.927  10.992  12.229  0.00  0.00    +0.000 HD
ENDBRANCH   4  11
BRANCH   7  16
ATOM     16  C   UNL     1      44.362   4.295  11.993  0.00  0.00    +0.000 C 
BRANCH  16  17
ATOM     17  C   UNL     1      44.665   3.876  10.574  0.00  0.00    +0.000 A 
ATOM     18  C   UNL     1      44.484   2.545  10.167  0.00  0.00    +0.000 A 
ATOM     19  C   UNL     1      44.836   2.145   8.878  0.00  0.00    +0.000 A 
ATOM     20  C   UNL     1      45.423   3.054   8.000  0.00  0.00    +0.000 A 
ATOM     21  C   UNL     1      45.617   4.374   8.396  0.00  0.00    +0.000 A 
ATOM     22  C   UNL     1      45.203   4.792   9.660  0.00  0.00    +0.000 A 
ENDBRANCH  16  17
ENDBRANCH   7  16
TORSDOF 3
ENDMDL
MODEL 4
REMARK VINA RESULT:    -7.015      2.217      3.505
REMARK INTER + INTRA:          -8.575
REMARK INTER:                  -8.184
REMARK INTRA:                  -0.391
REMARK UNBOUND:                -0.330
REMARK  Name = 
REMARK  4 active torsions:
REMARK  status: ('A' for Active; 'I' for Inactive)
REMARK    1  A    between atoms: C_1  and  C_2
REMARK    2  A    between atoms: C_4  and  C_5
REMARK    3  A    between atoms: C_10  and  C_11
REMARK    4  A    between atoms: C_11  and  C_12
REMARK                            x       y       z     vdW  Elec       q    Type
REMARK                         _______ _______ _______ _____ _____    ______ ____
ROOT
ATOM      1  C   UNL     1      48.264   8.545  13.878  0.00  0.00    +0.000 C 
ATOM      2  C   UNL     1      47.456   7.286  13.698  0.00  0.00    +0.000 A 
ATOM      3  C   UNL     1      47.701   6.202  14.466  0.00  0.00    +0.000 A 
ATOM      4  C   UNL     1      46.963   4.946  14.336  0.00  0.00    +0.000 A 
ATOM      5  C   UNL     1      45.987   4.877  13.409  0.00  0.00    +0.000 A 
ATOM      6  N   UNL     1      45.714   5.988  12.611  0.00  0.00    +0.000 N 
ATOM      7  C   UNL     1      44.774   6.171  11.609  0.00  0.00    +0.000 A 
ATOM      8  C   UNL     1      44.954   7.474  11.188  0.00  0.00    +0.000 A 
ATOM      9  N   UNL     1      45.969   8.086  11.864  0.00  0.00    +0.000 NA
ATOM     10  C   UNL     1      46.410   7.191  12.719  0.00  0.00    +0.000 A 
ENDROOT
BRANCH   4  11
ATOM     11  C   UNL     1      47.295   3.815  15.266  0.00  0.00    +0.000 C 
ATOM     12  N   UNL     1      46.885   3.923  16.560  0.00  0.00    +0.000 N 
ATOM     13  O   UNL     1      47.876   2.807  14.888  0.00  0.00    +0.000 OA
ATOM     14  H   UNL     1      46.288   4.650  16.913  0.00  0.00    +0.000 HD
ATOM     15  H   UNL     1      47.050   3.116  17.148  0.00  0.00    +0.000 HD
ENDBRANCH   4  11
BRANCH   7  16
ATOM     16  C   UNL     1      43.791   5.152  11.138  0.00  0.00    +0.000 C 
BRANCH  16  17
ATOM     17  C   UNL     1      44.380   4.232  10.094  0.00  0.00    +0.000 A 
ATOM     18  C   UNL     1      44.158   2.847  10.156  0.00  0.00    +0.000 A 
ATOM     19  C   UNL     1      44.765   1.992   9.235  0.00  0.00    +0.000 A 
ATOM     20  C   UNL     1      45.642   2.503   8.281  0.00  0.00    +0.000 A 
ATOM     21  C   UNL     1      45.878   3.873   8.217  0.00  0.00    +0.000 A 
ATOM     22  C   UNL     1      45.220   4.735   9.092  0.00  0.00    +0.000 A 
ENDBRANCH  16  17
ENDBRANCH   7  16
TORSDOF 3
ENDMDL
MODEL 5
REMARK VINA RESULT:    -6.974      1.857      2.578
REMARK INTER + INTRA:          -8.527
REMARK INTER:                  -8.182
REMARK INTRA:                  -0.346
REMARK UNBOUND:                -0.330
REMARK  Name = 
REMARK  4 active torsions:
REMARK  status: ('A' for Active; 'I' for Inactive)
REMARK    1  A    between atoms: C_1  and  C_2
REMARK    2  A    between atoms: C_4  and  C_5
REMARK    3  A    between atoms: C_10  and  C_11
REMARK    4  A    between atoms: C_11  and  C_12
REMARK                            x       y       z     vdW  Elec       q    Type
REMARK                         _______ _______ _______ _____ _____    ______ ____
ROOT
ATOM      1  C   UNL     1      44.680   9.646  12.253  0.00  0.00    +0.000 C 
ATOM      2  C   UNL     1      45.297   8.273  12.187  0.00  0.00    +0.000 A 
ATOM      3  C   UNL     1      46.558   8.070  12.630  0.00  0.00    +0.000 A 
ATOM      4  C   UNL     1      47.222   6.768  12.585  0.00  0.00    +0.000 A 
ATOM      5  C   UNL     1      46.534   5.722  12.084  0.00  0.00    +0.000 A 
ATOM      6  N   UNL     1      45.229   5.910  11.628  0.00  0.00    +0.000 N 
ATOM      7  C   UNL     1      44.324   5.012  11.085  0.00  0.00    +0.000 A 
ATOM      8  C   UNL     1      43.188   5.758  10.838  0.00  0.00    +0.000 A 
ATOM      9  N   UNL     1      43.362   7.067  11.180  0.00  0.00    +0.000 NA
ATOM     10  C   UNL     1      44.583   7.145  11.661  0.00  0.00    +0.000 A 
ENDROOT
BRANCH   4  11
ATOM     11  C   UNL     1      48.613   6.648  13.137  0.00  0.00    +0.000 C 
ATOM     12  N   UNL     1      49.647   6.955  12.306  0.00  0.00    +0.000 N 
ATOM     13  O   UNL     1      48.831   6.325  14.297  0.00  0.00    +0.000 OA
ATOM     14  H   UNL     1      49.547   7.357  11.391  0.00  0.00    +0.000 HD
ATOM     15  H   UNL     1      50.570   6.944  12.722  0.00  0.00    +0.000 HD
ENDBRANCH   4  11
BRANCH   7  16
ATOM     16  C   UNL     1      44.569   3.558  10.855  0.00  0.00    +0.000 C 
BRANCH  16  17
ATOM     17  C   UNL     1      45.192   3.292   9.504  0.00  0.00    +0.000 A 
ATOM     18  C   UNL     1      45.454   1.979   9.084  0.00  0.00    +0.000 A 
ATOM     19  C   UNL     1      46.098   1.739   7.870  0.00  0.00    +0.000 A 
ATOM     20  C   UNL     1      46.537   2.807   7.090  0.00  0.00    +0.000 A 
ATOM     21  C   UNL     1      46.292   4.114   7.502  0.00  0.00    +0.000 A 
ATOM     22  C   UNL     1      45.589   4.354   8.681  0.00  0.00    +0.000 A 
ENDBRANCH  16  17
ENDBRANCH   7  16
TORSDOF 3
ENDMDL
MODEL 6
REMARK VINA RESULT:    -6.093      2.625      5.752
REMARK INTER + INTRA:          -7.492
REMARK INTER:                  -7.006
REMARK INTRA:                  -0.487
REMARK UNBOUND:                -0.330
REMARK  Name = 
REMARK  4 active torsions:
REMARK  status: ('A' for Active; 'I' for Inactive)
REMARK    1  A    between atoms: C_1  and  C_2
REMARK    2  A    between atoms: C_4  and  C_5
REMARK    3  A    between atoms: C_10  and  C_11
REMARK    4  A    between atoms: C_11  and  C_12
REMARK                            x       y       z     vdW  Elec       q    Type
REMARK                         _______ _______ _______ _____ _____    ______ ____
ROOT
ATOM      1  C   UNL     1      43.250   2.020  11.758  0.00  0.00    +0.000 C 
ATOM      2  C   UNL     1      44.053   3.113  11.102  0.00  0.00    +0.000 A 
ATOM      3  C   UNL     1      44.670   2.891   9.920  0.00  0.00    +0.000 A 
ATOM      4  C   UNL     1      45.473   3.903   9.234  0.00  0.00    +0.000 A 
ATOM      5  C   UNL     1      45.592   5.115   9.810  0.00  0.00    +0.000 A 
ATOM      6  N   UNL     1      44.957   5.367  11.026  0.00  0.00    +0.000 N 
ATOM      7  C   UNL     1      44.919   6.512  11.806  0.00  0.00    +0.000 A 
ATOM      8  C   UNL     1      44.124   6.180  12.885  0.00  0.00    +0.000 A 
ATOM      9  N   UNL     1      43.695   4.887  12.816  0.00  0.00    +0.000 NA
ATOM     10  C   UNL     1      44.191   4.413  11.695  0.00  0.00    +0.000 A 
ENDROOT
BRANCH   4  11
ATOM     11  C   UNL     1      46.086   3.559   7.907  0.00  0.00    +0.000 C 
ATOM     12  N   UNL     1      46.303   2.243   7.637  0.00  0.00    +0.000 N 
ATOM     13  O   UNL     1      46.352   4.411   7.070  0.00  0.00    +0.000 OA
ATOM     14  H   UNL     1      45.988   1.480   8.210  0.00  0.00    +0.000 HD
ATOM     15  H   UNL     1      46.643   2.029   6.707  0.00  0.00    +0.000 HD
ENDBRANCH   4  11
BRANCH   7  16
ATOM     16  C   UNL     1      45.596   7.804  11.491  0.00  0.00    +0.000 C 
BRANCH  16  17
ATOM     17  C   UNL     1      46.897   7.964  12.243  0.00  0.00    +0.000 A 
ATOM     18  C   UNL     1      48.049   7.274  11.833  0.00  0.00    +0.000 A 
ATOM     19  C   UNL     1      49.229   7.365  12.572  0.00  0.00    +0.000 A 
ATOM     20  C   UNL     1      49.255   8.097  13.757  0.00  0.00    +0.000 A 
ATOM     21  C   UNL     1      48.116   8.776  14.179  0.00  0.00    +0.000 A 
ATOM     22  C   UNL     1      46.957   8.743  13.406  0.00  0.00    +0.000 A 
ENDBRANCH  16  17
ENDBRANCH   7  16
TORSDOF 3
ENDMDL
MODEL 7
REMARK VINA RESULT:    -5.925      3.614      7.346
REMARK INTER + INTRA:          -7.294
REMARK INTER:                  -6.803
REMARK INTRA:                  -0.491
REMARK UNBOUND:                -0.330
REMARK  Name = 
REMARK  4 active torsions:
REMARK  status: ('A' for Active; 'I' for Inactive)
REMARK    1  A    between atoms: C_1  and  C_2
REMARK    2  A    between atoms: C_4  and  C_5
REMARK    3  A    between atoms: C_10  and  C_11
REMARK    4  A    between atoms: C_11  and  C_12
REMARK                            x       y       z     vdW  Elec       q    Type
REMARK                         _______ _______ _______ _____ _____    ______ ____
ROOT
ATOM      1  C   UNL     1      48.955   7.982  11.625  0.00  0.00    +0.000 C 
ATOM      2  C   UNL     1      48.426   7.084  12.713  0.00  0.00    +0.000 A 
ATOM      3  C   UNL     1      47.368   6.276  12.477  0.00  0.00    +0.000 A 
ATOM      4  C   UNL     1      46.798   5.389  13.490  0.00  0.00    +0.000 A 
ATOM      5  C   UNL     1      47.364   5.375  14.713  0.00  0.00    +0.000 A 
ATOM      6  N   UNL     1      48.462   6.195  14.974  0.00  0.00    +0.000 N 
ATOM      7  C   UNL     1      49.215   6.358  16.126  0.00  0.00    +0.000 A 
ATOM      8  C   UNL     1      50.181   7.286  15.791  0.00  0.00    +0.000 A 
ATOM      9  N   UNL     1      50.040   7.716  14.504  0.00  0.00    +0.000 NA
ATOM     10  C   UNL     1      49.015   7.049  14.021  0.00  0.00    +0.000 A 
ENDROOT
BRANCH   4  11
ATOM     11  C   UNL     1      45.642   4.508  13.109  0.00  0.00    +0.000 C 
ATOM     12  N   UNL     1      45.894   3.182  12.932  0.00  0.00    +0.000 N 
ATOM     13  O   UNL     1      44.503   4.938  12.996  0.00  0.00    +0.000 OA
ATOM     14  H   UNL     1      46.768   2.732  13.140  0.00  0.00    +0.000 HD
ATOM     15  H   UNL     1      45.088   2.596  12.754  0.00  0.00    +0.000 HD
ENDBRANCH   4  11
BRANCH   7  16
ATOM     16  C   UNL     1      48.997   5.644  17.418  0.00  0.00    +0.000 C 
BRANCH  16  17
ATOM     17  C   UNL     1      49.720   4.318  17.466  0.00  0.00    +0.000 A 
ATOM     18  C   UNL     1      51.083   4.260  17.797  0.00  0.00    +0.000 A 
ATOM     19  C   UNL     1      51.767   3.044  17.768  0.00  0.00    +0.000 A 
ATOM     20  C   UNL     1      51.113   1.885  17.354  0.00  0.00    +0.000 A 
ATOM     21  C   UNL     1      49.764   1.933  17.013  0.00  0.00    +0.000 A 
ATOM     22  C   UNL     1      49.063   3.134  17.108  0.00  0.00    +0.000 A 
ENDBRANCH  16  17
ENDBRANCH   7  16
TORSDOF 3
ENDMDL
MODEL 8
REMARK VINA RESULT:    -5.825      2.788      5.497
REMARK INTER + INTRA:          -7.177
REMARK INTER:                  -6.980
REMARK INTRA:                  -0.197
REMARK UNBOUND:                -0.330
REMARK  Name = 
REMARK  4 active torsions:
REMARK  status: ('A' for Active; 'I' for Inactive)
REMARK    1  A    between atoms: C_1  and  C_2
REMARK    2  A    between atoms: C_4  and  C_5
REMARK    3  A    between atoms: C_10  and  C_11
REMARK    4  A    between atoms: C_11  and  C_12
REMARK                            x       y       z     vdW  Elec       q    Type
REMARK                         _______ _______ _______ _____ _____    ______ ____
ROOT
ATOM      1  C   UNL     1      43.770   3.122  11.033  0.00  0.00    +0.000 C 
ATOM      2  C   UNL     1      44.399   4.372  11.595  0.00  0.00    +0.000 A 
ATOM      3  C   UNL     1      43.951   5.590  11.217  0.00  0.00    +0.000 A 
ATOM      4  C   UNL     1      44.521   6.841  11.714  0.00  0.00    +0.000 A 
ATOM      5  C   UNL     1      45.537   6.769  12.597  0.00  0.00    +0.000 A 
ATOM      6  N   UNL     1      46.009   5.521  13.005  0.00  0.00    +0.000 N 
ATOM      7  C   UNL     1      47.019   5.183  13.891  0.00  0.00    +0.000 A 
ATOM      8  C   UNL     1      47.024   3.802  13.914  0.00  0.00    +0.000 A 
ATOM      9  N   UNL     1      46.087   3.282  13.070  0.00  0.00    +0.000 NA
ATOM     10  C   UNL     1      45.479   4.319  12.539  0.00  0.00    +0.000 A 
ENDROOT
BRANCH   4  11
ATOM     11  C   UNL     1      43.923   8.139  11.253  0.00  0.00    +0.000 C 
ATOM     12  N   UNL     1      42.590   8.155  10.979  0.00  0.00    +0.000 N 
ATOM     13  O   UNL     1      44.583   9.165  11.159  0.00  0.00    +0.000 OA
ATOM     14  H   UNL     1      41.958   7.396  11.162  0.00  0.00    +0.000 HD
ATOM     15  H   UNL     1      42.194   9.057  10.747  0.00  0.00    +0.000 HD
ENDBRANCH   4  11
BRANCH   7  16
ATOM     16  C   UNL     1      47.875   6.144  14.646  0.00  0.00    +0.000 C 
BRANCH  16  17
ATOM     17  C   UNL     1      48.536   7.154  13.738  0.00  0.00    +0.000 A 
ATOM     18  C   UNL     1      48.512   8.521  14.052  0.00  0.00    +0.000 A 
ATOM     19  C   UNL     1      49.058   9.459  13.174  0.00  0.00    +0.000 A 
ATOM     20  C   UNL     1      49.582   9.047  11.950  0.00  0.00    +0.000 A 
ATOM     21  C   UNL     1      49.601   7.694  11.624  0.00  0.00    +0.000 A 
ATOM     22  C   UNL     1      49.119   6.750  12.529  0.00  0.00    +0.000 A 
ENDBRANCH  16  17
ENDBRANCH   7  16
TORSDOF 3
ENDMDL
MODEL 9
REMARK VINA RESULT:    -5.787      2.615      6.360
REMARK INTER + INTRA:          -7.132
REMARK INTER:                  -7.395
REMARK INTRA:                   0.263
REMARK UNBOUND:                -0.330
REMARK  Name = 
REMARK  4 active torsions:
REMARK  status: ('A' for Active; 'I' for Inactive)
REMARK    1  A    between atoms: C_1  and  C_2
REMARK    2  A    between atoms: C_4  and  C_5
REMARK    3  A    between atoms: C_10  and  C_11
REMARK    4  A    between atoms: C_11  and  C_12
REMARK                            x       y       z     vdW  Elec       q    Type
REMARK                         _______ _______ _______ _____ _____    ______ ____
ROOT
ATOM      1  C   UNL     1      44.012   3.704  10.567  0.00  0.00    +0.000 C 
ATOM      2  C   UNL     1      44.676   4.782  11.385  0.00  0.00    +0.000 A 
ATOM      3  C   UNL     1      44.411   6.085  11.141  0.00  0.00    +0.000 A 
ATOM      4  C   UNL     1      45.027   7.180  11.889  0.00  0.00    +0.000 A 
ATOM      5  C   UNL     1      45.895   6.868  12.871  0.00  0.00    +0.000 A 
ATOM      6  N   UNL     1      46.176   5.529  13.144  0.00  0.00    +0.000 N 
ATOM      7  C   UNL     1      47.011   4.955  14.090  0.00  0.00    +0.000 A 
ATOM      8  C   UNL     1      46.874   3.594  13.905  0.00  0.00    +0.000 A 
ATOM      9  N   UNL     1      46.019   3.308  12.881  0.00  0.00    +0.000 NA
ATOM     10  C   UNL     1      45.600   4.473  12.439  0.00  0.00    +0.000 A 
ENDROOT
BRANCH   4  11
ATOM     11  C   UNL     1      44.634   8.591  11.557  0.00  0.00    +0.000 C 
ATOM     12  N   UNL     1      43.451   8.778  10.910  0.00  0.00    +0.000 N 
ATOM     13  O   UNL     1      45.317   9.553  11.880  0.00  0.00    +0.000 OA
ATOM     14  H   UNL     1      42.773   8.057  10.734  0.00  0.00    +0.000 HD
ATOM     15  H   UNL     1      43.169   9.740  10.767  0.00  0.00    +0.000 HD
ENDBRANCH   4  11
BRANCH   7  16
ATOM     16  C   UNL     1      47.842   5.696  15.083  0.00  0.00    +0.000 C 
BRANCH  16  17
ATOM     17  C   UNL     1      48.089   4.889  16.335  0.00  0.00    +0.000 A 
ATOM     18  C   UNL     1      49.314   4.979  17.014  0.00  0.00    +0.000 A 
ATOM     19  C   UNL     1      49.568   4.177  18.127  0.00  0.00    +0.000 A 
ATOM     20  C   UNL     1      48.625   3.237  18.539  0.00  0.00    +0.000 A 
ATOM     21  C   UNL     1      47.410   3.132  17.867  0.00  0.00    +0.000 A 
ATOM     22  C   UNL     1      47.129   3.980  16.798  0.00  0.00    +0.000 A 
ENDBRANCH  16  17
ENDBRANCH   7  16
TORSDOF 3
ENDMDL
