MODEL 1
REMARK VINA RESULT:    -9.005      0.000      0.000
REMARK INTER + INTRA:         -11.882
REMARK INTER:                 -11.637
REMARK INTRA:                  -0.246
REMARK UNBOUND:                -0.246
REMARK  Name = 
REMARK  5 active torsions:
REMARK  status: ('A' for Active; 'I' for Inactive)
REMARK    1  A    between atoms: C_2  and  C_3
REMARK    2  A    between atoms: C_6  and  C_7
REMARK    3  A    between atoms: C_9  and  C_10
REMARK    4  A    between atoms: C_10  and  N_11
REMARK    5  A    between atoms: C_15  and  C_16
REMARK                            x       y       z     vdW  Elec       q    Type
REMARK                         _______ _______ _______ _____ _____    ______ ____
ROOT
ATOM      1  C   UNL     1      44.153   5.308  11.195  0.00  0.00    +0.000 C 
ATOM      2  C   UNL     1      42.828   5.900  11.638  0.00  0.00    +0.000 C 
ATOM      3  C   UNL     1      42.962   4.417  11.553  0.00  0.00    +0.000 C 
ENDROOT
BRANCH   1   4
ATOM      4  N   UNL     1      44.548   5.277   9.782  0.00  0.00    +0.000 N 
ATOM      5  C   UNL     1      45.212   4.260   9.098  0.00  0.00    +0.000 A 
ATOM      6  C   UNL     1      45.238   2.931   9.494  0.00  0.00    +0.000 A 
ATOM      7  C   UNL     1      45.887   1.972   8.712  0.00  0.00    +0.000 A 
ATOM      8  C   UNL     1      46.518   2.370   7.541  0.00  0.00    +0.000 A 
ATOM      9  C   UNL     1      46.469   3.715   7.215  0.00  0.00    +0.000 A 
ATOM     10  N   UNL     1      45.823   4.653   7.958  0.00  0.00    +0.000 NA
ATOM     11  H   UNL     1      44.766   6.150   9.311  0.00  0.00    +0.000 HD
BRANCH   8  12
ATOM     12  C   UNL     1      47.267   1.437   6.676  0.00  0.00    +0.000 C 
ATOM     13  N   UNL     1      48.278   1.955   5.915  0.00  0.00    +0.000 N 
ATOM     14  O   UNL     1      47.004   0.242   6.653  0.00  0.00    +0.000 OA
ATOM     15  H   UNL     1      48.663   2.879   6.056  0.00  0.00    +0.000 HD
ATOM     16  H   UNL     1      48.829   1.295   5.382  0.00  0.00    +0.000 HD
ENDBRANCH   8  12
ENDBRANCH   1   4
BRANCH   1  19
ATOM     17  C   UNL     1      47.458   6.181  12.959  0.00  0.00    +0.000 A 
ATOM     18  C   UNL     1      46.399   6.190  12.054  0.00  0.00    +0.000 A 
ATOM     19  C   UNL     1      45.312   5.315  12.193  0.00  0.00    +0.000 A 
ATOM     20  C   UNL     1      45.335   4.470  13.306  0.00  0.00    +0.000 A 
ATOM     21  C   UNL     1      46.392   4.545  14.196  0.00  0.00    +0.000 A 
ATOM     22  N   UNL     1      47.451   5.366  14.037  0.00  0.00    +0.000 NA
BRANCH  17  26
ATOM     23  C   UNL     1      50.964   8.654  12.529  0.00  0.00    +0.000 A 
ATOM     24  C   UNL     1      50.157   8.393  11.423  0.00  0.00    +0.000 A 
ATOM     25  C   UNL     1      49.018   7.595  11.555  0.00  0.00    +0.000 A 
ATOM     26  C   UNL     1      48.656   7.033  12.794  0.00  0.00    +0.000 A 
ATOM     27  C   UNL     1      49.491   7.306  13.894  0.00  0.00    +0.000 A 
ATOM     28  C   UNL     1      50.631   8.109  13.769  0.00  0.00    +0.000 A 
BRANCH  23  30
ATOM     29  N   UNL     1      53.062  10.153  12.282  0.00  0.00    +0.000 NA
ATOM     30  C   UNL     1      52.119   9.484  12.398  0.00  0.00    +0.000 C 
ENDBRANCH  23  30
ENDBRANCH  17  26
ENDBRANCH   1  19
TORSDOF 5
ENDMDL
MODEL 2
REMARK VINA RESULT:    -6.889      3.959      6.224
REMARK INTER + INTRA:          -9.149
REMARK INTER:                  -8.317
REMARK INTRA:                  -0.831
REMARK UNBOUND:                -0.246
REMARK  Name = 
REMARK  5 active torsions:
REMARK  status: ('A' for Active; 'I' for Inactive)
REMARK    1  A    between atoms: C_2  and  C_3
REMARK    2  A    between atoms: C_6  and  C_7
REMARK    3  A    between atoms: C_9  and  C_10
REMARK    4  A    between atoms: C_10  and  N_11
REMARK    5  A    between atoms: C_15  and  C_16
REMARK                            x       y       z     vdW  Elec       q    Type
REMARK                         _______ _______ _______ _____ _____    ______ ____
ROOT
ATOM      1  C   UNL     1      47.925   8.341  13.511  0.00  0.00    +0.000 C 
ATOM      2  C   UNL     1      48.954   8.268  12.399  0.00  0.00    +0.000 C 
ATOM      3  C   UNL     1      48.445   9.605  12.823  0.00  0.00    +0.000 C 
ENDROOT
BRANCH   1   4
ATOM      4  N   UNL     1      46.508   8.042  13.271  0.00  0.00    +0.000 N 
ATOM      5  C   UNL     1      45.939   6.828  12.890  0.00  0.00    +0.000 A 
ATOM      6  C   UNL     1      46.527   5.586  13.089  0.00  0.00    +0.000 A 
ATOM      7  C   UNL     1      45.854   4.418  12.721  0.00  0.00    +0.000 A 
ATOM      8  C   UNL     1      44.596   4.518  12.142  0.00  0.00    +0.000 A 
ATOM      9  C   UNL     1      44.077   5.788  11.957  0.00  0.00    +0.000 A 
ATOM     10  N   UNL     1      44.715   6.930  12.329  0.00  0.00    +0.000 NA
ATOM     11  H   UNL     1      45.899   8.780  12.931  0.00  0.00    +0.000 HD
BRANCH   8  12
ATOM     12  C   UNL     1      43.830   3.343  11.680  0.00  0.00    +0.000 C 
ATOM     13  N   UNL     1      43.695   2.296  12.549  0.00  0.00    +0.000 N 
ATOM     14  O   UNL     1      43.320   3.314  10.568  0.00  0.00    +0.000 OA
ATOM     15  H   UNL     1      43.913   2.360  13.535  0.00  0.00    +0.000 HD
ATOM     16  H   UNL     1      43.109   1.528  12.249  0.00  0.00    +0.000 HD
ENDBRANCH   8  12
ENDBRANCH   1   4
BRANCH   1  19
ATOM     17  C   UNL     1      49.616   6.800  16.604  0.00  0.00    +0.000 A 
ATOM     18  C   UNL     1      49.196   7.009  15.293  0.00  0.00    +0.000 A 
ATOM     19  C   UNL     1      48.402   8.113  14.946  0.00  0.00    +0.000 A 
ATOM     20  C   UNL     1      48.095   9.003  15.979  0.00  0.00    +0.000 A 
ATOM     21  C   UNL     1      48.584   8.765  17.252  0.00  0.00    +0.000 A 
ATOM     22  N   UNL     1      49.319   7.683  17.584  0.00  0.00    +0.000 NA
BRANCH  17  26
ATOM     23  C   UNL     1      51.898   3.343  17.803  0.00  0.00    +0.000 A 
ATOM     24  C   UNL     1      50.507   3.276  17.753  0.00  0.00    +0.000 A 
ATOM     25  C   UNL     1      49.760   4.391  17.364  0.00  0.00    +0.000 A 
ATOM     26  C   UNL     1      50.384   5.605  17.016  0.00  0.00    +0.000 A 
ATOM     27  C   UNL     1      51.789   5.649  17.081  0.00  0.00    +0.000 A 
ATOM     28  C   UNL     1      52.543   4.534  17.466  0.00  0.00    +0.000 A 
BRANCH  23  30
ATOM     29  N   UNL     1      53.277   1.266  18.506  0.00  0.00    +0.000 NA
ATOM     30  C   UNL     1      52.662   2.199  18.185  0.00  0.00    +0.000 C 
ENDBRANCH  23  30
ENDBRANCH  17  26
ENDBRANCH   1  19
TORSDOF 5
ENDMDL
MODEL 3
REMARK VINA RESULT:    -6.396      4.391      9.003
REMARK INTER + INTRA:          -8.511
REMARK INTER:                  -7.825
REMARK INTRA:                  -0.686
REMARK UNBOUND:                -0.246
REMARK  Name = 
REMARK  5 active torsions:
REMARK  status: ('A' for Active; 'I' for Inactive)
REMARK    1  A    between atoms: C_2  and  C_3
REMARK    2  A    between atoms: C_6  and  C_7
REMARK    3  A    between atoms: C_9  and  C_10
REMARK    4  A    between atoms: C_10  and  N_11
REMARK    5  A    between atoms: C_15  and  C_16
REMARK                            x       y       z     vdW  Elec       q    Type
REMARK                         _______ _______ _______ _____ _____    ______ ____
ROOT
ATOM      1  C   UNL     1      50.341   8.479  14.378  0.00  0.00    +0.000 C 
ATOM      2  C   UNL     1      50.944   9.745  14.956  0.00  0.00    +0.000 C 
ATOM      3  C   UNL     1      51.571   9.135  13.748  0.00  0.00    +0.000 C 
ENDROOT
BRANCH   1   4
ATOM      4  N   UNL     1      50.582   7.165  14.985  0.00  0.00    +0.000 N 
ATOM      5  C   UNL     1      50.116   6.685  16.208  0.00  0.00    +0.000 A 
ATOM      6  C   UNL     1      49.001   7.174  16.872  0.00  0.00    +0.000 A 
ATOM      7  C   UNL     1      48.579   6.591  18.071  0.00  0.00    +0.000 A 
ATOM      8  C   UNL     1      49.299   5.526  18.593  0.00  0.00    +0.000 A 
ATOM      9  C   UNL     1      50.412   5.100  17.888  0.00  0.00    +0.000 A 
ATOM     10  N   UNL     1      50.819   5.647  16.712  0.00  0.00    +0.000 NA
ATOM     11  H   UNL     1      51.450   6.679  14.781  0.00  0.00    +0.000 HD
BRANCH   8  12
ATOM     12  C   UNL     1      48.956   4.877  19.875  0.00  0.00    +0.000 C 
ATOM     13  N   UNL     1      48.509   3.586  19.829  0.00  0.00    +0.000 N 
ATOM     14  O   UNL     1      49.082   5.467  20.939  0.00  0.00    +0.000 OA
ATOM     15  H   UNL     1      48.588   2.999  19.009  0.00  0.00    +0.000 HD
ATOM     16  H   UNL     1      48.346   3.130  20.717  0.00  0.00    +0.000 HD
ENDBRANCH   8  12
ENDBRANCH   1   4
BRANCH   1  19
ATOM     17  C   UNL     1      46.999   7.619  12.678  0.00  0.00    +0.000 A 
ATOM     18  C   UNL     1      48.180   7.505  13.408  0.00  0.00    +0.000 A 
ATOM     19  C   UNL     1      49.036   8.601  13.590  0.00  0.00    +0.000 A 
ATOM     20  C   UNL     1      48.617   9.813  13.033  0.00  0.00    +0.000 A 
ATOM     21  C   UNL     1      47.409   9.872  12.361  0.00  0.00    +0.000 A 
ATOM     22  N   UNL     1      46.607   8.806  12.162  0.00  0.00    +0.000 NA
BRANCH  17  26
ATOM     23  C   UNL     1      44.453   4.227  11.904  0.00  0.00    +0.000 A 
ATOM     24  C   UNL     1      44.238   5.426  11.228  0.00  0.00    +0.000 A 
ATOM     25  C   UNL     1      45.059   6.530  11.471  0.00  0.00    +0.000 A 
ATOM     26  C   UNL     1      46.117   6.465  12.399  0.00  0.00    +0.000 A 
ATOM     27  C   UNL     1      46.309   5.244  13.074  0.00  0.00    +0.000 A 
ATOM     28  C   UNL     1      45.492   4.134  12.830  0.00  0.00    +0.000 A 
BRANCH  23  30
ATOM     29  N   UNL     1      42.958   2.164  11.429  0.00  0.00    +0.000 NA
ATOM     30  C   UNL     1      43.623   3.093  11.643  0.00  0.00    +0.000 C 
ENDBRANCH  23  30
ENDBRANCH  17  26
ENDBRANCH   1  19
TORSDOF 5
ENDMDL
MODEL 4
REMARK VINA RESULT:    -6.189      2.978      4.689
REMARK INTER + INTRA:          -8.244
REMARK INTER:                  -7.370
REMARK INTRA:                  -0.874
REMARK UNBOUND:                -0.246
REMARK  Name = 
REMARK  5 active torsions:
REMARK  status: ('A' for Active; 'I' for Inactive)
REMARK    1  A    between atoms: C_2  and  C_3
REMARK    2  A    between atoms: C_6  and  C_7
REMARK    3  A    between atoms: C_9  and  C_10
REMARK    4  A    between atoms: C_10  and  N_11
REMARK    5  A    between atoms: C_15  and  C_16
REMARK                            x       y       z     vdW  Elec       q    Type
REMARK                         _______ _______ _______ _____ _____    ______ ____
ROOT
ATOM      1  C   UNL     1      45.227   9.040  11.906  0.00  0.00    +0.000 C 
ATOM      2  C   UNL     1      44.782   9.996  10.816  0.00  0.00    +0.000 C 
ATOM      3  C   UNL     1      44.372  10.268  12.224  0.00  0.00    +0.000 C 
ENDROOT
BRANCH   1   4
ATOM      4  N   UNL     1      44.560   7.749  12.118  0.00  0.00    +0.000 N 
ATOM      5  C   UNL     1      44.629   6.607  11.323  0.00  0.00    +0.000 A 
ATOM      6  C   UNL     1      45.661   6.324  10.439  0.00  0.00    +0.000 A 
ATOM      7  C   UNL     1      45.669   5.124   9.723  0.00  0.00    +0.000 A 
ATOM      8  C   UNL     1      44.624   4.226   9.897  0.00  0.00    +0.000 A 
ATOM      9  C   UNL     1      43.619   4.580  10.780  0.00  0.00    +0.000 A 
ATOM     10  N   UNL     1      43.611   5.736  11.497  0.00  0.00    +0.000 NA
ATOM     11  H   UNL     1      43.666   7.729  12.598  0.00  0.00    +0.000 HD
BRANCH   8  12
ATOM     12  C   UNL     1      44.525   2.956   9.150  0.00  0.00    +0.000 C 
ATOM     13  N   UNL     1      44.231   1.827   9.863  0.00  0.00    +0.000 N 
ATOM     14  O   UNL     1      44.682   2.918   7.937  0.00  0.00    +0.000 OA
ATOM     15  H   UNL     1      43.890   1.842  10.814  0.00  0.00    +0.000 HD
ATOM     16  H   UNL     1      44.096   0.977   9.331  0.00  0.00    +0.000 HD
ENDBRANCH   8  12
ENDBRANCH   1   4
BRANCH   1  19
ATOM     17  C   UNL     1      48.517   8.290  13.753  0.00  0.00    +0.000 A 
ATOM     18  C   UNL     1      47.191   8.222  13.333  0.00  0.00    +0.000 A 
ATOM     19  C   UNL     1      46.685   9.100  12.362  0.00  0.00    +0.000 A 
ATOM     20  C   UNL     1      47.595  10.011  11.818  0.00  0.00    +0.000 A 
ATOM     21  C   UNL     1      48.912   9.996  12.243  0.00  0.00    +0.000 A 
ATOM     22  N   UNL     1      49.382   9.171  13.201  0.00  0.00    +0.000 NA
BRANCH  17  26
ATOM     23  C   UNL     1      50.050   5.767  16.896  0.00  0.00    +0.000 A 
ATOM     24  C   UNL     1      50.846   6.781  16.368  0.00  0.00    +0.000 A 
ATOM     25  C   UNL     1      50.357   7.605  15.350  0.00  0.00    +0.000 A 
ATOM     26  C   UNL     1      49.058   7.435  14.832  0.00  0.00    +0.000 A 
ATOM     27  C   UNL     1      48.277   6.399  15.377  0.00  0.00    +0.000 A 
ATOM     28  C   UNL     1      48.760   5.574  16.400  0.00  0.00    +0.000 A 
BRANCH  23  30
ATOM     29  N   UNL     1      50.936   4.259  18.807  0.00  0.00    +0.000 NA
ATOM     30  C   UNL     1      50.545   4.936  17.947  0.00  0.00    +0.000 C 
ENDBRANCH  23  30
ENDBRANCH  17  26
ENDBRANCH   1  19
TORSDOF 5
ENDMDL
MODEL 5
REMARK VINA RESULT:    -6.040      4.070      6.279
REMARK INTER + INTRA:          -8.051
REMARK INTER:                  -7.755
REMARK INTRA:                  -0.295
REMARK UNBOUND:                -0.246
REMARK  Name = 
REMARK  5 active torsions:
REMARK  status: ('A' for Active; 'I' for Inactive)
REMARK    1  A    between atoms: C_2  and  C_3
REMARK    2  A    between atoms: C_6  and  C_7
REMARK    3  A    between atoms: C_9  and  C_10
REMARK    4  A    between atoms: C_10  and  N_11
REMARK    5  A    between atoms: C_15  and  C_16
REMARK                            x       y       z     vdW  Elec       q    Type
REMARK                         _______ _______ _______ _____ _____    ______ ____
ROOT
ATOM      1  C   UNL     1      45.925   4.126  12.906  0.00  0.00    +0.000 C 
ATOM      2  C   UNL     1      45.123   3.586  11.738  0.00  0.00    +0.000 C 
ATOM      3  C   UNL     1      44.421   3.877  13.021  0.00  0.00    +0.000 C 
ENDROOT
BRANCH   1   4
ATOM      4  N   UNL     1      46.764   3.251  13.734  0.00  0.00    +0.000 N 
ATOM      5  C   UNL     1      47.239   3.485  15.023  0.00  0.00    +0.000 A 
ATOM      6  C   UNL     1      46.663   4.368  15.926  0.00  0.00    +0.000 A 
ATOM      7  C   UNL     1      47.180   4.495  17.218  0.00  0.00    +0.000 A 
ATOM      8  C   UNL     1      48.284   3.735  17.582  0.00  0.00    +0.000 A 
ATOM      9  C   UNL     1      48.818   2.888  16.627  0.00  0.00    +0.000 A 
ATOM     10  N   UNL     1      48.312   2.742  15.373  0.00  0.00    +0.000 NA
ATOM     11  H   UNL     1      47.422   2.624  13.279  0.00  0.00    +0.000 HD
BRANCH   8  12
ATOM     12  C   UNL     1      48.925   3.836  18.908  0.00  0.00    +0.000 C 
ATOM     13  N   UNL     1      48.310   3.207  19.955  0.00  0.00    +0.000 N 
ATOM     14  O   UNL     1      49.975   4.444  19.062  0.00  0.00    +0.000 OA
ATOM     15  H   UNL     1      47.569   2.529  19.840  0.00  0.00    +0.000 HD
ATOM     16  H   UNL     1      48.795   3.223  20.843  0.00  0.00    +0.000 HD
ENDBRANCH   8  12
ENDBRANCH   1   4
BRANCH   1  19
ATOM     17  C   UNL     1      48.102   7.291  12.683  0.00  0.00    +0.000 A 
ATOM     18  C   UNL     1      47.709   5.954  12.711  0.00  0.00    +0.000 A 
ATOM     19  C   UNL     1      46.363   5.591  12.861  0.00  0.00    +0.000 A 
ATOM     20  C   UNL     1      45.443   6.641  12.939  0.00  0.00    +0.000 A 
ATOM     21  C   UNL     1      45.893   7.947  12.856  0.00  0.00    +0.000 A 
ATOM     22  N   UNL     1      47.193   8.289  12.746  0.00  0.00    +0.000 NA
BRANCH  17  26
ATOM     23  C   UNL     1      52.238   8.499  12.521  0.00  0.00    +0.000 A 
ATOM     24  C   UNL     1      51.568   8.153  11.350  0.00  0.00    +0.000 A 
ATOM     25  C   UNL     1      50.227   7.762  11.393  0.00  0.00    +0.000 A 
ATOM     26  C   UNL     1      49.520   7.705  12.610  0.00  0.00    +0.000 A 
ATOM     27  C   UNL     1      50.221   8.053  13.780  0.00  0.00    +0.000 A 
ATOM     28  C   UNL     1      51.563   8.450  13.741  0.00  0.00    +0.000 A 
BRANCH  23  30
ATOM     29  N   UNL     1      54.716   9.249  12.426  0.00  0.00    +0.000 NA
ATOM     30  C   UNL     1      53.604   8.915  12.475  0.00  0.00    +0.000 C 
ENDBRANCH  23  30
ENDBRANCH  17  26
ENDBRANCH   1  19
TORSDOF 5
ENDMDL
