MODEL 1
REMARK VINA RESULT:    -8.080      0.000      0.000
REMARK INTER + INTRA:         -11.862
REMARK INTER:                 -10.914
REMARK INTRA:                  -0.948
REMARK UNBOUND:                -0.948
REMARK  Name = 
REMARK  7 active torsions:
REMARK  status: ('A' for Active; 'I' for Inactive)
REMARK    1  A    between atoms: C_1  and  C_2
REMARK    2  A    between atoms: C_5  and  C_6
REMARK    3  A    between atoms: N_8  and  C_9
REMARK    4  A    between atoms: C_9  and  C_10
REMARK    5  A    between atoms: C_13  and  C_14
REMARK    6  A    between atoms: C_14  and  N_15
REMARK    7  A    between atoms: C_16  and  C_18
REMARK                            x       y       z     vdW  Elec       q    Type
REMARK                         _______ _______ _______ _____ _____    ______ ____
ROOT
ATOM      1  C   UNL     1      44.886   6.167  11.177  0.00  0.00    +0.000 A 
ATOM      2  C   UNL     1      46.003   5.565  11.776  0.00  0.00    +0.000 A 
ATOM      3  C   UNL     1      46.834   6.289  12.646  0.00  0.00    +0.000 A 
ATOM      4  C   UNL     1      46.556   7.626  12.960  0.00  0.00    +0.000 A 
ATOM      5  C   UNL     1      45.442   8.229  12.359  0.00  0.00    +0.000 A 
ATOM      6  C   UNL     1      44.613   7.506  11.487  0.00  0.00    +0.000 A 
ENDROOT
BRANCH   1   7
ATOM      7  C   UNL     1      44.004   5.396  10.221  0.00  0.00    +0.000 C 
BRANCH   7  10
ATOM      8  C   UNL     1      44.676   3.170   9.378  0.00  0.00    +0.000 C 
ATOM      9  O   UNL     1      43.947   2.575  10.171  0.00  0.00    +0.000 OA
ATOM     10  N   UNL     1      44.761   4.545   9.339  0.00  0.00    +0.000 N 
ATOM     11  H   UNL     1      45.347   4.952   8.619  0.00  0.00    +0.000 HD
BRANCH   8  16
ATOM     12  C   UNL     1      47.248   2.928   5.294  0.00  0.00    +0.000 C 
ATOM     13  C   UNL     1      46.699   2.361   6.543  0.00  0.00    +0.000 A 
ATOM     14  C   UNL     1      46.793   1.128   7.148  0.00  0.00    +0.000 A 
ATOM     15  C   UNL     1      46.033   1.215   8.343  0.00  0.00    +0.000 A 
ATOM     16  C   UNL     1      45.517   2.498   8.399  0.00  0.00    +0.000 A 
ATOM     17  O   UNL     1      45.927   3.196   7.291  0.00  0.00    +0.000 OA
ENDBRANCH   8  16
ENDBRANCH   7  10
ENDBRANCH   1   7
BRANCH   4  18
ATOM     18  C   UNL     1      47.435   8.407  13.911  0.00  0.00    +0.000 C 
BRANCH  18  19
ATOM     19  N   UNL     1      47.825   7.628  15.058  0.00  0.00    +0.000 N 
ATOM     20  C   UNL     1      49.041   6.997  15.129  0.00  0.00    +0.000 C 
ATOM     21  O   UNL     1      49.875   7.082  14.232  0.00  0.00    +0.000 OA
ATOM     22  H   UNL     1      47.078   7.323  15.677  0.00  0.00    +0.000 HD
BRANCH  20  23
ATOM     23  C   UNL     1      49.324   6.260  16.370  0.00  0.00    +0.000 A 
ATOM     24  C   UNL     1      50.354   6.673  17.206  0.00  0.00    +0.000 A 
ATOM     25  S   UNL     1      50.512   5.724  18.618  0.00  0.00    +0.000 S 
ATOM     26  C   UNL     1      49.244   4.697  18.135  0.00  0.00    +0.000 A 
ATOM     27  N   UNL     1      48.877   3.630  18.895  0.00  0.00    +0.000 NA
ATOM     28  C   UNL     1      47.919   2.922  18.395  0.00  0.00    +0.000 A 
ATOM     29  N   UNL     1      47.290   3.192  17.208  0.00  0.00    +0.000 N 
ATOM     30  C   UNL     1      47.600   4.277  16.427  0.00  0.00    +0.000 A 
ATOM     31  O   UNL     1      46.974   4.523  15.401  0.00  0.00    +0.000 OA
ATOM     32  C   UNL     1      48.689   5.091  16.930  0.00  0.00    +0.000 A 
ATOM     33  H   UNL     1      46.532   2.610  16.880  0.00  0.00    +0.000 HD
ENDBRANCH  20  23
ENDBRANCH  18  19
ENDBRANCH   4  18
TORSDOF 6
ENDMDL
MODEL 2
REMARK VINA RESULT:    -7.665      2.483      2.878
REMARK INTER + INTRA:         -11.301
REMARK INTER:                 -10.404
REMARK INTRA:                  -0.898
REMARK UNBOUND:                -0.948
REMARK  Name = 
REMARK  7 active torsions:
REMARK  status: ('A' for Active; 'I' for Inactive)
REMARK    1  A    between atoms: C_1  and  C_2
REMARK    2  A    between atoms: C_5  and  C_6
REMARK    3  A    between atoms: N_8  and  C_9
REMARK    4  A    between atoms: C_9  and  C_10
REMARK    5  A    between atoms: C_13  and  C_14
REMARK    6  A    between atoms: C_14  and  N_15
REMARK    7  A    between atoms: C_16  and  C_18
REMARK                            x       y       z     vdW  Elec       q    Type
REMARK                         _______ _______ _______ _____ _____    ______ ____
ROOT
ATOM      1  C   UNL     1      45.041   6.682  11.754  0.00  0.00    +0.000 A 
ATOM      2  C   UNL     1      44.859   8.070  11.852  0.00  0.00    +0.000 A 
ATOM      3  C   UNL     1      45.710   8.854  12.647  0.00  0.00    +0.000 A 
ATOM      4  C   UNL     1      46.780   8.276  13.343  0.00  0.00    +0.000 A 
ATOM      5  C   UNL     1      46.960   6.890  13.247  0.00  0.00    +0.000 A 
ATOM      6  C   UNL     1      46.108   6.105  12.456  0.00  0.00    +0.000 A 
ENDROOT
BRANCH   1   7
ATOM      7  C   UNL     1      44.110   5.832  10.918  0.00  0.00    +0.000 C 
BRANCH   7  10
ATOM      8  C   UNL     1      44.576   3.684   9.782  0.00  0.00    +0.000 C 
ATOM      9  O   UNL     1      43.738   3.075  10.447  0.00  0.00    +0.000 OA
ATOM     10  N   UNL     1      44.817   5.031   9.952  0.00  0.00    +0.000 N 
ATOM     11  H   UNL     1      45.487   5.463   9.326  0.00  0.00    +0.000 HD
BRANCH   8  16
ATOM     12  C   UNL     1      46.778  -0.049   7.645  0.00  0.00    +0.000 C 
ATOM     13  C   UNL     1      46.405   1.377   7.754  0.00  0.00    +0.000 A 
ATOM     14  C   UNL     1      46.671   2.489   6.989  0.00  0.00    +0.000 A 
ATOM     15  C   UNL     1      46.019   3.575   7.629  0.00  0.00    +0.000 A 
ATOM     16  C   UNL     1      45.392   3.063   8.751  0.00  0.00    +0.000 A 
ATOM     17  O   UNL     1      45.633   1.714   8.824  0.00  0.00    +0.000 OA
ENDBRANCH   8  16
ENDBRANCH   7  10
ENDBRANCH   1   7
BRANCH   4  18
ATOM     18  C   UNL     1      47.713   9.117  14.186  0.00  0.00    +0.000 C 
BRANCH  18  19
ATOM     19  N   UNL     1      47.505   8.914  15.598  0.00  0.00    +0.000 N 
ATOM     20  C   UNL     1      48.276   9.540  16.544  0.00  0.00    +0.000 C 
ATOM     21  O   UNL     1      49.169  10.327  16.243  0.00  0.00    +0.000 OA
ATOM     22  H   UNL     1      46.973   8.089  15.866  0.00  0.00    +0.000 HD
BRANCH  20  23
ATOM     23  C   UNL     1      47.936   9.268  17.949  0.00  0.00    +0.000 A 
ATOM     24  C   UNL     1      47.549  10.307  18.786  0.00  0.00    +0.000 A 
ATOM     25  S   UNL     1      47.156   9.801  20.369  0.00  0.00    +0.000 S 
ATOM     26  C   UNL     1      47.539   8.183  20.006  0.00  0.00    +0.000 A 
ATOM     27  N   UNL     1      47.449   7.211  20.953  0.00  0.00    +0.000 NA
ATOM     28  C   UNL     1      47.794   6.035  20.546  0.00  0.00    +0.000 A 
ATOM     29  N   UNL     1      48.214   5.744  19.274  0.00  0.00    +0.000 N 
ATOM     30  C   UNL     1      48.284   6.684  18.276  0.00  0.00    +0.000 A 
ATOM     31  O   UNL     1      48.604   6.376  17.133  0.00  0.00    +0.000 OA
ATOM     32  C   UNL     1      47.931   8.027  18.688  0.00  0.00    +0.000 A 
ATOM     33  H   UNL     1      48.452   4.798  19.012  0.00  0.00    +0.000 HD
ENDBRANCH  20  23
ENDBRANCH  18  19
ENDBRANCH   4  18
TORSDOF 6
ENDMDL
MODEL 3
REMARK VINA RESULT:    -7.540      1.494      1.968
REMARK INTER + INTRA:         -11.133
REMARK INTER:                 -10.189
REMARK INTRA:                  -0.944
REMARK UNBOUND:                -0.948
REMARK  Name = 
REMARK  7 active torsions:
REMARK  status: ('A' for Active; 'I' for Inactive)
REMARK    1  A    between atoms: C_1  and  C_2
REMARK    2  A    between atoms: C_5  and  C_6
REMARK    3  A    between atoms: N_8  and  C_9
REMARK    4  A    between atoms: C_9  and  C_10
REMARK    5  A    between atoms: C_13  and  C_14
REMARK    6  A    between atoms: C_14  and  N_15
REMARK    7  A    between atoms: C_16  and  C_18
REMARK                            x       y       z     vdW  Elec       q    Type
REMARK                         _______ _______ _______ _____ _____    ______ ____
ROOT
ATOM      1  C   UNL     1      45.383   6.767  11.918  0.00  0.00    +0.000 A 
ATOM      2  C   UNL     1      45.296   8.129  12.241  0.00  0.00    +0.000 A 
ATOM      3  C   UNL     1      46.217   8.723  13.120  0.00  0.00    +0.000 A 
ATOM      4  C   UNL     1      47.262   7.976  13.678  0.00  0.00    +0.000 A 
ATOM      5  C   UNL     1      47.347   6.614  13.359  0.00  0.00    +0.000 A 
ATOM      6  C   UNL     1      46.426   6.020  12.483  0.00  0.00    +0.000 A 
ENDROOT
BRANCH   1   7
ATOM      7  C   UNL     1      44.378   6.121  10.990  0.00  0.00    +0.000 C 
BRANCH   7  10
ATOM      8  C   UNL     1      44.742   3.959   9.844  0.00  0.00    +0.000 C 
ATOM      9  O   UNL     1      43.951   3.362  10.575  0.00  0.00    +0.000 OA
ATOM     10  N   UNL     1      45.006   5.305   9.983  0.00  0.00    +0.000 N 
ATOM     11  H   UNL     1      45.631   5.726   9.305  0.00  0.00    +0.000 HD
BRANCH   8  16
ATOM     12  C   UNL     1      46.831   0.205   7.630  0.00  0.00    +0.000 C 
ATOM     13  C   UNL     1      46.434   1.626   7.729  0.00  0.00    +0.000 A 
ATOM     14  C   UNL     1      46.601   2.717   6.908  0.00  0.00    +0.000 A 
ATOM     15  C   UNL     1      45.985   3.810   7.571  0.00  0.00    +0.000 A 
ATOM     16  C   UNL     1      45.476   3.321   8.762  0.00  0.00    +0.000 A 
ATOM     17  O   UNL     1      45.756   1.981   8.855  0.00  0.00    +0.000 OA
ENDBRANCH   8  16
ENDBRANCH   7  10
ENDBRANCH   1   7
BRANCH   4  18
ATOM     18  C   UNL     1      48.269   8.611  14.611  0.00  0.00    +0.000 C 
BRANCH  18  19
ATOM     19  N   UNL     1      49.195   7.649  15.153  0.00  0.00    +0.000 N 
ATOM     20  C   UNL     1      49.162   7.270  16.471  0.00  0.00    +0.000 C 
ATOM     21  O   UNL     1      48.326   7.708  17.256  0.00  0.00    +0.000 OA
ATOM     22  H   UNL     1      50.041   7.479  14.615  0.00  0.00    +0.000 HD
BRANCH  20  23
ATOM     23  C   UNL     1      50.144   6.256  16.884  0.00  0.00    +0.000 A 
ATOM     24  C   UNL     1      51.453   6.628  17.167  0.00  0.00    +0.000 A 
ATOM     25  S   UNL     1      52.441   5.329  17.668  0.00  0.00    +0.000 S 
ATOM     26  C   UNL     1      51.170   4.215  17.474  0.00  0.00    +0.000 A 
ATOM     27  N   UNL     1      51.356   2.888  17.711  0.00  0.00    +0.000 NA
ATOM     28  C   UNL     1      50.313   2.156  17.499  0.00  0.00    +0.000 A 
ATOM     29  N   UNL     1      49.099   2.634  17.079  0.00  0.00    +0.000 N 
ATOM     30  C   UNL     1      48.854   3.967  16.864  0.00  0.00    +0.000 A 
ATOM     31  O   UNL     1      47.737   4.366  16.550  0.00  0.00    +0.000 OA
ATOM     32  C   UNL     1      50.000   4.830  17.063  0.00  0.00    +0.000 A 
ATOM     33  H   UNL     1      48.314   2.011  16.950  0.00  0.00    +0.000 HD
ENDBRANCH  20  23
ENDBRANCH  18  19
ENDBRANCH   4  18
TORSDOF 6
ENDMDL
MODEL 4
REMARK VINA RESULT:    -7.449      1.942      2.497
REMARK INTER + INTRA:         -11.010
REMARK INTER:                 -10.227
REMARK INTRA:                  -0.783
REMARK UNBOUND:                -0.948
REMARK  Name = 
REMARK  7 active torsions:
REMARK  status: ('A' for Active; 'I' for Inactive)
REMARK    1  A    between atoms: C_1  and  C_2
REMARK    2  A    between atoms: C_5  and  C_6
REMARK    3  A    between atoms: N_8  and  C_9
REMARK    4  A    between atoms: C_9  and  C_10
REMARK    5  A    between atoms: C_13  and  C_14
REMARK    6  A    between atoms: C_14  and  N_15
REMARK    7  A    between atoms: C_16  and  C_18
REMARK                            x       y       z     vdW  Elec       q    Type
REMARK                         _______ _______ _______ _____ _____    ______ ____
ROOT
ATOM      1  C   UNL     1      45.017   5.355  11.439  0.00  0.00    +0.000 A 
ATOM      2  C   UNL     1      45.956   4.759  12.293  0.00  0.00    +0.000 A 
ATOM      3  C   UNL     1      46.829   5.544  13.066  0.00  0.00    +0.000 A 
ATOM      4  C   UNL     1      46.767   6.943  13.023  0.00  0.00    +0.000 A 
ATOM      5  C   UNL     1      45.831   7.538  12.167  0.00  0.00    +0.000 A 
ATOM      6  C   UNL     1      44.960   6.755  11.393  0.00  0.00    +0.000 A 
ENDROOT
BRANCH   1   7
ATOM      7  C   UNL     1      44.093   4.512  10.588  0.00  0.00    +0.000 C 
BRANCH   7  10
ATOM      8  C   UNL     1      45.606   4.093   8.676  0.00  0.00    +0.000 C 
ATOM      9  O   UNL     1      45.754   5.293   8.445  0.00  0.00    +0.000 OA
ATOM     10  N   UNL     1      44.811   3.631   9.704  0.00  0.00    +0.000 N 
ATOM     11  H   UNL     1      44.788   2.629   9.856  0.00  0.00    +0.000 HD
BRANCH   8  16
ATOM     12  C   UNL     1      46.631  -0.510   7.621  0.00  0.00    +0.000 C 
ATOM     13  C   UNL     1      46.730   0.948   7.401  0.00  0.00    +0.000 A 
ATOM     14  C   UNL     1      47.393   1.726   6.480  0.00  0.00    +0.000 A 
ATOM     15  C   UNL     1      47.083   3.073   6.803  0.00  0.00    +0.000 A 
ATOM     16  C   UNL     1      46.248   3.039   7.906  0.00  0.00    +0.000 A 
ATOM     17  O   UNL     1      46.036   1.733   8.270  0.00  0.00    +0.000 OA
ENDBRANCH   8  16
ENDBRANCH   7  10
ENDBRANCH   1   7
BRANCH   4  18
ATOM     18  C   UNL     1      47.690   7.795  13.866  0.00  0.00    +0.000 C 
BRANCH  18  19
ATOM     19  N   UNL     1      47.885   7.247  15.184  0.00  0.00    +0.000 N 
ATOM     20  C   UNL     1      49.111   6.808  15.615  0.00  0.00    +0.000 C 
ATOM     21  O   UNL     1      50.116   6.881  14.913  0.00  0.00    +0.000 OA
ATOM     22  H   UNL     1      47.052   6.931  15.674  0.00  0.00    +0.000 HD
BRANCH  20  23
ATOM     23  C   UNL     1      49.177   6.301  16.994  0.00  0.00    +0.000 A 
ATOM     24  C   UNL     1      49.718   5.046  17.251  0.00  0.00    +0.000 A 
ATOM     25  S   UNL     1      49.747   4.640  18.909  0.00  0.00    +0.000 S 
ATOM     26  C   UNL     1      48.990   6.102  19.338  0.00  0.00    +0.000 A 
ATOM     27  N   UNL     1      48.687   6.382  20.634  0.00  0.00    +0.000 NA
ATOM     28  C   UNL     1      48.092   7.515  20.810  0.00  0.00    +0.000 A 
ATOM     29  N   UNL     1      47.780   8.395  19.807  0.00  0.00    +0.000 N 
ATOM     30  C   UNL     1      48.099   8.173  18.491  0.00  0.00    +0.000 A 
ATOM     31  O   UNL     1      47.862   9.011  17.628  0.00  0.00    +0.000 OA
ATOM     32  C   UNL     1      48.747   6.902  18.235  0.00  0.00    +0.000 A 
ATOM     33  H   UNL     1      47.330   9.276  20.013  0.00  0.00    +0.000 HD
ENDBRANCH  20  23
ENDBRANCH  18  19
ENDBRANCH   4  18
TORSDOF 6
ENDMDL
MODEL 5
REMARK VINA RESULT:    -7.125      3.446      4.541
REMARK INTER + INTRA:         -10.572
REMARK INTER:                  -9.690
REMARK INTRA:                  -0.882
REMARK UNBOUND:                -0.948
REMARK  Name = 
REMARK  7 active torsions:
REMARK  status: ('A' for Active; 'I' for Inactive)
REMARK    1  A    between atoms: C_1  and  C_2
REMARK    2  A    between atoms: C_5  and  C_6
REMARK    3  A    between atoms: N_8  and  C_9
REMARK    4  A    between atoms: C_9  and  C_10
REMARK    5  A    between atoms: C_13  and  C_14
REMARK    6  A    between atoms: C_14  and  N_15
REMARK    7  A    between atoms: C_16  and  C_18
REMARK                            x       y       z     vdW  Elec       q    Type
REMARK                         _______ _______ _______ _____ _____    ______ ____
ROOT
ATOM      1  C   UNL     1      47.324   6.197  13.808  0.00  0.00    +0.000 A 
ATOM      2  C   UNL     1      46.812   4.955  14.214  0.00  0.00    +0.000 A 
ATOM      3  C   UNL     1      47.252   4.346  15.401  0.00  0.00    +0.000 A 
ATOM      4  C   UNL     1      48.196   4.974  16.224  0.00  0.00    +0.000 A 
ATOM      5  C   UNL     1      48.710   6.212  15.818  0.00  0.00    +0.000 A 
ATOM      6  C   UNL     1      48.273   6.820  14.631  0.00  0.00    +0.000 A 
ENDROOT
BRANCH   1   7
ATOM      7  C   UNL     1      46.870   6.843  12.519  0.00  0.00    +0.000 C 
BRANCH   7  10
ATOM      8  C   UNL     1      45.330   5.915  10.820  0.00  0.00    +0.000 C 
ATOM      9  O   UNL     1      44.481   6.784  11.019  0.00  0.00    +0.000 OA
ATOM     10  N   UNL     1      46.522   5.875  11.511  0.00  0.00    +0.000 N 
ATOM     11  H   UNL     1      47.186   5.156  11.247  0.00  0.00    +0.000 HD
BRANCH   8  16
ATOM     12  C   UNL     1      46.387   3.606   6.709  0.00  0.00    +0.000 C 
ATOM     13  C   UNL     1      45.641   3.774   7.973  0.00  0.00    +0.000 A 
ATOM     14  C   UNL     1      44.652   3.049   8.596  0.00  0.00    +0.000 A 
ATOM     15  C   UNL     1      44.352   3.739   9.800  0.00  0.00    +0.000 A 
ATOM     16  C   UNL     1      45.177   4.849   9.842  0.00  0.00    +0.000 A 
ATOM     17  O   UNL     1      45.965   4.867   8.718  0.00  0.00    +0.000 OA
ENDBRANCH   8  16
ENDBRANCH   7  10
ENDBRANCH   1   7
BRANCH   4  18
ATOM     18  C   UNL     1      48.661   4.333  17.513  0.00  0.00    +0.000 C 
BRANCH  18  19
ATOM     19  N   UNL     1      50.049   3.950  17.463  0.00  0.00    +0.000 N 
ATOM     20  C   UNL     1      50.907   4.186  18.506  0.00  0.00    +0.000 C 
ATOM     21  O   UNL     1      50.536   4.712  19.552  0.00  0.00    +0.000 OA
ATOM     22  H   UNL     1      50.438   3.768  16.541  0.00  0.00    +0.000 HD
BRANCH  20  23
ATOM     23  C   UNL     1      52.290   3.717  18.335  0.00  0.00    +0.000 A 
ATOM     24  C   UNL     1      53.354   4.570  18.604  0.00  0.00    +0.000 A 
ATOM     25  S   UNL     1      54.885   3.844  18.388  0.00  0.00    +0.000 S 
ATOM     26  C   UNL     1      54.181   2.382  17.876  0.00  0.00    +0.000 A 
ATOM     27  N   UNL     1      54.950   1.325  17.500  0.00  0.00    +0.000 NA
ATOM     28  C   UNL     1      54.283   0.289  17.111  0.00  0.00    +0.000 A 
ATOM     29  N   UNL     1      52.915   0.215  17.073  0.00  0.00    +0.000 N 
ATOM     30  C   UNL     1      52.098   1.240  17.478  0.00  0.00    +0.000 A 
ATOM     31  O   UNL     1      50.878   1.115  17.490  0.00  0.00    +0.000 OA
ATOM     32  C   UNL     1      52.798   2.437  17.900  0.00  0.00    +0.000 A 
ATOM     33  H   UNL     1      52.452  -0.633  16.776  0.00  0.00    +0.000 HD
ENDBRANCH  20  23
ENDBRANCH  18  19
ENDBRANCH   4  18
TORSDOF 6
ENDMDL
MODEL 6
REMARK VINA RESULT:    -6.867      4.008      8.719
REMARK INTER + INTRA:         -10.224
REMARK INTER:                  -9.301
REMARK INTRA:                  -0.923
REMARK UNBOUND:                -0.948
REMARK  Name = 
REMARK  7 active torsions:
REMARK  status: ('A' for Active; 'I' for Inactive)
REMARK    1  A    between atoms: C_1  and  C_2
REMARK    2  A    between atoms: C_5  and  C_6
REMARK    3  A    between atoms: N_8  and  C_9
REMARK    4  A    between atoms: C_9  and  C_10
REMARK    5  A    between atoms: C_13  and  C_14
REMARK    6  A    between atoms: C_14  and  N_15
REMARK    7  A    between atoms: C_16  and  C_18
REMARK                            x       y       z     vdW  Elec       q    Type
REMARK                         _______ _______ _______ _____ _____    ______ ____
ROOT
ATOM      1  C   UNL     1      49.087   4.852  17.342  0.00  0.00    +0.000 A 
ATOM      2  C   UNL     1      49.774   5.985  16.880  0.00  0.00    +0.000 A 
ATOM      3  C   UNL     1      49.382   6.637  15.700  0.00  0.00    +0.000 A 
ATOM      4  C   UNL     1      48.276   6.188  14.964  0.00  0.00    +0.000 A 
ATOM      5  C   UNL     1      47.592   5.055  15.423  0.00  0.00    +0.000 A 
ATOM      6  C   UNL     1      47.986   4.402  16.601  0.00  0.00    +0.000 A 
ENDROOT
BRANCH   1   7
ATOM      7  C   UNL     1      49.523   4.135  18.600  0.00  0.00    +0.000 C 
BRANCH   7  10
ATOM      8  C   UNL     1      51.048   2.408  17.700  0.00  0.00    +0.000 C 
ATOM      9  O   UNL     1      50.148   1.842  17.078  0.00  0.00    +0.000 OA
ATOM     10  N   UNL     1      50.824   3.532  18.465  0.00  0.00    +0.000 N 
ATOM     11  H   UNL     1      51.632   3.963  18.901  0.00  0.00    +0.000 HD
BRANCH   8  16
ATOM     12  C   UNL     1      54.623  -0.656  16.612  0.00  0.00    +0.000 C 
ATOM     13  C   UNL     1      54.084   0.584  17.208  0.00  0.00    +0.000 A 
ATOM     14  C   UNL     1      54.653   1.639  17.884  0.00  0.00    +0.000 A 
ATOM     15  C   UNL     1      53.592   2.528  18.197  0.00  0.00    +0.000 A 
ATOM     16  C   UNL     1      52.433   1.963  17.692  0.00  0.00    +0.000 A 
ATOM     17  O   UNL     1      52.740   0.770  17.088  0.00  0.00    +0.000 OA
ENDBRANCH   8  16
ENDBRANCH   7  10
ENDBRANCH   1   7
BRANCH   4  18
ATOM     18  C   UNL     1      47.835   6.895  13.702  0.00  0.00    +0.000 C 
BRANCH  18  19
ATOM     19  N   UNL     1      47.162   6.009  12.787  0.00  0.00    +0.000 N 
ATOM     20  C   UNL     1      46.249   6.466  11.870  0.00  0.00    +0.000 C 
ATOM     21  O   UNL     1      45.975   7.658  11.759  0.00  0.00    +0.000 OA
ATOM     22  H   UNL     1      47.162   5.021  13.027  0.00  0.00    +0.000 HD
BRANCH  20  23
ATOM     23  C   UNL     1      45.659   5.458  10.976  0.00  0.00    +0.000 A 
ATOM     24  C   UNL     1      45.786   5.588   9.599  0.00  0.00    +0.000 A 
ATOM     25  S   UNL     1      45.074   4.308   8.721  0.00  0.00    +0.000 S 
ATOM     26  C   UNL     1      44.525   3.562  10.149  0.00  0.00    +0.000 A 
ATOM     27  N   UNL     1      43.798   2.413  10.106  0.00  0.00    +0.000 NA
ATOM     28  C   UNL     1      43.426   1.973  11.263  0.00  0.00    +0.000 A 
ATOM     29  N   UNL     1      43.723   2.575  12.457  0.00  0.00    +0.000 N 
ATOM     30  C   UNL     1      44.485   3.713  12.552  0.00  0.00    +0.000 A 
ATOM     31  O   UNL     1      44.784   4.190  13.641  0.00  0.00    +0.000 OA
ATOM     32  C   UNL     1      44.907   4.264  11.279  0.00  0.00    +0.000 A 
ATOM     33  H   UNL     1      43.419   2.169  13.331  0.00  0.00    +0.000 HD
ENDBRANCH  20  23
ENDBRANCH  18  19
ENDBRANCH   4  18
TORSDOF 6
ENDMDL
MODEL 7
REMARK VINA RESULT:    -6.725      1.922      2.562
REMARK INTER + INTRA:         -10.032
REMARK INTER:                  -9.008
REMARK INTRA:                  -1.023
REMARK UNBOUND:                -0.948
REMARK  Name = 
REMARK  7 active torsions:
REMARK  status: ('A' for Active; 'I' for Inactive)
REMARK    1  A    between atoms: C_1  and  C_2
REMARK    2  A    between atoms: C_5  and  C_6
REMARK    3  A    between atoms: N_8  and  C_9
REMARK    4  A    between atoms: C_9  and  C_10
REMARK    5  A    between atoms: C_13  and  C_14
REMARK    6  A    between atoms: C_14  and  N_15
REMARK    7  A    between atoms: C_16  and  C_18
REMARK                            x       y       z     vdW  Elec       q    Type
REMARK                         _______ _______ _______ _____ _____    ______ ____
ROOT
ATOM      1  C   UNL     1      46.109   6.847  12.912  0.00  0.00    +0.000 A 
ATOM      2  C   UNL     1      46.247   8.236  13.055  0.00  0.00    +0.000 A 
ATOM      3  C   UNL     1      47.354   8.786  13.723  0.00  0.00    +0.000 A 
ATOM      4  C   UNL     1      48.362   7.964  14.243  0.00  0.00    +0.000 A 
ATOM      5  C   UNL     1      48.223   6.577  14.103  0.00  0.00    +0.000 A 
ATOM      6  C   UNL     1      47.116   6.026  13.438  0.00  0.00    +0.000 A 
ENDROOT
BRANCH   1   7
ATOM      7  C   UNL     1      44.907   6.251  12.214  0.00  0.00    +0.000 C 
BRANCH   7  10
ATOM      8  C   UNL     1      44.368   4.711  10.355  0.00  0.00    +0.000 C 
ATOM      9  O   UNL     1      43.181   5.038  10.340  0.00  0.00    +0.000 OA
ATOM     10  N   UNL     1      45.274   5.257  11.240  0.00  0.00    +0.000 N 
ATOM     11  H   UNL     1      46.241   4.968  11.148  0.00  0.00    +0.000 HD
BRANCH   8  16
ATOM     12  C   UNL     1      46.643   3.324   6.323  0.00  0.00    +0.000 C 
ATOM     13  C   UNL     1      45.982   3.068   7.620  0.00  0.00    +0.000 A 
ATOM     14  C   UNL     1      45.719   1.928   8.343  0.00  0.00    +0.000 A 
ATOM     15  C   UNL     1      45.051   2.351   9.522  0.00  0.00    +0.000 A 
ATOM     16  C   UNL     1      44.944   3.729   9.450  0.00  0.00    +0.000 A 
ATOM     17  O   UNL     1      45.515   4.164   8.281  0.00  0.00    +0.000 OA
ENDBRANCH   8  16
ENDBRANCH   7  10
ENDBRANCH   1   7
BRANCH   4  18
ATOM     18  C   UNL     1      49.566   8.549  14.947  0.00  0.00    +0.000 C 
BRANCH  18  19
ATOM     19  N   UNL     1      49.761   7.982  16.257  0.00  0.00    +0.000 N 
ATOM     20  C   UNL     1      49.289   8.592  17.392  0.00  0.00    +0.000 C 
ATOM     21  O   UNL     1      48.652   9.641  17.353  0.00  0.00    +0.000 OA
ATOM     22  H   UNL     1      50.494   7.282  16.345  0.00  0.00    +0.000 HD
BRANCH  20  23
ATOM     23  C   UNL     1      49.531   7.890  18.661  0.00  0.00    +0.000 A 
ATOM     24  C   UNL     1      50.266   8.503  19.668  0.00  0.00    +0.000 A 
ATOM     25  S   UNL     1      50.412   7.557  21.082  0.00  0.00    +0.000 S 
ATOM     26  C   UNL     1      49.545   6.273  20.379  0.00  0.00    +0.000 A 
ATOM     27  N   UNL     1      49.333   5.114  21.058  0.00  0.00    +0.000 NA
ATOM     28  C   UNL     1      48.682   4.216  20.394  0.00  0.00    +0.000 A 
ATOM     29  N   UNL     1      48.219   4.379  19.114  0.00  0.00    +0.000 N 
ATOM     30  C   UNL     1      48.376   5.543  18.404  0.00  0.00    +0.000 A 
ATOM     31  O   UNL     1      47.894   5.675  17.284  0.00  0.00    +0.000 OA
ATOM     32  C   UNL     1      49.123   6.574  19.096  0.00  0.00    +0.000 A 
ATOM     33  H   UNL     1      47.698   3.644  18.655  0.00  0.00    +0.000 HD
ENDBRANCH  20  23
ENDBRANCH  18  19
ENDBRANCH   4  18
TORSDOF 6
ENDMDL
MODEL 8
REMARK VINA RESULT:    -6.713      3.352      4.559
REMARK INTER + INTRA:         -10.015
REMARK INTER:                  -8.985
REMARK INTRA:                  -1.030
REMARK UNBOUND:                -0.948
REMARK  Name = 
REMARK  7 active torsions:
REMARK  status: ('A' for Active; 'I' for Inactive)
REMARK    1  A    between atoms: C_1  and  C_2
REMARK    2  A    between atoms: C_5  and  C_6
REMARK    3  A    between atoms: N_8  and  C_9
REMARK    4  A    between atoms: C_9  and  C_10
REMARK    5  A    between atoms: C_13  and  C_14
REMARK    6  A    between atoms: C_14  and  N_15
REMARK    7  A    between atoms: C_16  and  C_18
REMARK                            x       y       z     vdW  Elec       q    Type
REMARK                         _______ _______ _______ _____ _____    ______ ____
ROOT
ATOM      1  C   UNL     1      45.019   6.016  11.594  0.00  0.00    +0.000 A 
ATOM      2  C   UNL     1      45.997   5.423  12.407  0.00  0.00    +0.000 A 
ATOM      3  C   UNL     1      46.827   6.207  13.225  0.00  0.00    +0.000 A 
ATOM      4  C   UNL     1      46.685   7.600  13.271  0.00  0.00    +0.000 A 
ATOM      5  C   UNL     1      45.711   8.192  12.456  0.00  0.00    +0.000 A 
ATOM      6  C   UNL     1      44.882   7.411  11.636  0.00  0.00    +0.000 A 
ENDROOT
BRANCH   1   7
ATOM      7  C   UNL     1      44.140   5.177  10.694  0.00  0.00    +0.000 C 
BRANCH   7  10
ATOM      8  C   UNL     1      44.666   3.094   9.467  0.00  0.00    +0.000 C 
ATOM      9  O   UNL     1      43.791   2.452  10.048  0.00  0.00    +0.000 OA
ATOM     10  N   UNL     1      44.900   4.428   9.727  0.00  0.00    +0.000 N 
ATOM     11  H   UNL     1      45.606   4.891   9.165  0.00  0.00    +0.000 HD
BRANCH   8  16
ATOM     12  C   UNL     1      47.070   3.159   5.276  0.00  0.00    +0.000 C 
ATOM     13  C   UNL     1      46.648   2.531   6.545  0.00  0.00    +0.000 A 
ATOM     14  C   UNL     1      46.917   1.321   7.141  0.00  0.00    +0.000 A 
ATOM     15  C   UNL     1      46.204   1.316   8.369  0.00  0.00    +0.000 A 
ATOM     16  C   UNL     1      45.540   2.528   8.451  0.00  0.00    +0.000 A 
ATOM     17  O   UNL     1      45.814   3.268   7.329  0.00  0.00    +0.000 OA
ENDBRANCH   8  16
ENDBRANCH   7  10
ENDBRANCH   1   7
BRANCH   4  18
ATOM     18  C   UNL     1      47.562   8.449  14.163  0.00  0.00    +0.000 C 
BRANCH  18  19
ATOM     19  N   UNL     1      48.948   8.399  13.772  0.00  0.00    +0.000 N 
ATOM     20  C   UNL     1      49.677   9.536  13.531  0.00  0.00    +0.000 C 
ATOM     21  O   UNL     1      49.198  10.659  13.660  0.00  0.00    +0.000 OA
ATOM     22  H   UNL     1      49.286   7.513  13.404  0.00  0.00    +0.000 HD
BRANCH  20  23
ATOM     23  C   UNL     1      51.089   9.343  13.169  0.00  0.00    +0.000 A 
ATOM     24  C   UNL     1      52.084  10.034  13.850  0.00  0.00    +0.000 A 
ATOM     25  S   UNL     1      53.664   9.657  13.323  0.00  0.00    +0.000 S 
ATOM     26  C   UNL     1      53.072   8.597  12.130  0.00  0.00    +0.000 A 
ATOM     27  N   UNL     1      53.917   7.949  11.284  0.00  0.00    +0.000 NA
ATOM     28  C   UNL     1      53.329   7.197  10.413  0.00  0.00    +0.000 A 
ATOM     29  N   UNL     1      51.973   7.030  10.319  0.00  0.00    +0.000 N 
ATOM     30  C   UNL     1      51.084   7.633  11.174  0.00  0.00    +0.000 A 
ATOM     31  O   UNL     1      49.880   7.411  11.100  0.00  0.00    +0.000 OA
ATOM     32  C   UNL     1      51.691   8.509  12.155  0.00  0.00    +0.000 A 
ATOM     33  H   UNL     1      51.574   6.411   9.627  0.00  0.00    +0.000 HD
ENDBRANCH  20  23
ENDBRANCH  18  19
ENDBRANCH   4  18
TORSDOF 6
ENDMDL
MODEL 9
REMARK VINA RESULT:    -6.604      5.076      7.873
REMARK INTER + INTRA:          -9.868
REMARK INTER:                  -8.939
REMARK INTRA:                  -0.929
REMARK UNBOUND:                -0.948
REMARK  Name = 
REMARK  7 active torsions:
REMARK  status: ('A' for Active; 'I' for Inactive)
REMARK    1  A    between atoms: C_1  and  C_2
REMARK    2  A    between atoms: C_5  and  C_6
REMARK    3  A    between atoms: N_8  and  C_9
REMARK    4  A    between atoms: C_9  and  C_10
REMARK    5  A    between atoms: C_13  and  C_14
REMARK    6  A    between atoms: C_14  and  N_15
REMARK    7  A    between atoms: C_16  and  C_18
REMARK                            x       y       z     vdW  Elec       q    Type
REMARK                         _______ _______ _______ _____ _____    ______ ____
ROOT
ATOM      1  C   UNL     1      50.648   8.870  11.460  0.00  0.00    +0.000 A 
ATOM      2  C   UNL     1      49.768   9.959  11.550  0.00  0.00    +0.000 A 
ATOM      3  C   UNL     1      48.397   9.761  11.784  0.00  0.00    +0.000 A 
ATOM      4  C   UNL     1      47.876   8.472  11.960  0.00  0.00    +0.000 A 
ATOM      5  C   UNL     1      48.755   7.385  11.867  0.00  0.00    +0.000 A 
ATOM      6  C   UNL     1      50.124   7.582  11.631  0.00  0.00    +0.000 A 
ENDROOT
BRANCH   1   7
ATOM      7  C   UNL     1      52.120   9.080  11.185  0.00  0.00    +0.000 C 
BRANCH   7  10
ATOM      8  C   UNL     1      53.424   7.971   9.398  0.00  0.00    +0.000 C 
ATOM      9  O   UNL     1      53.551   9.012   8.753  0.00  0.00    +0.000 OA
ATOM     10  N   UNL     1      52.739   7.922  10.594  0.00  0.00    +0.000 N 
ATOM     11  H   UNL     1      52.729   7.034  11.084  0.00  0.00    +0.000 HD
BRANCH   8  16
ATOM     12  C   UNL     1      53.587   3.991   6.663  0.00  0.00    +0.000 C 
ATOM     13  C   UNL     1      54.078   4.869   7.746  0.00  0.00    +0.000 A 
ATOM     14  C   UNL     1      55.125   4.787   8.634  0.00  0.00    +0.000 A 
ATOM     15  C   UNL     1      55.063   5.961   9.430  0.00  0.00    +0.000 A 
ATOM     16  C   UNL     1      53.978   6.693   8.981  0.00  0.00    +0.000 A 
ATOM     17  O   UNL     1      53.376   6.018   7.949  0.00  0.00    +0.000 OA
ENDBRANCH   8  16
ENDBRANCH   7  10
ENDBRANCH   1   7
BRANCH   4  18
ATOM     18  C   UNL     1      46.405   8.251  12.231  0.00  0.00    +0.000 C 
BRANCH  18  19
ATOM     19  N   UNL     1      45.994   6.899  11.948  0.00  0.00    +0.000 N 
ATOM     20  C   UNL     1      44.713   6.593  11.566  0.00  0.00    +0.000 C 
ATOM     21  O   UNL     1      43.851   7.455  11.417  0.00  0.00    +0.000 OA
ATOM     22  H   UNL     1      46.587   6.158  12.313  0.00  0.00    +0.000 HD
BRANCH  20  23
ATOM     23  C   UNL     1      44.437   5.177  11.278  0.00  0.00    +0.000 A 
ATOM     24  C   UNL     1      43.666   4.425  12.156  0.00  0.00    +0.000 A 
ATOM     25  S   UNL     1      43.417   2.815  11.642  0.00  0.00    +0.000 S 
ATOM     26  C   UNL     1      44.376   3.052  10.256  0.00  0.00    +0.000 A 
ATOM     27  N   UNL     1      44.606   2.037   9.380  0.00  0.00    +0.000 NA
ATOM     28  C   UNL     1      45.371   2.351   8.387  0.00  0.00    +0.000 A 
ATOM     29  N   UNL     1      45.919   3.591   8.190  0.00  0.00    +0.000 N 
ATOM     30  C   UNL     1      45.685   4.654   9.025  0.00  0.00    +0.000 A 
ATOM     31  O   UNL     1      46.141   5.767   8.783  0.00  0.00    +0.000 OA
ATOM     32  C   UNL     1      44.852   4.348  10.171  0.00  0.00    +0.000 A 
ATOM     33  H   UNL     1      46.495   3.779   7.381  0.00  0.00    +0.000 HD
ENDBRANCH  20  23
ENDBRANCH  18  19
ENDBRANCH   4  18
TORSDOF 6
ENDMDL
