MODEL 1
REMARK VINA RESULT:    -8.118      0.000      0.000
REMARK INTER + INTRA:         -12.763
REMARK INTER:                 -11.439
REMARK INTRA:                  -1.324
REMARK UNBOUND:                -1.324
REMARK  Name = 
REMARK  8 active torsions:
REMARK  status: ('A' for Active; 'I' for Inactive)
REMARK    1  A    between atoms: C_1  and  O_2
REMARK    2  A    between atoms: O_2  and  C_3
REMARK    3  A    between atoms: C_10  and  C_11
REMARK    4  A    between atoms: N_13  and  C_14
REMARK    5  A    between atoms: C_14  and  C_15
REMARK    6  A    between atoms: C_18  and  N_19
REMARK    7  A    between atoms: N_19  and  C_20
REMARK    8  A    between atoms: C_20  and  C_21
REMARK                            x       y       z     vdW  Elec       q    Type
REMARK                         _______ _______ _______ _____ _____    ______ ____
ROOT
ATOM      1  C   UNL     1      46.772   7.971  13.146  0.00  0.00    +0.000 C 
ENDROOT
BRANCH   1   2
ATOM      2  C   UNL     1      46.101   6.921  12.295  0.00  0.00    +0.000 A 
ATOM      3  C   UNL     1      46.661   6.549  11.069  0.00  0.00    +0.000 A 
ATOM      4  C   UNL     1      45.989   5.671  10.209  0.00  0.00    +0.000 A 
ATOM      5  C   UNL     1      44.746   5.124  10.542  0.00  0.00    +0.000 A 
ATOM      6  C   UNL     1      44.209   5.472  11.789  0.00  0.00    +0.000 A 
ATOM      7  C   UNL     1      44.872   6.357  12.657  0.00  0.00    +0.000 A 
BRANCH   5   8
ATOM      8  N   UNL     1      43.973   4.371   9.659  0.00  0.00    +0.000 N 
ATOM      9  H   UNL     1      42.979   4.602   9.667  0.00  0.00    +0.000 HD
BRANCH   8  10
ATOM     10  C   UNL     1      44.228   2.944   9.460  0.00  0.00    +0.000 C 
BRANCH  10  11
ATOM     11  C   UNL     1      45.534   2.689   8.658  0.00  0.00    +0.000 C 
ATOM     12  C   UNL     1      45.556   3.461   7.326  0.00  0.00    +0.000 C 
ATOM     13  C   UNL     1      46.826   3.168   6.527  0.00  0.00    +0.000 C 
ATOM     14  C   UNL     1      47.033   1.664   6.380  0.00  0.00    +0.000 C 
ATOM     15  C   UNL     1      46.997   0.974   7.739  0.00  0.00    +0.000 C 
ATOM     16  N   UNL     1      45.736   1.241   8.435  0.00  0.00    +0.000 NA
ATOM     17  H   UNL     1      45.748   0.764   9.337  0.00  0.00    +0.000 HD
ENDBRANCH  10  11
ENDBRANCH   8  10
ENDBRANCH   5   8
ENDBRANCH   1   2
BRANCH   1  20
ATOM     18  C   UNL     1      48.548   6.933  14.520  0.00  0.00    +0.000 C 
ATOM     19  O   UNL     1      49.352   7.007  13.595  0.00  0.00    +0.000 OA
ATOM     20  N   UNL     1      47.266   7.396  14.379  0.00  0.00    +0.000 N 
ATOM     21  H   UNL     1      46.648   7.415  15.178  0.00  0.00    +0.000 HD
BRANCH  18  29
ATOM     22  C   UNL     1      47.412   4.173  16.240  0.00  0.00    +0.000 A 
ATOM     23  N   UNL     1      47.240   3.108  17.050  0.00  0.00    +0.000 NA
ATOM     24  C   UNL     1      48.041   2.984  18.113  0.00  0.00    +0.000 A 
ATOM     25  N   UNL     1      49.002   3.825  18.485  0.00  0.00    +0.000 NA
ATOM     26  C   UNL     1      49.147   4.866  17.650  0.00  0.00    +0.000 A 
ATOM     27  S   UNL     1      50.315   6.051  17.981  0.00  0.00    +0.000 S 
ATOM     28  C   UNL     1      49.918   6.909  16.569  0.00  0.00    +0.000 A 
ATOM     29  C   UNL     1      48.913   6.317  15.811  0.00  0.00    +0.000 A 
ATOM     30  C   UNL     1      48.422   5.120  16.488  0.00  0.00    +0.000 A 
BRANCH  22  32
ATOM     31  C   UNL     1      46.963   3.650  13.992  0.00  0.00    +0.000 C 
ATOM     32  O   UNL     1      46.553   4.334  15.175  0.00  0.00    +0.000 OA
ENDBRANCH  22  32
ENDBRANCH  18  29
ENDBRANCH   1  20
TORSDOF 7
ENDMDL
MODEL 2
REMARK VINA RESULT:    -7.591      1.718      2.335
REMARK INTER + INTRA:         -12.021
REMARK INTER:                 -10.953
REMARK INTRA:                  -1.068
REMARK UNBOUND:                -1.324
REMARK  Name = 
REMARK  8 active torsions:
REMARK  status: ('A' for Active; 'I' for Inactive)
REMARK    1  A    between atoms: C_1  and  O_2
REMARK    2  A    between atoms: O_2  and  C_3
REMARK    3  A    between atoms: C_10  and  C_11
REMARK    4  A    between atoms: N_13  and  C_14
REMARK    5  A    between atoms: C_14  and  C_15
REMARK    6  A    between atoms: C_18  and  N_19
REMARK    7  A    between atoms: N_19  and  C_20
REMARK    8  A    between atoms: C_20  and  C_21
REMARK                            x       y       z     vdW  Elec       q    Type
REMARK                         _______ _______ _______ _____ _____    ______ ____
ROOT
ATOM      1  C   UNL     1      45.279   8.376  12.636  0.00  0.00    +0.000 C 
ENDROOT
BRANCH   1   2
ATOM      2  C   UNL     1      45.050   6.961  12.164  0.00  0.00    +0.000 A 
ATOM      3  C   UNL     1      44.527   6.005  13.041  0.00  0.00    +0.000 A 
ATOM      4  C   UNL     1      44.426   4.661  12.659  0.00  0.00    +0.000 A 
ATOM      5  C   UNL     1      44.829   4.223  11.395  0.00  0.00    +0.000 A 
ATOM      6  C   UNL     1      45.317   5.194  10.509  0.00  0.00    +0.000 A 
ATOM      7  C   UNL     1      45.429   6.543  10.882  0.00  0.00    +0.000 A 
BRANCH   5   8
ATOM      8  N   UNL     1      44.890   2.879  11.026  0.00  0.00    +0.000 N 
ATOM      9  H   UNL     1      45.693   2.375  11.403  0.00  0.00    +0.000 HD
BRANCH   8  10
ATOM     10  C   UNL     1      44.526   2.449   9.676  0.00  0.00    +0.000 C 
BRANCH  10  11
ATOM     11  C   UNL     1      45.748   2.438   8.716  0.00  0.00    +0.000 C 
ATOM     12  C   UNL     1      45.548   3.379   7.514  0.00  0.00    +0.000 C 
ATOM     13  C   UNL     1      46.737   3.327   6.555  0.00  0.00    +0.000 C 
ATOM     14  C   UNL     1      47.056   1.886   6.172  0.00  0.00    +0.000 C 
ATOM     15  C   UNL     1      47.238   1.020   7.415  0.00  0.00    +0.000 C 
ATOM     16  N   UNL     1      46.048   1.061   8.267  0.00  0.00    +0.000 NA
ATOM     17  H   UNL     1      46.206   0.472   9.085  0.00  0.00    +0.000 HD
ENDBRANCH  10  11
ENDBRANCH   8  10
ENDBRANCH   5   8
ENDBRANCH   1   2
BRANCH   1  20
ATOM     18  C   UNL     1      47.588   8.724  13.453  0.00  0.00    +0.000 C 
ATOM     19  O   UNL     1      47.979   9.010  12.324  0.00  0.00    +0.000 OA
ATOM     20  N   UNL     1      46.274   8.413  13.686  0.00  0.00    +0.000 N 
ATOM     21  H   UNL     1      45.951   8.275  14.633  0.00  0.00    +0.000 HD
BRANCH  18  29
ATOM     22  C   UNL     1      48.724   6.178  15.475  0.00  0.00    +0.000 A 
ATOM     23  N   UNL     1      49.400   5.375  16.322  0.00  0.00    +0.000 NA
ATOM     24  C   UNL     1      50.323   5.923  17.118  0.00  0.00    +0.000 A 
ATOM     25  N   UNL     1      50.647   7.211  17.187  0.00  0.00    +0.000 NA
ATOM     26  C   UNL     1      49.958   7.977  16.325  0.00  0.00    +0.000 A 
ATOM     27  S   UNL     1      50.228   9.652  16.290  0.00  0.00    +0.000 S 
ATOM     28  C   UNL     1      49.105   9.857  15.031  0.00  0.00    +0.000 A 
ATOM     29  C   UNL     1      48.516   8.673  14.599  0.00  0.00    +0.000 A 
ATOM     30  C   UNL     1      48.996   7.557  15.411  0.00  0.00    +0.000 A 
BRANCH  22  32
ATOM     31  C   UNL     1      47.207   4.403  15.207  0.00  0.00    +0.000 C 
ATOM     32  O   UNL     1      47.734   5.626  14.694  0.00  0.00    +0.000 OA
ENDBRANCH  22  32
ENDBRANCH  18  29
ENDBRANCH   1  20
TORSDOF 7
ENDMDL
MODEL 3
REMARK VINA RESULT:    -7.535      1.263      2.030
REMARK INTER + INTRA:         -11.943
REMARK INTER:                 -10.663
REMARK INTRA:                  -1.280
REMARK UNBOUND:                -1.324
REMARK  Name = 
REMARK  8 active torsions:
REMARK  status: ('A' for Active; 'I' for Inactive)
REMARK    1  A    between atoms: C_1  and  O_2
REMARK    2  A    between atoms: O_2  and  C_3
REMARK    3  A    between atoms: C_10  and  C_11
REMARK    4  A    between atoms: N_13  and  C_14
REMARK    5  A    between atoms: C_14  and  C_15
REMARK    6  A    between atoms: C_18  and  N_19
REMARK    7  A    between atoms: N_19  and  C_20
REMARK    8  A    between atoms: C_20  and  C_21
REMARK                            x       y       z     vdW  Elec       q    Type
REMARK                         _______ _______ _______ _____ _____    ______ ____
ROOT
ATOM      1  C   UNL     1      48.136   8.817  14.147  0.00  0.00    +0.000 C 
ENDROOT
BRANCH   1   2
ATOM      2  C   UNL     1      47.194   8.264  13.106  0.00  0.00    +0.000 A 
ATOM      3  C   UNL     1      45.894   8.767  12.999  0.00  0.00    +0.000 A 
ATOM      4  C   UNL     1      44.967   8.182  12.126  0.00  0.00    +0.000 A 
ATOM      5  C   UNL     1      45.303   7.087  11.324  0.00  0.00    +0.000 A 
ATOM      6  C   UNL     1      46.619   6.613  11.410  0.00  0.00    +0.000 A 
ATOM      7  C   UNL     1      47.555   7.188  12.286  0.00  0.00    +0.000 A 
BRANCH   5   8
ATOM      8  N   UNL     1      44.377   6.379  10.558  0.00  0.00    +0.000 N 
ATOM      9  H   UNL     1      43.551   6.916  10.294  0.00  0.00    +0.000 HD
BRANCH   8  10
ATOM     10  C   UNL     1      44.080   4.975  10.840  0.00  0.00    +0.000 C 
BRANCH  10  11
ATOM     11  C   UNL     1      44.369   4.058   9.619  0.00  0.00    +0.000 C 
ATOM     12  C   UNL     1      44.785   2.638  10.046  0.00  0.00    +0.000 C 
ATOM     13  C   UNL     1      45.107   1.759   8.838  0.00  0.00    +0.000 C 
ATOM     14  C   UNL     1      46.108   2.454   7.920  0.00  0.00    +0.000 C 
ATOM     15  C   UNL     1      45.625   3.851   7.545  0.00  0.00    +0.000 C 
ATOM     16  N   UNL     1      45.388   4.667   8.737  0.00  0.00    +0.000 NA
ATOM     17  H   UNL     1      45.067   5.591   8.448  0.00  0.00    +0.000 HD
ENDBRANCH  10  11
ENDBRANCH   8  10
ENDBRANCH   5   8
ENDBRANCH   1   2
BRANCH   1  20
ATOM     18  C   UNL     1      49.365   7.096  15.431  0.00  0.00    +0.000 C 
ATOM     19  O   UNL     1      50.306   7.134  14.644  0.00  0.00    +0.000 OA
ATOM     20  N   UNL     1      48.269   7.901  15.259  0.00  0.00    +0.000 N 
ATOM     21  H   UNL     1      47.548   7.926  15.967  0.00  0.00    +0.000 HD
BRANCH  18  29
ATOM     22  C   UNL     1      47.484   4.319  16.216  0.00  0.00    +0.000 A 
ATOM     23  N   UNL     1      46.985   3.164  16.704  0.00  0.00    +0.000 NA
ATOM     24  C   UNL     1      47.519   2.664  17.822  0.00  0.00    +0.000 A 
ATOM     25  N   UNL     1      48.501   3.201  18.542  0.00  0.00    +0.000 NA
ATOM     26  C   UNL     1      48.975   4.345  18.020  0.00  0.00    +0.000 A 
ATOM     27  S   UNL     1      50.219   5.178  18.818  0.00  0.00    +0.000 S 
ATOM     28  C   UNL     1      50.261   6.373  17.610  0.00  0.00    +0.000 A 
ATOM     29  C   UNL     1      49.355   6.164  16.576  0.00  0.00    +0.000 A 
ATOM     30  C   UNL     1      48.554   4.973  16.851  0.00  0.00    +0.000 A 
BRANCH  22  32
ATOM     31  C   UNL     1      46.895   3.998  13.962  0.00  0.00    +0.000 C 
ATOM     32  O   UNL     1      46.899   4.865  15.095  0.00  0.00    +0.000 OA
ENDBRANCH  22  32
ENDBRANCH  18  29
ENDBRANCH   1  20
TORSDOF 7
ENDMDL
MODEL 4
REMARK VINA RESULT:    -7.510      1.737      2.275
REMARK INTER + INTRA:         -11.907
REMARK INTER:                 -10.918
REMARK INTRA:                  -0.989
REMARK UNBOUND:                -1.324
REMARK  Name = 
REMARK  8 active torsions:
REMARK  status: ('A' for Active; 'I' for Inactive)
REMARK    1  A    between atoms: C_1  and  O_2
REMARK    2  A    between atoms: O_2  and  C_3
REMARK    3  A    between atoms: C_10  and  C_11
REMARK    4  A    between atoms: N_13  and  C_14
REMARK    5  A    between atoms: C_14  and  C_15
REMARK    6  A    between atoms: C_18  and  N_19
REMARK    7  A    between atoms: N_19  and  C_20
REMARK    8  A    between atoms: C_20  and  C_21
REMARK                            x       y       z     vdW  Elec       q    Type
REMARK                         _______ _______ _______ _____ _____    ______ ____
ROOT
ATOM      1  C   UNL     1      48.151   7.366  13.407  0.00  0.00    +0.000 C 
ENDROOT
BRANCH   1   2
ATOM      2  C   UNL     1      47.098   6.510  12.747  0.00  0.00    +0.000 A 
ATOM      3  C   UNL     1      46.628   5.359  13.387  0.00  0.00    +0.000 A 
ATOM      4  C   UNL     1      45.746   4.485  12.738  0.00  0.00    +0.000 A 
ATOM      5  C   UNL     1      45.293   4.731  11.438  0.00  0.00    +0.000 A 
ATOM      6  C   UNL     1      45.739   5.906  10.818  0.00  0.00    +0.000 A 
ATOM      7  C   UNL     1      46.628   6.786  11.457  0.00  0.00    +0.000 A 
BRANCH   5   8
ATOM      8  N   UNL     1      44.541   3.818  10.698  0.00  0.00    +0.000 N 
ATOM      9  H   UNL     1      44.808   2.843  10.834  0.00  0.00    +0.000 HD
BRANCH   8  10
ATOM     10  C   UNL     1      44.133   4.114   9.325  0.00  0.00    +0.000 C 
BRANCH  10  11
ATOM     11  C   UNL     1      44.921   3.271   8.285  0.00  0.00    +0.000 C 
ATOM     12  C   UNL     1      45.587   2.038   8.924  0.00  0.00    +0.000 C 
ATOM     13  C   UNL     1      46.395   1.240   7.901  0.00  0.00    +0.000 C 
ATOM     14  C   UNL     1      47.359   2.152   7.150  0.00  0.00    +0.000 C 
ATOM     15  C   UNL     1      46.625   3.346   6.549  0.00  0.00    +0.000 C 
ATOM     16  N   UNL     1      45.918   4.106   7.581  0.00  0.00    +0.000 NA
ATOM     17  H   UNL     1      45.440   4.895   7.143  0.00  0.00    +0.000 HD
ENDBRANCH  10  11
ENDBRANCH   8  10
ENDBRANCH   5   8
ENDBRANCH   1   2
BRANCH   1  20
ATOM     18  C   UNL     1      48.982   7.025  15.711  0.00  0.00    +0.000 C 
ATOM     19  O   UNL     1      50.092   6.703  15.298  0.00  0.00    +0.000 OA
ATOM     20  N   UNL     1      47.981   7.375  14.843  0.00  0.00    +0.000 N 
ATOM     21  H   UNL     1      47.105   7.728  15.203  0.00  0.00    +0.000 HD
BRANCH  18  29
ATOM     22  C   UNL     1      48.882   4.557  18.112  0.00  0.00    +0.000 A 
ATOM     23  N   UNL     1      48.876   3.826  19.246  0.00  0.00    +0.000 NA
ATOM     24  C   UNL     1      48.640   4.450  20.404  0.00  0.00    +0.000 A 
ATOM     25  N   UNL     1      48.382   5.745  20.569  0.00  0.00    +0.000 NA
ATOM     26  C   UNL     1      48.404   6.440  19.419  0.00  0.00    +0.000 A 
ATOM     27  S   UNL     1      48.077   8.105  19.439  0.00  0.00    +0.000 S 
ATOM     28  C   UNL     1      48.319   8.223  17.761  0.00  0.00    +0.000 A 
ATOM     29  C   UNL     1      48.666   7.021  17.153  0.00  0.00    +0.000 A 
ATOM     30  C   UNL     1      48.668   5.947  18.144  0.00  0.00    +0.000 A 
BRANCH  22  32
ATOM     31  C   UNL     1      49.386   2.523  17.046  0.00  0.00    +0.000 C 
ATOM     32  O   UNL     1      49.069   3.908  16.912  0.00  0.00    +0.000 OA
ENDBRANCH  22  32
ENDBRANCH  18  29
ENDBRANCH   1  20
TORSDOF 7
ENDMDL
MODEL 5
REMARK VINA RESULT:    -7.146      2.048      3.669
REMARK INTER + INTRA:         -11.393
REMARK INTER:                 -10.190
REMARK INTRA:                  -1.203
REMARK UNBOUND:                -1.324
REMARK  Name = 
REMARK  8 active torsions:
REMARK  status: ('A' for Active; 'I' for Inactive)
REMARK    1  A    between atoms: C_1  and  O_2
REMARK    2  A    between atoms: O_2  and  C_3
REMARK    3  A    between atoms: C_10  and  C_11
REMARK    4  A    between atoms: N_13  and  C_14
REMARK    5  A    between atoms: C_14  and  C_15
REMARK    6  A    between atoms: C_18  and  N_19
REMARK    7  A    between atoms: N_19  and  C_20
REMARK    8  A    between atoms: C_20  and  C_21
REMARK                            x       y       z     vdW  Elec       q    Type
REMARK                         _______ _______ _______ _____ _____    ______ ____
ROOT
ATOM      1  C   UNL     1      47.083   4.249  14.952  0.00  0.00    +0.000 C 
ENDROOT
BRANCH   1   2
ATOM      2  C   UNL     1      46.444   4.560  13.621  0.00  0.00    +0.000 A 
ATOM      3  C   UNL     1      45.563   3.645  13.036  0.00  0.00    +0.000 A 
ATOM      4  C   UNL     1      45.059   3.858  11.746  0.00  0.00    +0.000 A 
ATOM      5  C   UNL     1      45.403   4.990  11.000  0.00  0.00    +0.000 A 
ATOM      6  C   UNL     1      46.256   5.920  11.609  0.00  0.00    +0.000 A 
ATOM      7  C   UNL     1      46.772   5.713  12.899  0.00  0.00    +0.000 A 
BRANCH   5   8
ATOM      8  N   UNL     1      45.050   5.168   9.663  0.00  0.00    +0.000 N 
ATOM      9  H   UNL     1      44.818   6.130   9.413  0.00  0.00    +0.000 HD
BRANCH   8  10
ATOM     10  C   UNL     1      44.232   4.181   8.959  0.00  0.00    +0.000 C 
BRANCH  10  11
ATOM     11  C   UNL     1      45.077   3.291   8.006  0.00  0.00    +0.000 C 
ATOM     12  C   UNL     1      45.637   2.047   8.719  0.00  0.00    +0.000 C 
ATOM     13  C   UNL     1      46.502   1.203   7.783  0.00  0.00    +0.000 C 
ATOM     14  C   UNL     1      47.563   2.066   7.108  0.00  0.00    +0.000 C 
ATOM     15  C   UNL     1      46.929   3.275   6.428  0.00  0.00    +0.000 C 
ATOM     16  N   UNL     1      46.163   4.078   7.382  0.00  0.00    +0.000 NA
ATOM     17  H   UNL     1      45.755   4.875   6.891  0.00  0.00    +0.000 HD
ENDBRANCH  10  11
ENDBRANCH   8  10
ENDBRANCH   5   8
ENDBRANCH   1   2
BRANCH   1  20
ATOM     18  C   UNL     1      48.518   5.398  16.608  0.00  0.00    +0.000 C 
ATOM     19  O   UNL     1      48.832   4.330  17.125  0.00  0.00    +0.000 OA
ATOM     20  N   UNL     1      47.673   5.437  15.530  0.00  0.00    +0.000 N 
ATOM     21  H   UNL     1      47.502   6.314  15.057  0.00  0.00    +0.000 HD
BRANCH  18  29
ATOM     22  C   UNL     1      50.010   8.146  15.163  0.00  0.00    +0.000 A 
ATOM     23  N   UNL     1      50.492   9.366  14.847  0.00  0.00    +0.000 NA
ATOM     24  C   UNL     1      50.601  10.277  15.819  0.00  0.00    +0.000 A 
ATOM     25  N   UNL     1      50.300  10.106  17.104  0.00  0.00    +0.000 NA
ATOM     26  C   UNL     1      49.817   8.883  17.377  0.00  0.00    +0.000 A 
ATOM     27  S   UNL     1      49.399   8.483  18.972  0.00  0.00    +0.000 S 
ATOM     28  C   UNL     1      48.891   6.930  18.502  0.00  0.00    +0.000 A 
ATOM     29  C   UNL     1      49.010   6.685  17.138  0.00  0.00    +0.000 A 
ATOM     30  C   UNL     1      49.610   7.841  16.477  0.00  0.00    +0.000 A 
BRANCH  22  32
ATOM     31  C   UNL     1      49.876   7.722  12.855  0.00  0.00    +0.000 C 
ATOM     32  O   UNL     1      49.949   7.188  14.176  0.00  0.00    +0.000 OA
ENDBRANCH  22  32
ENDBRANCH  18  29
ENDBRANCH   1  20
TORSDOF 7
ENDMDL
MODEL 6
REMARK VINA RESULT:    -7.033      1.978      2.423
REMARK INTER + INTRA:         -11.235
REMARK INTER:                 -10.066
REMARK INTRA:                  -1.169
REMARK UNBOUND:                -1.324
REMARK  Name = 
REMARK  8 active torsions:
REMARK  status: ('A' for Active; 'I' for Inactive)
REMARK    1  A    between atoms: C_1  and  O_2
REMARK    2  A    between atoms: O_2  and  C_3
REMARK    3  A    between atoms: C_10  and  C_11
REMARK    4  A    between atoms: N_13  and  C_14
REMARK    5  A    between atoms: C_14  and  C_15
REMARK    6  A    between atoms: C_18  and  N_19
REMARK    7  A    between atoms: N_19  and  C_20
REMARK    8  A    between atoms: C_20  and  C_21
REMARK                            x       y       z     vdW  Elec       q    Type
REMARK                         _______ _______ _______ _____ _____    ______ ____
ROOT
ATOM      1  C   UNL     1      48.159   7.075  14.406  0.00  0.00    +0.000 C 
ENDROOT
BRANCH   1   2
ATOM      2  C   UNL     1      47.179   6.192  13.673  0.00  0.00    +0.000 A 
ATOM      3  C   UNL     1      46.192   6.762  12.863  0.00  0.00    +0.000 A 
ATOM      4  C   UNL     1      45.198   5.968  12.277  0.00  0.00    +0.000 A 
ATOM      5  C   UNL     1      45.156   4.583  12.467  0.00  0.00    +0.000 A 
ATOM      6  C   UNL     1      46.170   4.016  13.250  0.00  0.00    +0.000 A 
ATOM      7  C   UNL     1      47.169   4.803  13.847  0.00  0.00    +0.000 A 
BRANCH   5   8
ATOM      8  N   UNL     1      44.105   3.776  12.033  0.00  0.00    +0.000 N 
ATOM      9  H   UNL     1      44.026   2.886  12.525  0.00  0.00    +0.000 HD
BRANCH   8  10
ATOM     10  C   UNL     1      43.765   3.678  10.613  0.00  0.00    +0.000 C 
BRANCH  10  11
ATOM     11  C   UNL     1      44.999   3.321   9.738  0.00  0.00    +0.000 C 
ATOM     12  C   UNL     1      45.240   4.359   8.627  0.00  0.00    +0.000 C 
ATOM     13  C   UNL     1      46.429   3.975   7.747  0.00  0.00    +0.000 C 
ATOM     14  C   UNL     1      46.285   2.543   7.243  0.00  0.00    +0.000 C 
ATOM     15  C   UNL     1      46.048   1.580   8.401  0.00  0.00    +0.000 C 
ATOM     16  N   UNL     1      44.864   1.961   9.174  0.00  0.00    +0.000 NA
ATOM     17  H   UNL     1      44.738   1.296   9.937  0.00  0.00    +0.000 HD
ENDBRANCH  10  11
ENDBRANCH   8  10
ENDBRANCH   5   8
ENDBRANCH   1   2
BRANCH   1  20
ATOM     18  C   UNL     1      49.284   6.409  16.506  0.00  0.00    +0.000 C 
ATOM     19  O   UNL     1      48.613   7.204  17.156  0.00  0.00    +0.000 OA
ATOM     20  N   UNL     1      49.110   6.280  15.153  0.00  0.00    +0.000 N 
ATOM     21  H   UNL     1      49.602   5.555  14.649  0.00  0.00    +0.000 HD
BRANCH  18  29
ATOM     22  C   UNL     1      49.744   3.010  16.825  0.00  0.00    +0.000 A 
ATOM     23  N   UNL     1      50.217   1.758  16.994  0.00  0.00    +0.000 NA
ATOM     24  C   UNL     1      51.412   1.602  17.571  0.00  0.00    +0.000 A 
ATOM     25  N   UNL     1      52.203   2.568  18.031  0.00  0.00    +0.000 NA
ATOM     26  C   UNL     1      51.702   3.800  17.838  0.00  0.00    +0.000 A 
ATOM     27  S   UNL     1      52.569   5.153  18.380  0.00  0.00    +0.000 S 
ATOM     28  C   UNL     1      51.387   6.215  17.776  0.00  0.00    +0.000 A 
ATOM     29  C   UNL     1      50.326   5.579  17.142  0.00  0.00    +0.000 A 
ATOM     30  C   UNL     1      50.496   4.130  17.224  0.00  0.00    +0.000 A 
BRANCH  22  32
ATOM     31  C   UNL     1      47.446   3.259  17.251  0.00  0.00    +0.000 C 
ATOM     32  O   UNL     1      48.489   3.171  16.282  0.00  0.00    +0.000 OA
ENDBRANCH  22  32
ENDBRANCH  18  29
ENDBRANCH   1  20
TORSDOF 7
ENDMDL
MODEL 7
REMARK VINA RESULT:    -6.858      3.910      8.845
REMARK INTER + INTRA:         -10.989
REMARK INTER:                 -10.016
REMARK INTRA:                  -0.973
REMARK UNBOUND:                -1.324
REMARK  Name = 
REMARK  8 active torsions:
REMARK  status: ('A' for Active; 'I' for Inactive)
REMARK    1  A    between atoms: C_1  and  O_2
REMARK    2  A    between atoms: O_2  and  C_3
REMARK    3  A    between atoms: C_10  and  C_11
REMARK    4  A    between atoms: N_13  and  C_14
REMARK    5  A    between atoms: C_14  and  C_15
REMARK    6  A    between atoms: C_18  and  N_19
REMARK    7  A    between atoms: N_19  and  C_20
REMARK    8  A    between atoms: C_20  and  C_21
REMARK                            x       y       z     vdW  Elec       q    Type
REMARK                         _______ _______ _______ _____ _____    ______ ____
ROOT
ATOM      1  C   UNL     1      47.243   3.328  17.024  0.00  0.00    +0.000 C 
ENDROOT
BRANCH   1   2
ATOM      2  C   UNL     1      48.706   3.379  17.391  0.00  0.00    +0.000 A 
ATOM      3  C   UNL     1      49.286   4.584  17.798  0.00  0.00    +0.000 A 
ATOM      4  C   UNL     1      50.666   4.678  18.021  0.00  0.00    +0.000 A 
ATOM      5  C   UNL     1      51.513   3.578  17.857  0.00  0.00    +0.000 A 
ATOM      6  C   UNL     1      50.919   2.365  17.484  0.00  0.00    +0.000 A 
ATOM      7  C   UNL     1      49.537   2.261  17.253  0.00  0.00    +0.000 A 
BRANCH   5   8
ATOM      8  N   UNL     1      52.904   3.661  17.917  0.00  0.00    +0.000 N 
ATOM      9  H   UNL     1      53.369   3.612  17.011  0.00  0.00    +0.000 HD
BRANCH   8  10
ATOM     10  C   UNL     1      53.654   2.993  18.981  0.00  0.00    +0.000 C 
BRANCH  10  11
ATOM     11  C   UNL     1      54.401   1.731  18.468  0.00  0.00    +0.000 C 
ATOM     12  C   UNL     1      54.763   1.838  16.975  0.00  0.00    +0.000 C 
ATOM     13  C   UNL     1      55.458   0.574  16.472  0.00  0.00    +0.000 C 
ATOM     14  C   UNL     1      54.644  -0.665  16.830  0.00  0.00    +0.000 C 
ATOM     15  C   UNL     1      54.327  -0.697  18.321  0.00  0.00    +0.000 C 
ATOM     16  N   UNL     1      53.610   0.510  18.736  0.00  0.00    +0.000 NA
ATOM     17  H   UNL     1      53.416   0.453  19.736  0.00  0.00    +0.000 HD
ENDBRANCH  10  11
ENDBRANCH   8  10
ENDBRANCH   5   8
ENDBRANCH   1   2
BRANCH   1  20
ATOM     18  C   UNL     1      47.010   4.139  14.699  0.00  0.00    +0.000 C 
ATOM     19  O   UNL     1      47.354   3.049  14.250  0.00  0.00    +0.000 OA
ATOM     20  N   UNL     1      46.921   4.348  16.050  0.00  0.00    +0.000 N 
ATOM     21  H   UNL     1      46.546   5.219  16.400  0.00  0.00    +0.000 HD
BRANCH  18  29
ATOM     22  C   UNL     1      44.349   4.913  12.653  0.00  0.00    +0.000 A 
ATOM     23  N   UNL     1      43.411   5.501  11.883  0.00  0.00    +0.000 NA
ATOM     24  C   UNL     1      43.652   6.731  11.417  0.00  0.00    +0.000 A 
ATOM     25  N   UNL     1      44.752   7.453  11.615  0.00  0.00    +0.000 NA
ATOM     26  C   UNL     1      45.658   6.836  12.392  0.00  0.00    +0.000 A 
ATOM     27  S   UNL     1      47.131   7.604  12.734  0.00  0.00    +0.000 S 
ATOM     28  C   UNL     1      47.639   6.307  13.707  0.00  0.00    +0.000 A 
ATOM     29  C   UNL     1      46.708   5.278  13.810  0.00  0.00    +0.000 A 
ATOM     30  C   UNL     1      45.543   5.579  12.981  0.00  0.00    +0.000 A 
BRANCH  22  32
ATOM     31  C   UNL     1      43.547   2.772  12.103  0.00  0.00    +0.000 C 
ATOM     32  O   UNL     1      44.128   3.624  13.088  0.00  0.00    +0.000 OA
ENDBRANCH  22  32
ENDBRANCH  18  29
ENDBRANCH   1  20
TORSDOF 7
ENDMDL
MODEL 8
REMARK VINA RESULT:    -6.800      2.479      3.466
REMARK INTER + INTRA:         -10.907
REMARK INTER:                 -10.094
REMARK INTRA:                  -0.813
REMARK UNBOUND:                -1.324
REMARK  Name = 
REMARK  8 active torsions:
REMARK  status: ('A' for Active; 'I' for Inactive)
REMARK    1  A    between atoms: C_1  and  O_2
REMARK    2  A    between atoms: O_2  and  C_3
REMARK    3  A    between atoms: C_10  and  C_11
REMARK    4  A    between atoms: N_13  and  C_14
REMARK    5  A    between atoms: C_14  and  C_15
REMARK    6  A    between atoms: C_18  and  N_19
REMARK    7  A    between atoms: N_19  and  C_20
REMARK    8  A    between atoms: C_20  and  C_21
REMARK                            x       y       z     vdW  Elec       q    Type
REMARK                         _______ _______ _______ _____ _____    ______ ____
ROOT
ATOM      1  C   UNL     1      46.805   4.502  14.984  0.00  0.00    +0.000 C 
ENDROOT
BRANCH   1   2
ATOM      2  C   UNL     1      46.420   4.600  13.528  0.00  0.00    +0.000 A 
ATOM      3  C   UNL     1      46.688   5.769  12.809  0.00  0.00    +0.000 A 
ATOM      4  C   UNL     1      46.226   5.924  11.495  0.00  0.00    +0.000 A 
ATOM      5  C   UNL     1      45.496   4.923  10.849  0.00  0.00    +0.000 A 
ATOM      6  C   UNL     1      45.264   3.740  11.564  0.00  0.00    +0.000 A 
ATOM      7  C   UNL     1      45.717   3.575  12.884  0.00  0.00    +0.000 A 
BRANCH   5   8
ATOM      8  N   UNL     1      44.888   5.092   9.606  0.00  0.00    +0.000 N 
ATOM      9  H   UNL     1      44.439   5.999   9.475  0.00  0.00    +0.000 HD
BRANCH   8  10
ATOM     10  C   UNL     1      44.159   3.996   8.966  0.00  0.00    +0.000 C 
BRANCH  10  11
ATOM     11  C   UNL     1      45.051   3.197   7.977  0.00  0.00    +0.000 C 
ATOM     12  C   UNL     1      45.712   1.979   8.647  0.00  0.00    +0.000 C 
ATOM     13  C   UNL     1      46.621   1.226   7.676  0.00  0.00    +0.000 C 
ATOM     14  C   UNL     1      47.605   2.182   7.010  0.00  0.00    +0.000 C 
ATOM     15  C   UNL     1      46.874   3.359   6.372  0.00  0.00    +0.000 C 
ATOM     16  N   UNL     1      46.066   4.078   7.359  0.00  0.00    +0.000 NA
ATOM     17  H   UNL     1      45.593   4.856   6.897  0.00  0.00    +0.000 HD
ENDBRANCH  10  11
ENDBRANCH   8  10
ENDBRANCH   5   8
ENDBRANCH   1   2
BRANCH   1  20
ATOM     18  C   UNL     1      48.611   5.578  16.289  0.00  0.00    +0.000 C 
ATOM     19  O   UNL     1      48.940   4.502  16.781  0.00  0.00    +0.000 OA
ATOM     20  N   UNL     1      47.579   5.655  15.390  0.00  0.00    +0.000 N 
ATOM     21  H   UNL     1      47.384   6.530  14.923  0.00  0.00    +0.000 HD
BRANCH  18  29
ATOM     22  C   UNL     1      48.412   7.656  19.029  0.00  0.00    +0.000 A 
ATOM     23  N   UNL     1      48.611   8.560  20.010  0.00  0.00    +0.000 NA
ATOM     24  C   UNL     1      49.557   9.488  19.836  0.00  0.00    +0.000 A 
ATOM     25  N   UNL     1      50.333   9.638  18.766  0.00  0.00    +0.000 NA
ATOM     26  C   UNL     1      50.110   8.716  17.816  0.00  0.00    +0.000 A 
ATOM     27  S   UNL     1      50.998   8.768  16.371  0.00  0.00    +0.000 S 
ATOM     28  C   UNL     1      50.217   7.378  15.783  0.00  0.00    +0.000 A 
ATOM     29  C   UNL     1      49.286   6.836  16.663  0.00  0.00    +0.000 A 
ATOM     30  C   UNL     1      49.192   7.669  17.859  0.00  0.00    +0.000 A 
BRANCH  22  32
ATOM     31  C   UNL     1      47.485   5.974  20.386  0.00  0.00    +0.000 C 
ATOM     32  O   UNL     1      47.400   6.733  19.181  0.00  0.00    +0.000 OA
ENDBRANCH  22  32
ENDBRANCH  18  29
ENDBRANCH   1  20
TORSDOF 7
ENDMDL
MODEL 9
REMARK VINA RESULT:    -6.449      3.077      7.721
REMARK INTER + INTRA:         -10.412
REMARK INTER:                  -9.220
REMARK INTRA:                  -1.192
REMARK UNBOUND:                -1.324
REMARK  Name = 
REMARK  8 active torsions:
REMARK  status: ('A' for Active; 'I' for Inactive)
REMARK    1  A    between atoms: C_1  and  O_2
REMARK    2  A    between atoms: O_2  and  C_3
REMARK    3  A    between atoms: C_10  and  C_11
REMARK    4  A    between atoms: N_13  and  C_14
REMARK    5  A    between atoms: C_14  and  C_15
REMARK    6  A    between atoms: C_18  and  N_19
REMARK    7  A    between atoms: N_19  and  C_20
REMARK    8  A    between atoms: C_20  and  C_21
REMARK                            x       y       z     vdW  Elec       q    Type
REMARK                         _______ _______ _______ _____ _____    ______ ____
ROOT
ATOM      1  C   UNL     1      48.130   8.263  11.967  0.00  0.00    +0.000 C 
ENDROOT
BRANCH   1   2
ATOM      2  C   UNL     1      48.413   8.018  13.429  0.00  0.00    +0.000 A 
ATOM      3  C   UNL     1      47.881   8.873  14.399  0.00  0.00    +0.000 A 
ATOM      4  C   UNL     1      48.235   8.737  15.748  0.00  0.00    +0.000 A 
ATOM      5  C   UNL     1      49.119   7.744  16.179  0.00  0.00    +0.000 A 
ATOM      6  C   UNL     1      49.619   6.868  15.206  0.00  0.00    +0.000 A 
ATOM      7  C   UNL     1      49.275   6.999  13.850  0.00  0.00    +0.000 A 
BRANCH   5   8
ATOM      8  N   UNL     1      49.617   7.666  17.479  0.00  0.00    +0.000 N 
ATOM      9  H   UNL     1      50.596   7.385  17.540  0.00  0.00    +0.000 HD
BRANCH   8  10
ATOM     10  C   UNL     1      48.801   7.133  18.570  0.00  0.00    +0.000 C 
BRANCH  10  11
ATOM     11  C   UNL     1      48.608   5.595  18.460  0.00  0.00    +0.000 C 
ATOM     12  C   UNL     1      49.887   4.884  17.982  0.00  0.00    +0.000 C 
ATOM     13  C   UNL     1      49.673   3.377  17.837  0.00  0.00    +0.000 C 
ATOM     14  C   UNL     1      48.443   3.090  16.983  0.00  0.00    +0.000 C 
ATOM     15  C   UNL     1      47.222   3.829  17.520  0.00  0.00    +0.000 C 
ATOM     16  N   UNL     1      47.463   5.272  17.583  0.00  0.00    +0.000 NA
ATOM     17  H   UNL     1      46.627   5.732  17.945  0.00  0.00    +0.000 HD
ENDBRANCH  10  11
ENDBRANCH   8  10
ENDBRANCH   5   8
ENDBRANCH   1   2
BRANCH   1  20
ATOM     18  C   UNL     1      46.130   6.967  11.301  0.00  0.00    +0.000 C 
ATOM     19  O   UNL     1      45.382   7.836  11.738  0.00  0.00    +0.000 OA
ATOM     20  N   UNL     1      47.491   7.112  11.367  0.00  0.00    +0.000 N 
ATOM     21  H   UNL     1      48.091   6.433  10.917  0.00  0.00    +0.000 HD
BRANCH  18  29
ATOM     22  C   UNL     1      44.500   4.231  12.612  0.00  0.00    +0.000 A 
ATOM     23  N   UNL     1      43.768   3.121  12.837  0.00  0.00    +0.000 NA
ATOM     24  C   UNL     1      43.431   2.359  11.792  0.00  0.00    +0.000 A 
ATOM     25  N   UNL     1      43.764   2.565  10.520  0.00  0.00    +0.000 NA
ATOM     26  C   UNL     1      44.487   3.682  10.336  0.00  0.00    +0.000 A 
ATOM     27  S   UNL     1      45.017   4.091   8.777  0.00  0.00    +0.000 S 
ATOM     28  C   UNL     1      45.752   5.514   9.347  0.00  0.00    +0.000 A 
ATOM     29  C   UNL     1      45.603   5.720  10.714  0.00  0.00    +0.000 A 
ATOM     30  C   UNL     1      44.886   4.595  11.309  0.00  0.00    +0.000 A 
BRANCH  22  32
ATOM     31  C   UNL     1      46.242   4.754  14.102  0.00  0.00    +0.000 C 
ATOM     32  O   UNL     1      44.895   4.987  13.693  0.00  0.00    +0.000 OA
ENDBRANCH  22  32
ENDBRANCH  18  29
ENDBRANCH   1  20
TORSDOF 7
ENDMDL
