MODEL 1
REMARK VINA RESULT:    -8.147      0.000      0.000
REMARK INTER + INTRA:         -10.898
REMARK INTER:                 -10.766
REMARK INTRA:                  -0.132
REMARK UNBOUND:                -0.132
REMARK  Name = 
REMARK  9 active torsions:
REMARK  status: ('A' for Active; 'I' for Inactive)
REMARK    1  A    between atoms: C_1  and  C_2
REMARK    2  A    between atoms: C_2  and  C_3
REMARK    3  A    between atoms: C_2  and  C_4
REMARK    4  A    between atoms: C_2  and  C_5
REMARK    5  A    between atoms: N_8  and  C_9
REMARK    6  A    between atoms: C_9  and  C_10
REMARK    7  A    between atoms: C_13  and  C_14
REMARK    8  A    between atoms: C_14  and  N_15
REMARK    9  A    between atoms: C_20  and  C_21
REMARK                            x       y       z     vdW  Elec       q    Type
REMARK                         _______ _______ _______ _____ _____    ______ ____
ROOT
ATOM      1  C   UNL     1      46.809   6.949  12.747  0.00  0.00    +0.000 A 
ATOM      2  N   UNL     1      45.935   6.770  11.707  0.00  0.00    +0.000 NA
ATOM      3  C   UNL     1      45.306   5.600  11.524  0.00  0.00    +0.000 A 
ATOM      4  N   UNL     1      44.373   5.570  10.518  0.00  0.00    +0.000 N 
ATOM      5  N   UNL     1      45.508   4.544  12.300  0.00  0.00    +0.000 NA
ATOM      6  C   UNL     1      46.380   4.712  13.314  0.00  0.00    +0.000 A 
ATOM      7  C   UNL     1      47.088   5.874  13.590  0.00  0.00    +0.000 A 
ATOM      8  H   UNL     1      44.545   6.278   9.818  0.00  0.00    +0.000 HD
ENDROOT
BRANCH   7   9
ATOM      9  C   UNL     1      48.013   5.839  14.755  0.00  0.00    +0.000 C 
ATOM     10  N   UNL     1      47.513   5.401  15.952  0.00  0.00    +0.000 N 
ATOM     11  O   UNL     1      49.181   6.189  14.707  0.00  0.00    +0.000 OA
ATOM     12  H   UNL     1      46.634   4.920  16.072  0.00  0.00    +0.000 HD
ATOM     13  H   UNL     1      48.169   5.372  16.723  0.00  0.00    +0.000 HD
ENDBRANCH   7   9
BRANCH   1  15
ATOM     14  C   UNL     1      46.492   9.382  12.063  0.00  0.00    +0.000 C 
ATOM     15  C   UNL     1      47.408   8.368  12.820  0.00  0.00    +0.000 C 
ATOM     16  C   UNL     1      48.779   8.432  12.123  0.00  0.00    +0.000 C 
ATOM     17  C   UNL     1      47.486   8.933  14.253  0.00  0.00    +0.000 C 
ENDBRANCH   1  15
BRANCH   4  18
ATOM     18  C   UNL     1      43.814   4.310  10.098  0.00  0.00    +0.000 C 
BRANCH  18  19
ATOM     19  C   UNL     1      44.781   3.619   9.161  0.00  0.00    +0.000 A 
ATOM     20  C   UNL     1      45.525   4.339   8.218  0.00  0.00    +0.000 A 
ATOM     21  C   UNL     1      46.446   3.684   7.391  0.00  0.00    +0.000 A 
ATOM     22  C   UNL     1      46.647   2.298   7.492  0.00  0.00    +0.000 A 
ATOM     23  C   UNL     1      45.902   1.581   8.437  0.00  0.00    +0.000 A 
ATOM     24  C   UNL     1      44.986   2.234   9.264  0.00  0.00    +0.000 A 
BRANCH  22  25
ATOM     25  C   UNL     1      47.615   1.585   6.584  0.00  0.00    +0.000 C 
BRANCH  25  26
ATOM     26  N   UNL     1      48.732   2.440   6.197  0.00  0.00    +0.000 NA
ATOM     27  H   UNL     1      49.465   2.359   6.900  0.00  0.00    +0.000 HD
ATOM     28  H   UNL     1      48.427   3.412   6.207  0.00  0.00    +0.000 HD
ENDBRANCH  25  26
ENDBRANCH  22  25
ENDBRANCH  18  19
ENDBRANCH   4  18
TORSDOF 6
ENDMDL
MODEL 2
REMARK VINA RESULT:    -6.957      1.672      3.349
REMARK INTER + INTRA:          -9.325
REMARK INTER:                  -9.522
REMARK INTRA:                   0.196
REMARK UNBOUND:                -0.132
REMARK  Name = 
REMARK  9 active torsions:
REMARK  status: ('A' for Active; 'I' for Inactive)
REMARK    1  A    between atoms: C_1  and  C_2
REMARK    2  A    between atoms: C_2  and  C_3
REMARK    3  A    between atoms: C_2  and  C_4
REMARK    4  A    between atoms: C_2  and  C_5
REMARK    5  A    between atoms: N_8  and  C_9
REMARK    6  A    between atoms: C_9  and  C_10
REMARK    7  A    between atoms: C_13  and  C_14
REMARK    8  A    between atoms: C_14  and  N_15
REMARK    9  A    between atoms: C_20  and  C_21
REMARK                            x       y       z     vdW  Elec       q    Type
REMARK                         _______ _______ _______ _____ _____    ______ ____
ROOT
ATOM      1  C   UNL     1      47.366   4.746  14.982  0.00  0.00    +0.000 A 
ATOM      2  N   UNL     1      46.424   4.009  14.314  0.00  0.00    +0.000 NA
ATOM      3  C   UNL     1      45.908   4.435  13.151  0.00  0.00    +0.000 A 
ATOM      4  N   UNL     1      45.056   3.566  12.518  0.00  0.00    +0.000 N 
ATOM      5  N   UNL     1      46.241   5.593  12.596  0.00  0.00    +0.000 NA
ATOM      6  C   UNL     1      47.156   6.327  13.261  0.00  0.00    +0.000 A 
ATOM      7  C   UNL     1      47.747   5.985  14.470  0.00  0.00    +0.000 A 
ATOM      8  H   UNL     1      44.635   2.910  13.161  0.00  0.00    +0.000 HD
ENDROOT
BRANCH   7   9
ATOM      9  C   UNL     1      48.725   6.951  15.038  0.00  0.00    +0.000 C 
ATOM     10  N   UNL     1      48.275   7.829  15.988  0.00  0.00    +0.000 N 
ATOM     11  O   UNL     1      49.896   7.014  14.699  0.00  0.00    +0.000 OA
ATOM     12  H   UNL     1      47.394   7.754  16.475  0.00  0.00    +0.000 HD
ATOM     13  H   UNL     1      48.966   8.464  16.369  0.00  0.00    +0.000 HD
ENDBRANCH   7   9
BRANCH   1  15
ATOM     14  C   UNL     1      48.129   2.560  16.045  0.00  0.00    +0.000 C 
ATOM     15  C   UNL     1      47.869   4.083  16.281  0.00  0.00    +0.000 C 
ATOM     16  C   UNL     1      46.812   4.166  17.397  0.00  0.00    +0.000 C 
ATOM     17  C   UNL     1      49.231   4.623  16.764  0.00  0.00    +0.000 C 
ENDBRANCH   1  15
BRANCH   4  18
ATOM     18  C   UNL     1      44.282   4.019  11.390  0.00  0.00    +0.000 C 
BRANCH  18  19
ATOM     19  C   UNL     1      44.967   3.595  10.109  0.00  0.00    +0.000 A 
ATOM     20  C   UNL     1      45.076   2.246   9.751  0.00  0.00    +0.000 A 
ATOM     21  C   UNL     1      45.676   1.880   8.540  0.00  0.00    +0.000 A 
ATOM     22  C   UNL     1      46.174   2.853   7.658  0.00  0.00    +0.000 A 
ATOM     23  C   UNL     1      46.060   4.202   8.019  0.00  0.00    +0.000 A 
ATOM     24  C   UNL     1      45.460   4.568   9.225  0.00  0.00    +0.000 A 
BRANCH  22  25
ATOM     25  C   UNL     1      46.846   2.462   6.368  0.00  0.00    +0.000 C 
BRANCH  25  26
ATOM     26  N   UNL     1      47.978   1.569   6.590  0.00  0.00    +0.000 NA
ATOM     27  H   UNL     1      47.641   0.608   6.591  0.00  0.00    +0.000 HD
ATOM     28  H   UNL     1      48.363   1.743   7.517  0.00  0.00    +0.000 HD
ENDBRANCH  25  26
ENDBRANCH  22  25
ENDBRANCH  18  19
ENDBRANCH   4  18
TORSDOF 6
ENDMDL
MODEL 3
REMARK VINA RESULT:    -6.446      2.441      3.763
REMARK INTER + INTRA:          -8.651
REMARK INTER:                  -8.469
REMARK INTRA:                  -0.182
REMARK UNBOUND:                -0.132
REMARK  Name = 
REMARK  9 active torsions:
REMARK  status: ('A' for Active; 'I' for Inactive)
REMARK    1  A    between atoms: C_1  and  C_2
REMARK    2  A    between atoms: C_2  and  C_3
REMARK    3  A    between atoms: C_2  and  C_4
REMARK    4  A    between atoms: C_2  and  C_5
REMARK    5  A    between atoms: N_8  and  C_9
REMARK    6  A    between atoms: C_9  and  C_10
REMARK    7  A    between atoms: C_13  and  C_14
REMARK    8  A    between atoms: C_14  and  N_15
REMARK    9  A    between atoms: C_20  and  C_21
REMARK                            x       y       z     vdW  Elec       q    Type
REMARK                         _______ _______ _______ _____ _____    ______ ____
ROOT
ATOM      1  C   UNL     1      48.725   5.723  15.998  0.00  0.00    +0.000 A 
ATOM      2  N   UNL     1      47.917   5.871  14.901  0.00  0.00    +0.000 NA
ATOM      3  C   UNL     1      46.868   5.060  14.699  0.00  0.00    +0.000 A 
ATOM      4  N   UNL     1      46.068   5.370  13.629  0.00  0.00    +0.000 N 
ATOM      5  N   UNL     1      46.566   4.057  15.511  0.00  0.00    +0.000 NA
ATOM      6  C   UNL     1      47.370   3.899  16.582  0.00  0.00    +0.000 A 
ATOM      7  C   UNL     1      48.481   4.675  16.883  0.00  0.00    +0.000 A 
ATOM      8  H   UNL     1      46.559   5.906  12.928  0.00  0.00    +0.000 HD
ENDROOT
BRANCH   7   9
ATOM      9  C   UNL     1      49.239   4.317  18.112  0.00  0.00    +0.000 C 
ATOM     10  N   UNL     1      49.980   3.166  18.092  0.00  0.00    +0.000 N 
ATOM     11  O   UNL     1      49.227   4.982  19.136  0.00  0.00    +0.000 OA
ATOM     12  H   UNL     1      50.213   2.641  17.262  0.00  0.00    +0.000 HD
ATOM     13  H   UNL     1      50.499   2.956  18.937  0.00  0.00    +0.000 HD
ENDBRANCH   7   9
BRANCH   1  15
ATOM     14  C   UNL     1      49.513   7.855  17.150  0.00  0.00    +0.000 C 
ATOM     15  C   UNL     1      49.858   6.767  16.082  0.00  0.00    +0.000 C 
ATOM     16  C   UNL     1      50.025   7.518  14.749  0.00  0.00    +0.000 C 
ATOM     17  C   UNL     1      51.201   6.183  16.565  0.00  0.00    +0.000 C 
ENDBRANCH   1  15
BRANCH   4  18
ATOM     18  C   UNL     1      45.057   4.436  13.198  0.00  0.00    +0.000 C 
BRANCH  18  19
ATOM     19  C   UNL     1      45.177   4.222  11.704  0.00  0.00    +0.000 A 
ATOM     20  C   UNL     1      44.898   2.980  11.120  0.00  0.00    +0.000 A 
ATOM     21  C   UNL     1      44.973   2.818   9.731  0.00  0.00    +0.000 A 
ATOM     22  C   UNL     1      45.322   3.892   8.897  0.00  0.00    +0.000 A 
ATOM     23  C   UNL     1      45.598   5.133   9.485  0.00  0.00    +0.000 A 
ATOM     24  C   UNL     1      45.521   5.297  10.869  0.00  0.00    +0.000 A 
BRANCH  22  25
ATOM     25  C   UNL     1      45.432   3.713   7.404  0.00  0.00    +0.000 C 
BRANCH  25  26
ATOM     26  N   UNL     1      46.721   4.168   6.894  0.00  0.00    +0.000 NA
ATOM     27  H   UNL     1      46.748   4.012   5.887  0.00  0.00    +0.000 HD
ATOM     28  H   UNL     1      47.460   3.596   7.296  0.00  0.00    +0.000 HD
ENDBRANCH  25  26
ENDBRANCH  22  25
ENDBRANCH  18  19
ENDBRANCH   4  18
TORSDOF 6
ENDMDL
MODEL 4
REMARK VINA RESULT:    -6.289      2.246      4.017
REMARK INTER + INTRA:          -8.443
REMARK INTER:                  -8.087
REMARK INTRA:                  -0.356
REMARK UNBOUND:                -0.132
REMARK  Name = 
REMARK  9 active torsions:
REMARK  status: ('A' for Active; 'I' for Inactive)
REMARK    1  A    between atoms: C_1  and  C_2
REMARK    2  A    between atoms: C_2  and  C_3
REMARK    3  A    between atoms: C_2  and  C_4
REMARK    4  A    between atoms: C_2  and  C_5
REMARK    5  A    between atoms: N_8  and  C_9
REMARK    6  A    between atoms: C_9  and  C_10
REMARK    7  A    between atoms: C_13  and  C_14
REMARK    8  A    between atoms: C_14  and  N_15
REMARK    9  A    between atoms: C_20  and  C_21
REMARK                            x       y       z     vdW  Elec       q    Type
REMARK                         _______ _______ _______ _____ _____    ______ ____
ROOT
ATOM      1  C   UNL     1      48.202   4.951  15.965  0.00  0.00    +0.000 A 
ATOM      2  N   UNL     1      47.107   4.458  15.304  0.00  0.00    +0.000 NA
ATOM      3  C   UNL     1      46.545   5.136  14.292  0.00  0.00    +0.000 A 
ATOM      4  N   UNL     1      45.524   4.497  13.635  0.00  0.00    +0.000 N 
ATOM      5  N   UNL     1      46.979   6.323  13.891  0.00  0.00    +0.000 NA
ATOM      6  C   UNL     1      48.046   6.817  14.551  0.00  0.00    +0.000 A 
ATOM      7  C   UNL     1      48.698   6.204  15.612  0.00  0.00    +0.000 A 
ATOM      8  H   UNL     1      45.080   3.796  14.211  0.00  0.00    +0.000 HD
ENDROOT
BRANCH   7   9
ATOM      9  C   UNL     1      49.851   6.934  16.206  0.00  0.00    +0.000 C 
ATOM     10  N   UNL     1      50.981   7.069  15.445  0.00  0.00    +0.000 N 
ATOM     11  O   UNL     1      49.850   7.406  17.332  0.00  0.00    +0.000 OA
ATOM     12  H   UNL     1      51.036   6.888  14.454  0.00  0.00    +0.000 HD
ATOM     13  H   UNL     1      51.743   7.584  15.869  0.00  0.00    +0.000 HD
ENDBRANCH   7   9
BRANCH   1  15
ATOM     14  C   UNL     1      48.273   2.549  16.810  0.00  0.00    +0.000 C 
ATOM     15  C   UNL     1      48.731   4.019  17.074  0.00  0.00    +0.000 C 
ATOM     16  C   UNL     1      48.154   4.402  18.448  0.00  0.00    +0.000 C 
ATOM     17  C   UNL     1      50.270   3.928  17.123  0.00  0.00    +0.000 C 
ENDBRANCH   1  15
BRANCH   4  18
ATOM     18  C   UNL     1      44.714   5.226  12.691  0.00  0.00    +0.000 C 
BRANCH  18  19
ATOM     19  C   UNL     1      44.997   4.721  11.292  0.00  0.00    +0.000 A 
ATOM     20  C   UNL     1      45.551   5.555  10.313  0.00  0.00    +0.000 A 
ATOM     21  C   UNL     1      45.844   5.054   9.039  0.00  0.00    +0.000 A 
ATOM     22  C   UNL     1      45.595   3.710   8.717  0.00  0.00    +0.000 A 
ATOM     23  C   UNL     1      45.043   2.879   9.701  0.00  0.00    +0.000 A 
ATOM     24  C   UNL     1      44.753   3.376  10.972  0.00  0.00    +0.000 A 
BRANCH  22  25
ATOM     25  C   UNL     1      45.882   3.175   7.338  0.00  0.00    +0.000 C 
BRANCH  25  26
ATOM     26  N   UNL     1      46.752   4.064   6.577  0.00  0.00    +0.000 NA
ATOM     27  H   UNL     1      47.701   3.695   6.601  0.00  0.00    +0.000 HD
ATOM     28  H   UNL     1      46.783   4.973   7.035  0.00  0.00    +0.000 HD
ENDBRANCH  25  26
ENDBRANCH  22  25
ENDBRANCH  18  19
ENDBRANCH   4  18
TORSDOF 6
ENDMDL
MODEL 5
REMARK VINA RESULT:    -6.262      3.564      7.544
REMARK INTER + INTRA:          -8.408
REMARK INTER:                  -8.181
REMARK INTRA:                  -0.227
REMARK UNBOUND:                -0.132
REMARK  Name = 
REMARK  9 active torsions:
REMARK  status: ('A' for Active; 'I' for Inactive)
REMARK    1  A    between atoms: C_1  and  C_2
REMARK    2  A    between atoms: C_2  and  C_3
REMARK    3  A    between atoms: C_2  and  C_4
REMARK    4  A    between atoms: C_2  and  C_5
REMARK    5  A    between atoms: N_8  and  C_9
REMARK    6  A    between atoms: C_9  and  C_10
REMARK    7  A    between atoms: C_13  and  C_14
REMARK    8  A    between atoms: C_14  and  N_15
REMARK    9  A    between atoms: C_20  and  C_21
REMARK                            x       y       z     vdW  Elec       q    Type
REMARK                         _______ _______ _______ _____ _____    ______ ____
ROOT
ATOM      1  C   UNL     1      45.316   4.521  12.563  0.00  0.00    +0.000 A 
ATOM      2  N   UNL     1      45.697   4.079  13.803  0.00  0.00    +0.000 NA
ATOM      3  C   UNL     1      46.532   4.798  14.567  0.00  0.00    +0.000 A 
ATOM      4  N   UNL     1      46.757   4.313  15.830  0.00  0.00    +0.000 N 
ATOM      5  N   UNL     1      47.066   5.945  14.171  0.00  0.00    +0.000 NA
ATOM      6  C   UNL     1      46.705   6.373  12.944  0.00  0.00    +0.000 A 
ATOM      7  C   UNL     1      45.855   5.708  12.071  0.00  0.00    +0.000 A 
ATOM      8  H   UNL     1      46.586   3.319  15.893  0.00  0.00    +0.000 HD
ENDROOT
BRANCH   7   9
ATOM      9  C   UNL     1      45.602   6.354  10.755  0.00  0.00    +0.000 C 
ATOM     10  N   UNL     1      44.811   7.473  10.736  0.00  0.00    +0.000 N 
ATOM     11  O   UNL     1      46.046   5.939   9.696  0.00  0.00    +0.000 OA
ATOM     12  H   UNL     1      44.545   8.007  11.549  0.00  0.00    +0.000 HD
ATOM     13  H   UNL     1      44.669   7.901   9.828  0.00  0.00    +0.000 HD
ENDBRANCH   7   9
BRANCH   1  15
ATOM     14  C   UNL     1      43.106   4.396  11.302  0.00  0.00    +0.000 C 
ATOM     15  C   UNL     1      44.324   3.583  11.845  0.00  0.00    +0.000 C 
ATOM     16  C   UNL     1      43.740   2.540  12.815  0.00  0.00    +0.000 C 
ATOM     17  C   UNL     1      44.911   2.907  10.589  0.00  0.00    +0.000 C 
ENDBRANCH   1  15
BRANCH   4  18
ATOM     18  C   UNL     1      47.805   4.883  16.640  0.00  0.00    +0.000 C 
BRANCH  18  19
ATOM     19  C   UNL     1      48.883   3.845  16.869  0.00  0.00    +0.000 A 
ATOM     20  C   UNL     1      48.739   2.530  16.410  0.00  0.00    +0.000 A 
ATOM     21  C   UNL     1      49.768   1.598  16.596  0.00  0.00    +0.000 A 
ATOM     22  C   UNL     1      50.963   1.961  17.237  0.00  0.00    +0.000 A 
ATOM     23  C   UNL     1      51.104   3.279  17.693  0.00  0.00    +0.000 A 
ATOM     24  C   UNL     1      50.080   4.209  17.506  0.00  0.00    +0.000 A 
BRANCH  22  25
ATOM     25  C   UNL     1      52.061   0.954  17.465  0.00  0.00    +0.000 C 
BRANCH  25  26
ATOM     26  N   UNL     1      51.631  -0.134  18.336  0.00  0.00    +0.000 NA
ATOM     27  H   UNL     1      52.416  -0.767  18.481  0.00  0.00    +0.000 HD
ATOM     28  H   UNL     1      50.907  -0.673  17.864  0.00  0.00    +0.000 HD
ENDBRANCH  25  26
ENDBRANCH  22  25
ENDBRANCH  18  19
ENDBRANCH   4  18
TORSDOF 6
ENDMDL
MODEL 6
REMARK VINA RESULT:    -6.191      3.721      7.299
REMARK INTER + INTRA:          -8.313
REMARK INTER:                  -8.189
REMARK INTRA:                  -0.124
REMARK UNBOUND:                -0.132
REMARK  Name = 
REMARK  9 active torsions:
REMARK  status: ('A' for Active; 'I' for Inactive)
REMARK    1  A    between atoms: C_1  and  C_2
REMARK    2  A    between atoms: C_2  and  C_3
REMARK    3  A    between atoms: C_2  and  C_4
REMARK    4  A    between atoms: C_2  and  C_5
REMARK    5  A    between atoms: N_8  and  C_9
REMARK    6  A    between atoms: C_9  and  C_10
REMARK    7  A    between atoms: C_13  and  C_14
REMARK    8  A    between atoms: C_14  and  N_15
REMARK    9  A    between atoms: C_20  and  C_21
REMARK                            x       y       z     vdW  Elec       q    Type
REMARK                         _______ _______ _______ _____ _____    ______ ____
ROOT
ATOM      1  C   UNL     1      46.132   6.248  12.677  0.00  0.00    +0.000 A 
ATOM      2  N   UNL     1      46.694   6.075  13.914  0.00  0.00    +0.000 NA
ATOM      3  C   UNL     1      46.763   4.860  14.479  0.00  0.00    +0.000 A 
ATOM      4  N   UNL     1      47.443   4.788  15.668  0.00  0.00    +0.000 N 
ATOM      5  N   UNL     1      46.270   3.770  13.907  0.00  0.00    +0.000 NA
ATOM      6  C   UNL     1      45.701   3.942  12.697  0.00  0.00    +0.000 A 
ATOM      7  C   UNL     1      45.572   5.151  12.026  0.00  0.00    +0.000 A 
ATOM      8  H   UNL     1      47.470   5.678  16.146  0.00  0.00    +0.000 HD
ENDROOT
BRANCH   7   9
ATOM      9  C   UNL     1      44.896   5.117  10.701  0.00  0.00    +0.000 C 
ATOM     10  N   UNL     1      45.671   5.283   9.585  0.00  0.00    +0.000 N 
ATOM     11  O   UNL     1      43.693   4.962  10.554  0.00  0.00    +0.000 OA
ATOM     12  H   UNL     1      46.679   5.234   9.568  0.00  0.00    +0.000 HD
ATOM     13  H   UNL     1      45.187   5.239   8.696  0.00  0.00    +0.000 HD
ENDBRANCH   7   9
BRANCH   1  15
ATOM     14  C   UNL     1      46.367   8.687  13.374  0.00  0.00    +0.000 C 
ATOM     15  C   UNL     1      46.173   7.706  12.173  0.00  0.00    +0.000 C 
ATOM     16  C   UNL     1      44.844   8.106  11.509  0.00  0.00    +0.000 C 
ATOM     17  C   UNL     1      47.370   8.006  11.248  0.00  0.00    +0.000 C 
ENDBRANCH   1  15
BRANCH   4  18
ATOM     18  C   UNL     1      47.378   3.584  16.458  0.00  0.00    +0.000 C 
BRANCH  18  19
ATOM     19  C   UNL     1      48.771   3.209  16.916  0.00  0.00    +0.000 A 
ATOM     20  C   UNL     1      49.338   1.971  16.587  0.00  0.00    +0.000 A 
ATOM     21  C   UNL     1      50.645   1.663  16.985  0.00  0.00    +0.000 A 
ATOM     22  C   UNL     1      51.414   2.585  17.714  0.00  0.00    +0.000 A 
ATOM     23  C   UNL     1      50.843   3.822  18.038  0.00  0.00    +0.000 A 
ATOM     24  C   UNL     1      49.542   4.132  17.640  0.00  0.00    +0.000 A 
BRANCH  22  25
ATOM     25  C   UNL     1      52.810   2.245  18.169  0.00  0.00    +0.000 C 
BRANCH  25  26
ATOM     26  N   UNL     1      52.956   0.825  18.469  0.00  0.00    +0.000 NA
ATOM     27  H   UNL     1      53.296   0.348  17.635  0.00  0.00    +0.000 HD
ATOM     28  H   UNL     1      52.040   0.432  18.675  0.00  0.00    +0.000 HD
ENDBRANCH  25  26
ENDBRANCH  22  25
ENDBRANCH  18  19
ENDBRANCH   4  18
TORSDOF 6
ENDMDL
MODEL 7
REMARK VINA RESULT:    -6.063      3.660      5.914
REMARK INTER + INTRA:          -8.145
REMARK INTER:                  -7.706
REMARK INTRA:                  -0.438
REMARK UNBOUND:                -0.132
REMARK  Name = 
REMARK  9 active torsions:
REMARK  status: ('A' for Active; 'I' for Inactive)
REMARK    1  A    between atoms: C_1  and  C_2
REMARK    2  A    between atoms: C_2  and  C_3
REMARK    3  A    between atoms: C_2  and  C_4
REMARK    4  A    between atoms: C_2  and  C_5
REMARK    5  A    between atoms: N_8  and  C_9
REMARK    6  A    between atoms: C_9  and  C_10
REMARK    7  A    between atoms: C_13  and  C_14
REMARK    8  A    between atoms: C_14  and  N_15
REMARK    9  A    between atoms: C_20  and  C_21
REMARK                            x       y       z     vdW  Elec       q    Type
REMARK                         _______ _______ _______ _____ _____    ______ ____
ROOT
ATOM      1  C   UNL     1      48.613   6.718  18.426  0.00  0.00    +0.000 A 
ATOM      2  N   UNL     1      48.347   7.203  17.173  0.00  0.00    +0.000 NA
ATOM      3  C   UNL     1      48.481   6.427  16.087  0.00  0.00    +0.000 A 
ATOM      4  N   UNL     1      48.083   6.984  14.898  0.00  0.00    +0.000 N 
ATOM      5  N   UNL     1      48.904   5.172  16.146  0.00  0.00    +0.000 NA
ATOM      6  C   UNL     1      49.182   4.698  17.377  0.00  0.00    +0.000 A 
ATOM      7  C   UNL     1      49.085   5.414  18.563  0.00  0.00    +0.000 A 
ATOM      8  H   UNL     1      48.106   7.994  14.924  0.00  0.00    +0.000 HD
ENDROOT
BRANCH   7   9
ATOM      9  C   UNL     1      49.455   4.699  19.814  0.00  0.00    +0.000 C 
ATOM     10  N   UNL     1      48.571   3.775  20.305  0.00  0.00    +0.000 N 
ATOM     11  O   UNL     1      50.489   4.898  20.430  0.00  0.00    +0.000 OA
ATOM     12  H   UNL     1      47.786   3.397  19.796  0.00  0.00    +0.000 HD
ATOM     13  H   UNL     1      48.857   3.292  21.148  0.00  0.00    +0.000 HD
ENDBRANCH   7   9
BRANCH   1  15
ATOM     14  C   UNL     1      47.556   8.961  19.012  0.00  0.00    +0.000 C 
ATOM     15  C   UNL     1      48.370   7.742  19.554  0.00  0.00    +0.000 C 
ATOM     16  C   UNL     1      49.696   8.317  20.082  0.00  0.00    +0.000 C 
ATOM     17  C   UNL     1      47.502   7.197  20.707  0.00  0.00    +0.000 C 
ENDBRANCH   1  15
BRANCH   4  18
ATOM     18  C   UNL     1      48.396   6.320  13.657  0.00  0.00    +0.000 C 
BRANCH  18  19
ATOM     19  C   UNL     1      47.111   5.922  12.963  0.00  0.00    +0.000 A 
ATOM     20  C   UNL     1      46.698   6.543  11.778  0.00  0.00    +0.000 A 
ATOM     21  C   UNL     1      45.528   6.128  11.131  0.00  0.00    +0.000 A 
ATOM     22  C   UNL     1      44.749   5.081  11.650  0.00  0.00    +0.000 A 
ATOM     23  C   UNL     1      45.167   4.460  12.834  0.00  0.00    +0.000 A 
ATOM     24  C   UNL     1      46.335   4.872  13.479  0.00  0.00    +0.000 A 
BRANCH  22  25
ATOM     25  C   UNL     1      43.474   4.651  10.972  0.00  0.00    +0.000 C 
BRANCH  25  26
ATOM     26  N   UNL     1      42.996   3.367  11.473  0.00  0.00    +0.000 NA
ATOM     27  H   UNL     1      43.793   2.743  11.590  0.00  0.00    +0.000 HD
ATOM     28  H   UNL     1      42.393   2.939  10.773  0.00  0.00    +0.000 HD
ENDBRANCH  25  26
ENDBRANCH  22  25
ENDBRANCH  18  19
ENDBRANCH   4  18
TORSDOF 6
ENDMDL
MODEL 8
REMARK VINA RESULT:    -5.847      3.221      8.342
REMARK INTER + INTRA:          -7.858
REMARK INTER:                  -7.479
REMARK INTRA:                  -0.379
REMARK UNBOUND:                -0.132
REMARK  Name = 
REMARK  9 active torsions:
REMARK  status: ('A' for Active; 'I' for Inactive)
REMARK    1  A    between atoms: C_1  and  C_2
REMARK    2  A    between atoms: C_2  and  C_3
REMARK    3  A    between atoms: C_2  and  C_4
REMARK    4  A    between atoms: C_2  and  C_5
REMARK    5  A    between atoms: N_8  and  C_9
REMARK    6  A    between atoms: C_9  and  C_10
REMARK    7  A    between atoms: C_13  and  C_14
REMARK    8  A    between atoms: C_14  and  N_15
REMARK    9  A    between atoms: C_20  and  C_21
REMARK                            x       y       z     vdW  Elec       q    Type
REMARK                         _______ _______ _______ _____ _____    ______ ____
ROOT
ATOM      1  C   UNL     1      45.228   4.540  12.531  0.00  0.00    +0.000 A 
ATOM      2  N   UNL     1      45.627   3.964  13.709  0.00  0.00    +0.000 NA
ATOM      3  C   UNL     1      46.706   4.411  14.368  0.00  0.00    +0.000 A 
ATOM      4  N   UNL     1      46.947   3.833  15.588  0.00  0.00    +0.000 N 
ATOM      5  N   UNL     1      47.468   5.398  13.917  0.00  0.00    +0.000 NA
ATOM      6  C   UNL     1      47.087   5.955  12.749  0.00  0.00    +0.000 A 
ATOM      7  C   UNL     1      45.995   5.567  11.985  0.00  0.00    +0.000 A 
ATOM      8  H   UNL     1      46.532   2.915  15.664  0.00  0.00    +0.000 HD
ENDROOT
BRANCH   7   9
ATOM      9  C   UNL     1      45.763   6.310  10.717  0.00  0.00    +0.000 C 
ATOM     10  N   UNL     1      44.952   7.413  10.764  0.00  0.00    +0.000 N 
ATOM     11  O   UNL     1      46.240   5.987   9.641  0.00  0.00    +0.000 OA
ATOM     12  H   UNL     1      44.655   7.878  11.610  0.00  0.00    +0.000 HD
ATOM     13  H   UNL     1      44.825   7.909   9.890  0.00  0.00    +0.000 HD
ENDBRANCH   7   9
BRANCH   1  15
ATOM     14  C   UNL     1      43.499   2.687  12.787  0.00  0.00    +0.000 C 
ATOM     15  C   UNL     1      43.948   3.918  11.937  0.00  0.00    +0.000 C 
ATOM     16  C   UNL     1      44.194   3.384  10.514  0.00  0.00    +0.000 C 
ATOM     17  C   UNL     1      42.728   4.861  11.973  0.00  0.00    +0.000 C 
ENDBRANCH   1  15
BRANCH   4  18
ATOM     18  C   UNL     1      48.197   4.081  16.263  0.00  0.00    +0.000 C 
BRANCH  18  19
ATOM     19  C   UNL     1      48.008   5.190  17.276  0.00  0.00    +0.000 A 
ATOM     20  C   UNL     1      47.179   5.026  18.392  0.00  0.00    +0.000 A 
ATOM     21  C   UNL     1      47.054   6.050  19.339  0.00  0.00    +0.000 A 
ATOM     22  C   UNL     1      47.758   7.256  19.195  0.00  0.00    +0.000 A 
ATOM     23  C   UNL     1      48.589   7.415  18.078  0.00  0.00    +0.000 A 
ATOM     24  C   UNL     1      48.716   6.394  17.135  0.00  0.00    +0.000 A 
BRANCH  22  25
ATOM     25  C   UNL     1      47.603   8.371  20.196  0.00  0.00    +0.000 C 
BRANCH  25  26
ATOM     26  N   UNL     1      47.045   9.575  19.590  0.00  0.00    +0.000 NA
ATOM     27  H   UNL     1      46.094   9.704  19.933  0.00  0.00    +0.000 HD
ATOM     28  H   UNL     1      46.973   9.440  18.583  0.00  0.00    +0.000 HD
ENDBRANCH  25  26
ENDBRANCH  22  25
ENDBRANCH  18  19
ENDBRANCH   4  18
TORSDOF 6
ENDMDL
MODEL 9
REMARK VINA RESULT:    -5.661      3.434      8.493
REMARK INTER + INTRA:          -7.613
REMARK INTER:                  -7.401
REMARK INTRA:                  -0.212
REMARK UNBOUND:                -0.132
REMARK  Name = 
REMARK  9 active torsions:
REMARK  status: ('A' for Active; 'I' for Inactive)
REMARK    1  A    between atoms: C_1  and  C_2
REMARK    2  A    between atoms: C_2  and  C_3
REMARK    3  A    between atoms: C_2  and  C_4
REMARK    4  A    between atoms: C_2  and  C_5
REMARK    5  A    between atoms: N_8  and  C_9
REMARK    6  A    between atoms: C_9  and  C_10
REMARK    7  A    between atoms: C_13  and  C_14
REMARK    8  A    between atoms: C_14  and  N_15
REMARK    9  A    between atoms: C_20  and  C_21
REMARK                            x       y       z     vdW  Elec       q    Type
REMARK                         _______ _______ _______ _____ _____    ______ ____
ROOT
ATOM      1  C   UNL     1      45.794   5.627  12.677  0.00  0.00    +0.000 A 
ATOM      2  N   UNL     1      46.652   6.415  13.399  0.00  0.00    +0.000 NA
ATOM      3  C   UNL     1      47.414   5.896  14.373  0.00  0.00    +0.000 A 
ATOM      4  N   UNL     1      48.312   6.755  14.955  0.00  0.00    +0.000 N 
ATOM      5  N   UNL     1      47.367   4.617  14.722  0.00  0.00    +0.000 NA
ATOM      6  C   UNL     1      46.511   3.844  14.023  0.00  0.00    +0.000 A 
ATOM      7  C   UNL     1      45.675   4.278  13.003  0.00  0.00    +0.000 A 
ATOM      8  H   UNL     1      48.034   7.721  14.857  0.00  0.00    +0.000 HD
ENDROOT
BRANCH   7   9
ATOM      9  C   UNL     1      44.797   3.256  12.372  0.00  0.00    +0.000 C 
ATOM     10  N   UNL     1      45.164   2.770  11.146  0.00  0.00    +0.000 N 
ATOM     11  O   UNL     1      43.767   2.838  12.878  0.00  0.00    +0.000 OA
ATOM     12  H   UNL     1      46.070   2.898  10.720  0.00  0.00    +0.000 HD
ATOM     13  H   UNL     1      44.556   2.064  10.748  0.00  0.00    +0.000 HD
ENDBRANCH   7   9
BRANCH   1  15
ATOM     14  C   UNL     1      45.569   5.993  10.166  0.00  0.00    +0.000 C 
ATOM     15  C   UNL     1      45.027   6.389  11.576  0.00  0.00    +0.000 C 
ATOM     16  C   UNL     1      45.236   7.909  11.700  0.00  0.00    +0.000 C 
ATOM     17  C   UNL     1      43.527   6.038  11.512  0.00  0.00    +0.000 C 
ENDBRANCH   1  15
BRANCH   4  18
ATOM     18  C   UNL     1      49.010   6.357  16.152  0.00  0.00    +0.000 C 
BRANCH  18  19
ATOM     19  C   UNL     1      48.537   7.206  17.313  0.00  0.00    +0.000 A 
ATOM     20  C   UNL     1      48.429   8.598  17.203  0.00  0.00    +0.000 A 
ATOM     21  C   UNL     1      47.949   9.358  18.276  0.00  0.00    +0.000 A 
ATOM     22  C   UNL     1      47.560   8.745  19.478  0.00  0.00    +0.000 A 
ATOM     23  C   UNL     1      47.667   7.352  19.583  0.00  0.00    +0.000 A 
ATOM     24  C   UNL     1      48.144   6.593  18.513  0.00  0.00    +0.000 A 
BRANCH  22  25
ATOM     25  C   UNL     1      47.070   9.562  20.645  0.00  0.00    +0.000 C 
BRANCH  25  26
ATOM     26  N   UNL     1      45.982  10.457  20.267  0.00  0.00    +0.000 NA
ATOM     27  H   UNL     1      45.323  10.518  21.042  0.00  0.00    +0.000 HD
ATOM     28  H   UNL     1      45.472  10.050  19.485  0.00  0.00    +0.000 HD
ENDBRANCH  25  26
ENDBRANCH  22  25
ENDBRANCH  18  19
ENDBRANCH   4  18
TORSDOF 6
ENDMDL
