MODEL 1
REMARK VINA RESULT:    -8.095      0.000      0.000
REMARK INTER + INTRA:         -12.880
REMARK INTER:                 -11.881
REMARK INTRA:                  -0.999
REMARK UNBOUND:                -0.999
REMARK  Name = 
REMARK  8 active torsions:
REMARK  status: ('A' for Active; 'I' for Inactive)
REMARK    1  A    between atoms: C_2  and  C_3
REMARK    2  A    between atoms: C_6  and  N_7
REMARK    3  A    between atoms: N_7  and  C_8
REMARK    4  A    between atoms: C_8  and  C_9
REMARK    5  A    between atoms: C_9  and  C_10
REMARK    6  A    between atoms: C_9  and  C_12
REMARK    7  A    between atoms: C_16  and  N_17
REMARK    8  A    between atoms: N_17  and  C_18
REMARK                            x       y       z     vdW  Elec       q    Type
REMARK                         _______ _______ _______ _____ _____    ______ ____
ROOT
ATOM      1  C   UNL     1      43.825   4.772  12.214  0.00  0.00    +0.000 C 
ENDROOT
BRANCH   1   2
ATOM      2  C   UNL     1      45.244   5.230  12.539  0.00  0.00    +0.000 A 
ATOM      3  C   UNL     1      45.904   6.102  11.660  0.00  0.00    +0.000 A 
ATOM      4  C   UNL     1      47.147   6.644  11.995  0.00  0.00    +0.000 A 
ATOM      5  C   UNL     1      47.759   6.312  13.207  0.00  0.00    +0.000 A 
ATOM      6  C   UNL     1      47.134   5.439  14.094  0.00  0.00    +0.000 A 
ATOM      7  C   UNL     1      45.881   4.908  13.749  0.00  0.00    +0.000 A 
BRANCH   6   8
ATOM      8  N   UNL     1      47.677   5.082  15.346  0.00  0.00    +0.000 N 
ATOM      9  H   UNL     1      48.693   5.029  15.280  0.00  0.00    +0.000 HD
BRANCH   8  10
ATOM     10  C   UNL     1      47.115   4.160  16.293  0.00  0.00    +0.000 C 
ATOM     11  C   UNL     1      47.175   4.695  17.743  0.00  0.00    +0.000 C 
ATOM     12  N   UNL     1      47.638   3.365  18.195  0.00  0.00    +0.000 NA
ATOM     13  C   UNL     1      48.052   3.053  16.807  0.00  0.00    +0.000 C 
ATOM     14  H   UNL     1      46.877   2.774  18.533  0.00  0.00    +0.000 HD
ENDBRANCH   8  10
ENDBRANCH   6   8
ENDBRANCH   1   2
BRANCH   1  15
ATOM     15  C   UNL     1      42.973   5.757  11.402  0.00  0.00    +0.000 C 
ATOM     16  F   UNL     1      41.666   5.694  11.772  0.00  0.00    +0.000 F 
ENDBRANCH   1  15
BRANCH   1  17
ATOM     17  C   UNL     1      43.912   3.398  11.519  0.00  0.00    +0.000 C 
BRANCH  17  18
ATOM     18  N   UNL     1      43.830   3.484  10.061  0.00  0.00    +0.000 N 
ATOM     19  H   UNL     1      43.351   4.327   9.751  0.00  0.00    +0.000 HD
BRANCH  18  23
ATOM     20  C   UNL     1      46.821   2.446   7.281  0.00  0.00    +0.000 A 
ATOM     21  C   UNL     1      46.237   1.448   8.062  0.00  0.00    +0.000 A 
ATOM     22  C   UNL     1      45.276   1.783   9.027  0.00  0.00    +0.000 A 
ATOM     23  C   UNL     1      44.876   3.108   9.226  0.00  0.00    +0.000 A 
ATOM     24  C   UNL     1      45.472   4.093   8.424  0.00  0.00    +0.000 A 
ATOM     25  C   UNL     1      46.446   3.773   7.472  0.00  0.00    +0.000 A 
BRANCH  20  27
ATOM     26  N   UNL     1      48.573   1.811   5.478  0.00  0.00    +0.000 NA
ATOM     27  C   UNL     1      47.789   2.101   6.279  0.00  0.00    +0.000 C 
ENDBRANCH  20  27
ENDBRANCH  18  23
ENDBRANCH  17  18
ENDBRANCH   1  17
TORSDOF 8
ENDMDL
MODEL 2
REMARK VINA RESULT:    -7.811      3.026      4.944
REMARK INTER + INTRA:         -12.463
REMARK INTER:                 -11.592
REMARK INTRA:                  -0.871
REMARK UNBOUND:                -0.999
REMARK  Name = 
REMARK  8 active torsions:
REMARK  status: ('A' for Active; 'I' for Inactive)
REMARK    1  A    between atoms: C_2  and  C_3
REMARK    2  A    between atoms: C_6  and  N_7
REMARK    3  A    between atoms: N_7  and  C_8
REMARK    4  A    between atoms: C_8  and  C_9
REMARK    5  A    between atoms: C_9  and  C_10
REMARK    6  A    between atoms: C_9  and  C_12
REMARK    7  A    between atoms: C_16  and  N_17
REMARK    8  A    between atoms: N_17  and  C_18
REMARK                            x       y       z     vdW  Elec       q    Type
REMARK                         _______ _______ _______ _____ _____    ______ ____
ROOT
ATOM      1  C   UNL     1      45.593   5.080  11.781  0.00  0.00    +0.000 C 
ENDROOT
BRANCH   1   2
ATOM      2  C   UNL     1      46.018   6.524  12.033  0.00  0.00    +0.000 A 
ATOM      3  C   UNL     1      47.374   6.869  11.939  0.00  0.00    +0.000 A 
ATOM      4  C   UNL     1      47.777   8.204  12.031  0.00  0.00    +0.000 A 
ATOM      5  C   UNL     1      46.833   9.215  12.232  0.00  0.00    +0.000 A 
ATOM      6  C   UNL     1      45.480   8.901  12.342  0.00  0.00    +0.000 A 
ATOM      7  C   UNL     1      45.088   7.557  12.240  0.00  0.00    +0.000 A 
BRANCH   6   8
ATOM      8  N   UNL     1      44.470   9.869  12.517  0.00  0.00    +0.000 N 
ATOM      9  H   UNL     1      43.876   9.611  13.305  0.00  0.00    +0.000 HD
BRANCH   8  10
ATOM     10  C   UNL     1      43.771  10.576  11.481  0.00  0.00    +0.000 C 
ATOM     11  C   UNL     1      42.808   9.660  10.690  0.00  0.00    +0.000 C 
ATOM     12  N   UNL     1      43.293  10.268   9.432  0.00  0.00    +0.000 NA
ATOM     13  C   UNL     1      44.510  10.729  10.140  0.00  0.00    +0.000 C 
ATOM     14  H   UNL     1      42.699  11.032   9.106  0.00  0.00    +0.000 HD
ENDBRANCH   8  10
ENDBRANCH   6   8
ENDBRANCH   1   2
BRANCH   1  15
ATOM     15  C   UNL     1      45.726   4.126  12.975  0.00  0.00    +0.000 C 
ATOM     16  F   UNL     1      45.974   2.855  12.561  0.00  0.00    +0.000 F 
ENDBRANCH   1  15
BRANCH   1  17
ATOM     17  C   UNL     1      44.153   5.092  11.229  0.00  0.00    +0.000 C 
BRANCH  17  18
ATOM     18  N   UNL     1      43.846   3.930  10.396  0.00  0.00    +0.000 N 
ATOM     19  H   UNL     1      42.859   3.883  10.150  0.00  0.00    +0.000 HD
BRANCH  18  23
ATOM     20  C   UNL     1      46.598   2.486   7.552  0.00  0.00    +0.000 A 
ATOM     21  C   UNL     1      46.306   3.850   7.591  0.00  0.00    +0.000 A 
ATOM     22  C   UNL     1      45.356   4.340   8.497  0.00  0.00    +0.000 A 
ATOM     23  C   UNL     1      44.687   3.487   9.381  0.00  0.00    +0.000 A 
ATOM     24  C   UNL     1      45.003   2.121   9.329  0.00  0.00    +0.000 A 
ATOM     25  C   UNL     1      45.934   1.618   8.415  0.00  0.00    +0.000 A 
BRANCH  20  27
ATOM     26  N   UNL     1      48.384   1.597   5.895  0.00  0.00    +0.000 NA
ATOM     27  C   UNL     1      47.585   1.987   6.637  0.00  0.00    +0.000 C 
ENDBRANCH  20  27
ENDBRANCH  18  23
ENDBRANCH  17  18
ENDBRANCH   1  17
TORSDOF 8
ENDMDL
MODEL 3
REMARK VINA RESULT:    -7.327      2.343      3.086
REMARK INTER + INTRA:         -11.753
REMARK INTER:                 -11.109
REMARK INTRA:                  -0.644
REMARK UNBOUND:                -0.999
REMARK  Name = 
REMARK  8 active torsions:
REMARK  status: ('A' for Active; 'I' for Inactive)
REMARK    1  A    between atoms: C_2  and  C_3
REMARK    2  A    between atoms: C_6  and  N_7
REMARK    3  A    between atoms: N_7  and  C_8
REMARK    4  A    between atoms: C_8  and  C_9
REMARK    5  A    between atoms: C_9  and  C_10
REMARK    6  A    between atoms: C_9  and  C_12
REMARK    7  A    between atoms: C_16  and  N_17
REMARK    8  A    between atoms: N_17  and  C_18
REMARK                            x       y       z     vdW  Elec       q    Type
REMARK                         _______ _______ _______ _____ _____    ______ ____
ROOT
ATOM      1  C   UNL     1      44.795   5.152  11.951  0.00  0.00    +0.000 C 
ENDROOT
BRANCH   1   2
ATOM      2  C   UNL     1      45.156   6.630  12.071  0.00  0.00    +0.000 A 
ATOM      3  C   UNL     1      44.519   7.564  11.240  0.00  0.00    +0.000 A 
ATOM      4  C   UNL     1      44.728   8.934  11.418  0.00  0.00    +0.000 A 
ATOM      5  C   UNL     1      45.589   9.393  12.418  0.00  0.00    +0.000 A 
ATOM      6  C   UNL     1      46.246   8.489  13.250  0.00  0.00    +0.000 A 
ATOM      7  C   UNL     1      46.020   7.116  13.066  0.00  0.00    +0.000 A 
BRANCH   6   8
ATOM      8  N   UNL     1      47.106   8.879  14.298  0.00  0.00    +0.000 N 
ATOM      9  H   UNL     1      46.834   9.799  14.644  0.00  0.00    +0.000 HD
BRANCH   8  10
ATOM     10  C   UNL     1      48.517   8.628  14.389  0.00  0.00    +0.000 C 
ATOM     11  C   UNL     1      49.114   8.134  13.050  0.00  0.00    +0.000 C 
ATOM     12  N   UNL     1      49.870   7.101  13.790  0.00  0.00    +0.000 NA
ATOM     13  C   UNL     1      48.932   7.247  14.927  0.00  0.00    +0.000 C 
ATOM     14  H   UNL     1      50.824   7.390  14.012  0.00  0.00    +0.000 HD
ENDBRANCH   8  10
ENDBRANCH   6   8
ENDBRANCH   1   2
BRANCH   1  15
ATOM     15  C   UNL     1      44.331   4.469  13.244  0.00  0.00    +0.000 C 
ATOM     16  F   UNL     1      42.978   4.525  13.368  0.00  0.00    +0.000 F 
ENDBRANCH   1  15
BRANCH   1  17
ATOM     17  C   UNL     1      43.745   5.005  10.830  0.00  0.00    +0.000 C 
BRANCH  17  18
ATOM     18  N   UNL     1      43.732   3.672  10.225  0.00  0.00    +0.000 N 
ATOM     19  H   UNL     1      42.786   3.326  10.079  0.00  0.00    +0.000 HD
BRANCH  18  23
ATOM     20  C   UNL     1      46.617   2.417   7.424  0.00  0.00    +0.000 A 
ATOM     21  C   UNL     1      46.270   3.767   7.491  0.00  0.00    +0.000 A 
ATOM     22  C   UNL     1      45.276   4.194   8.382  0.00  0.00    +0.000 A 
ATOM     23  C   UNL     1      44.618   3.292   9.224  0.00  0.00    +0.000 A 
ATOM     24  C   UNL     1      44.989   1.941   9.145  0.00  0.00    +0.000 A 
ATOM     25  C   UNL     1      45.964   1.500   8.244  0.00  0.00    +0.000 A 
BRANCH  20  27
ATOM     26  N   UNL     1      48.475   1.639   5.791  0.00  0.00    +0.000 NA
ATOM     27  C   UNL     1      47.649   1.983   6.525  0.00  0.00    +0.000 C 
ENDBRANCH  20  27
ENDBRANCH  18  23
ENDBRANCH  17  18
ENDBRANCH   1  17
TORSDOF 8
ENDMDL
MODEL 4
REMARK VINA RESULT:    -7.222      2.827      3.781
REMARK INTER + INTRA:         -11.598
REMARK INTER:                 -10.618
REMARK INTRA:                  -0.980
REMARK UNBOUND:                -0.999
REMARK  Name = 
REMARK  8 active torsions:
REMARK  status: ('A' for Active; 'I' for Inactive)
REMARK    1  A    between atoms: C_2  and  C_3
REMARK    2  A    between atoms: C_6  and  N_7
REMARK    3  A    between atoms: N_7  and  C_8
REMARK    4  A    between atoms: C_8  and  C_9
REMARK    5  A    between atoms: C_9  and  C_10
REMARK    6  A    between atoms: C_9  and  C_12
REMARK    7  A    between atoms: C_16  and  N_17
REMARK    8  A    between atoms: N_17  and  C_18
REMARK                            x       y       z     vdW  Elec       q    Type
REMARK                         _______ _______ _______ _____ _____    ______ ____
ROOT
ATOM      1  C   UNL     1      45.522   5.079  11.736  0.00  0.00    +0.000 C 
ENDROOT
BRANCH   1   2
ATOM      2  C   UNL     1      46.044   6.499  11.945  0.00  0.00    +0.000 A 
ATOM      3  C   UNL     1      45.185   7.478  12.466  0.00  0.00    +0.000 A 
ATOM      4  C   UNL     1      45.669   8.747  12.793  0.00  0.00    +0.000 A 
ATOM      5  C   UNL     1      47.015   9.064  12.592  0.00  0.00    +0.000 A 
ATOM      6  C   UNL     1      47.889   8.116  12.063  0.00  0.00    +0.000 A 
ATOM      7  C   UNL     1      47.392   6.842  11.747  0.00  0.00    +0.000 A 
BRANCH   6   8
ATOM      8  N   UNL     1      49.264   8.355  11.860  0.00  0.00    +0.000 N 
ATOM      9  H   UNL     1      49.649   7.646  11.236  0.00  0.00    +0.000 HD
BRANCH   8  10
ATOM     10  C   UNL     1      50.205   8.833  12.833  0.00  0.00    +0.000 C 
ATOM     11  C   UNL     1      51.669   8.535  12.433  0.00  0.00    +0.000 C 
ATOM     12  N   UNL     1      51.939   8.096  13.818  0.00  0.00    +0.000 NA
ATOM     13  C   UNL     1      50.486   7.903  14.026  0.00  0.00    +0.000 C 
ATOM     14  H   UNL     1      52.337   8.836  14.399  0.00  0.00    +0.000 HD
ENDBRANCH   8  10
ENDBRANCH   6   8
ENDBRANCH   1   2
BRANCH   1  15
ATOM     15  C   UNL     1      45.667   4.131  12.933  0.00  0.00    +0.000 C 
ATOM     16  F   UNL     1      45.848   2.848  12.521  0.00  0.00    +0.000 F 
ENDBRANCH   1  15
BRANCH   1  17
ATOM     17  C   UNL     1      44.056   5.172  11.266  0.00  0.00    +0.000 C 
BRANCH  17  18
ATOM     18  N   UNL     1      43.687   4.117  10.322  0.00  0.00    +0.000 N 
ATOM     19  H   UNL     1      42.732   4.220   9.983  0.00  0.00    +0.000 HD
BRANCH  18  23
ATOM     20  C   UNL     1      46.530   2.539   7.643  0.00  0.00    +0.000 A 
ATOM     21  C   UNL     1      46.264   3.909   7.631  0.00  0.00    +0.000 A 
ATOM     22  C   UNL     1      45.285   4.443   8.480  0.00  0.00    +0.000 A 
ATOM     23  C   UNL     1      44.562   3.630   9.358  0.00  0.00    +0.000 A 
ATOM     24  C   UNL     1      44.852   2.257   9.358  0.00  0.00    +0.000 A 
ATOM     25  C   UNL     1      45.811   1.710   8.500  0.00  0.00    +0.000 A 
BRANCH  20  27
ATOM     26  N   UNL     1      48.360   1.564   6.087  0.00  0.00    +0.000 NA
ATOM     27  C   UNL     1      47.546   1.996   6.787  0.00  0.00    +0.000 C 
ENDBRANCH  20  27
ENDBRANCH  18  23
ENDBRANCH  17  18
ENDBRANCH   1  17
TORSDOF 8
ENDMDL
MODEL 5
REMARK VINA RESULT:    -6.864      2.615      7.206
REMARK INTER + INTRA:         -11.074
REMARK INTER:                 -10.217
REMARK INTRA:                  -0.857
REMARK UNBOUND:                -0.999
REMARK  Name = 
REMARK  8 active torsions:
REMARK  status: ('A' for Active; 'I' for Inactive)
REMARK    1  A    between atoms: C_2  and  C_3
REMARK    2  A    between atoms: C_6  and  N_7
REMARK    3  A    between atoms: N_7  and  C_8
REMARK    4  A    between atoms: C_8  and  C_9
REMARK    5  A    between atoms: C_9  and  C_10
REMARK    6  A    between atoms: C_9  and  C_12
REMARK    7  A    between atoms: C_16  and  N_17
REMARK    8  A    between atoms: N_17  and  C_18
REMARK                            x       y       z     vdW  Elec       q    Type
REMARK                         _______ _______ _______ _____ _____    ______ ____
ROOT
ATOM      1  C   UNL     1      44.393   5.836  11.284  0.00  0.00    +0.000 C 
ENDROOT
BRANCH   1   2
ATOM      2  C   UNL     1      44.600   4.524  10.532  0.00  0.00    +0.000 A 
ATOM      3  C   UNL     1      44.104   3.331  11.079  0.00  0.00    +0.000 A 
ATOM      4  C   UNL     1      44.159   2.138  10.354  0.00  0.00    +0.000 A 
ATOM      5  C   UNL     1      44.722   2.114   9.075  0.00  0.00    +0.000 A 
ATOM      6  C   UNL     1      45.234   3.281   8.510  0.00  0.00    +0.000 A 
ATOM      7  C   UNL     1      45.166   4.474   9.247  0.00  0.00    +0.000 A 
BRANCH   6   8
ATOM      8  N   UNL     1      45.791   3.338   7.215  0.00  0.00    +0.000 N 
ATOM      9  H   UNL     1      45.139   2.939   6.541  0.00  0.00    +0.000 HD
BRANCH   8  10
ATOM     10  C   UNL     1      47.170   3.143   6.865  0.00  0.00    +0.000 C 
ATOM     11  C   UNL     1      47.358   2.847   5.359  0.00  0.00    +0.000 C 
ATOM     12  N   UNL     1      48.305   1.766   5.708  0.00  0.00    +0.000 NA
ATOM     13  C   UNL     1      47.734   1.727   7.075  0.00  0.00    +0.000 C 
ATOM     14  H   UNL     1      49.280   2.070   5.685  0.00  0.00    +0.000 HD
ENDBRANCH   8  10
ENDBRANCH   6   8
ENDBRANCH   1   2
BRANCH   1  15
ATOM     15  C   UNL     1      42.965   6.395  11.274  0.00  0.00    +0.000 C 
ATOM     16  F   UNL     1      42.127   5.610  12.002  0.00  0.00    +0.000 F 
ENDBRANCH   1  15
BRANCH   1  17
ATOM     17  C   UNL     1      44.914   5.649  12.724  0.00  0.00    +0.000 C 
BRANCH  17  18
ATOM     18  N   UNL     1      45.579   6.840  13.255  0.00  0.00    +0.000 N 
ATOM     19  H   UNL     1      45.570   6.864  14.273  0.00  0.00    +0.000 HD
BRANCH  18  23
ATOM     20  C   UNL     1      49.248   8.376  11.867  0.00  0.00    +0.000 A 
ATOM     21  C   UNL     1      48.121   9.199  11.875  0.00  0.00    +0.000 A 
ATOM     22  C   UNL     1      46.881   8.689  12.286  0.00  0.00    +0.000 A 
ATOM     23  C   UNL     1      46.743   7.361  12.701  0.00  0.00    +0.000 A 
ATOM     24  C   UNL     1      47.891   6.556  12.692  0.00  0.00    +0.000 A 
ATOM     25  C   UNL     1      49.129   7.047  12.264  0.00  0.00    +0.000 A 
BRANCH  20  27
ATOM     26  N   UNL     1      51.548   9.321  11.132  0.00  0.00    +0.000 NA
ATOM     27  C   UNL     1      50.520   8.904  11.464  0.00  0.00    +0.000 C 
ENDBRANCH  20  27
ENDBRANCH  18  23
ENDBRANCH  17  18
ENDBRANCH   1  17
TORSDOF 8
ENDMDL
MODEL 6
REMARK VINA RESULT:    -5.926      3.373      7.736
REMARK INTER + INTRA:          -9.697
REMARK INTER:                  -8.614
REMARK INTRA:                  -1.083
REMARK UNBOUND:                -0.999
REMARK  Name = 
REMARK  8 active torsions:
REMARK  status: ('A' for Active; 'I' for Inactive)
REMARK    1  A    between atoms: C_2  and  C_3
REMARK    2  A    between atoms: C_6  and  N_7
REMARK    3  A    between atoms: N_7  and  C_8
REMARK    4  A    between atoms: C_8  and  C_9
REMARK    5  A    between atoms: C_9  and  C_10
REMARK    6  A    between atoms: C_9  and  C_12
REMARK    7  A    between atoms: C_16  and  N_17
REMARK    8  A    between atoms: N_17  and  C_18
REMARK                            x       y       z     vdW  Elec       q    Type
REMARK                         _______ _______ _______ _____ _____    ______ ____
ROOT
ATOM      1  C   UNL     1      48.865   7.206  14.382  0.00  0.00    +0.000 C 
ENDROOT
BRANCH   1   2
ATOM      2  C   UNL     1      47.525   7.258  13.651  0.00  0.00    +0.000 A 
ATOM      3  C   UNL     1      46.817   8.468  13.598  0.00  0.00    +0.000 A 
ATOM      4  C   UNL     1      45.658   8.581  12.826  0.00  0.00    +0.000 A 
ATOM      5  C   UNL     1      45.180   7.484  12.104  0.00  0.00    +0.000 A 
ATOM      6  C   UNL     1      45.855   6.266  12.147  0.00  0.00    +0.000 A 
ATOM      7  C   UNL     1      47.023   6.168  12.921  0.00  0.00    +0.000 A 
BRANCH   6   8
ATOM      8  N   UNL     1      45.449   5.126  11.423  0.00  0.00    +0.000 N 
ATOM      9  H   UNL     1      45.173   5.395  10.480  0.00  0.00    +0.000 HD
BRANCH   8  10
ATOM     10  C   UNL     1      44.717   4.001  11.935  0.00  0.00    +0.000 C 
ATOM     11  C   UNL     1      44.241   3.049  10.813  0.00  0.00    +0.000 C 
ATOM     12  N   UNL     1      42.917   2.969  11.468  0.00  0.00    +0.000 NA
ATOM     13  C   UNL     1      43.217   4.224  12.196  0.00  0.00    +0.000 C 
ATOM     14  H   UNL     1      42.827   2.157  12.081  0.00  0.00    +0.000 HD
ENDBRANCH   8  10
ENDBRANCH   6   8
ENDBRANCH   1   2
BRANCH   1  15
ATOM     15  C   UNL     1      50.073   7.742  13.603  0.00  0.00    +0.000 C 
ATOM     16  F   UNL     1      50.070   7.287  12.322  0.00  0.00    +0.000 F 
ENDBRANCH   1  15
BRANCH   1  17
ATOM     17  C   UNL     1      48.701   7.929  15.734  0.00  0.00    +0.000 C 
BRANCH  17  18
ATOM     18  N   UNL     1      48.219   7.052  16.801  0.00  0.00    +0.000 N 
ATOM     19  H   UNL     1      47.205   7.084  16.897  0.00  0.00    +0.000 HD
BRANCH  18  23
ATOM     20  C   UNL     1      50.041   3.283  17.270  0.00  0.00    +0.000 A 
ATOM     21  C   UNL     1      48.683   3.352  16.960  0.00  0.00    +0.000 A 
ATOM     22  C   UNL     1      48.049   4.598  16.850  0.00  0.00    +0.000 A 
ATOM     23  C   UNL     1      48.754   5.791  17.038  0.00  0.00    +0.000 A 
ATOM     24  C   UNL     1      50.120   5.696  17.341  0.00  0.00    +0.000 A 
ATOM     25  C   UNL     1      50.758   4.459  17.475  0.00  0.00    +0.000 A 
BRANCH  20  27
ATOM     26  N   UNL     1      51.228   0.983  17.430  0.00  0.00    +0.000 NA
ATOM     27  C   UNL     1      50.693   2.007  17.363  0.00  0.00    +0.000 C 
ENDBRANCH  20  27
ENDBRANCH  18  23
ENDBRANCH  17  18
ENDBRANCH   1  17
TORSDOF 8
ENDMDL
MODEL 7
REMARK VINA RESULT:    -5.775      3.410      7.185
REMARK INTER + INTRA:          -9.476
REMARK INTER:                  -8.638
REMARK INTRA:                  -0.837
REMARK UNBOUND:                -0.999
REMARK  Name = 
REMARK  8 active torsions:
REMARK  status: ('A' for Active; 'I' for Inactive)
REMARK    1  A    between atoms: C_2  and  C_3
REMARK    2  A    between atoms: C_6  and  N_7
REMARK    3  A    between atoms: N_7  and  C_8
REMARK    4  A    between atoms: C_8  and  C_9
REMARK    5  A    between atoms: C_9  and  C_10
REMARK    6  A    between atoms: C_9  and  C_12
REMARK    7  A    between atoms: C_16  and  N_17
REMARK    8  A    between atoms: N_17  and  C_18
REMARK                            x       y       z     vdW  Elec       q    Type
REMARK                         _______ _______ _______ _____ _____    ______ ____
ROOT
ATOM      1  C   UNL     1      46.183   5.714  13.661  0.00  0.00    +0.000 C 
ENDROOT
BRANCH   1   2
ATOM      2  C   UNL     1      45.052   5.047  12.882  0.00  0.00    +0.000 A 
ATOM      3  C   UNL     1      43.764   5.602  12.928  0.00  0.00    +0.000 A 
ATOM      4  C   UNL     1      42.742   5.095  12.122  0.00  0.00    +0.000 A 
ATOM      5  C   UNL     1      42.985   4.016  11.268  0.00  0.00    +0.000 A 
ATOM      6  C   UNL     1      44.251   3.436  11.210  0.00  0.00    +0.000 A 
ATOM      7  C   UNL     1      45.271   3.960  12.019  0.00  0.00    +0.000 A 
BRANCH   6   8
ATOM      8  N   UNL     1      44.577   2.364  10.353  0.00  0.00    +0.000 N 
ATOM      9  H   UNL     1      45.303   1.790  10.779  0.00  0.00    +0.000 HD
BRANCH   8  10
ATOM     10  C   UNL     1      44.645   2.404   8.919  0.00  0.00    +0.000 C 
ATOM     11  C   UNL     1      45.959   1.797   8.375  0.00  0.00    +0.000 C 
ATOM     12  N   UNL     1      46.076   2.936   7.440  0.00  0.00    +0.000 NA
ATOM     13  C   UNL     1      45.151   3.716   8.295  0.00  0.00    +0.000 C 
ATOM     14  H   UNL     1      45.697   2.730   6.514  0.00  0.00    +0.000 HD
ENDBRANCH   8  10
ENDBRANCH   6   8
ENDBRANCH   1   2
BRANCH   1  15
ATOM     15  C   UNL     1      47.458   4.880  13.836  0.00  0.00    +0.000 C 
ATOM     16  F   UNL     1      47.232   3.804  14.635  0.00  0.00    +0.000 F 
ENDBRANCH   1  15
BRANCH   1  17
ATOM     17  C   UNL     1      46.486   7.073  12.996  0.00  0.00    +0.000 C 
BRANCH  17  18
ATOM     18  N   UNL     1      47.467   6.978  11.915  0.00  0.00    +0.000 N 
ATOM     19  H   UNL     1      47.034   6.751  11.022  0.00  0.00    +0.000 HD
BRANCH  18  23
ATOM     20  C   UNL     1      50.601   9.722  11.285  0.00  0.00    +0.000 A 
ATOM     21  C   UNL     1      50.886   8.357  11.329  0.00  0.00    +0.000 A 
ATOM     22  C   UNL     1      49.863   7.434  11.588  0.00  0.00    +0.000 A 
ATOM     23  C   UNL     1      48.544   7.849  11.798  0.00  0.00    +0.000 A 
ATOM     24  C   UNL     1      48.281   9.226  11.742  0.00  0.00    +0.000 A 
ATOM     25  C   UNL     1      49.297  10.158  11.506  0.00  0.00    +0.000 A 
BRANCH  20  27
ATOM     26  N   UNL     1      52.489  11.420  10.760  0.00  0.00    +0.000 NA
ATOM     27  C   UNL     1      51.646  10.665  11.001  0.00  0.00    +0.000 C 
ENDBRANCH  20  27
ENDBRANCH  18  23
ENDBRANCH  17  18
ENDBRANCH   1  17
TORSDOF 8
ENDMDL
MODEL 8
REMARK VINA RESULT:    -5.758      2.874      4.762
REMARK INTER + INTRA:          -9.450
REMARK INTER:                  -8.598
REMARK INTRA:                  -0.852
REMARK UNBOUND:                -0.999
REMARK  Name = 
REMARK  8 active torsions:
REMARK  status: ('A' for Active; 'I' for Inactive)
REMARK    1  A    between atoms: C_2  and  C_3
REMARK    2  A    between atoms: C_6  and  N_7
REMARK    3  A    between atoms: N_7  and  C_8
REMARK    4  A    between atoms: C_8  and  C_9
REMARK    5  A    between atoms: C_9  and  C_10
REMARK    6  A    between atoms: C_9  and  C_12
REMARK    7  A    between atoms: C_16  and  N_17
REMARK    8  A    between atoms: N_17  and  C_18
REMARK                            x       y       z     vdW  Elec       q    Type
REMARK                         _______ _______ _______ _____ _____    ______ ____
ROOT
ATOM      1  C   UNL     1      48.473   8.274  13.370  0.00  0.00    +0.000 C 
ENDROOT
BRANCH   1   2
ATOM      2  C   UNL     1      48.669   8.047  14.867  0.00  0.00    +0.000 A 
ATOM      3  C   UNL     1      48.362   9.079  15.766  0.00  0.00    +0.000 A 
ATOM      4  C   UNL     1      48.402   8.857  17.144  0.00  0.00    +0.000 A 
ATOM      5  C   UNL     1      48.764   7.605  17.648  0.00  0.00    +0.000 A 
ATOM      6  C   UNL     1      49.088   6.564  16.780  0.00  0.00    +0.000 A 
ATOM      7  C   UNL     1      49.035   6.798  15.397  0.00  0.00    +0.000 A 
BRANCH   6   8
ATOM      8  N   UNL     1      49.434   5.268  17.215  0.00  0.00    +0.000 N 
ATOM      9  H   UNL     1      50.044   4.825  16.529  0.00  0.00    +0.000 HD
BRANCH   8  10
ATOM     10  C   UNL     1      48.585   4.341  17.910  0.00  0.00    +0.000 C 
ATOM     11  C   UNL     1      48.207   3.121  17.038  0.00  0.00    +0.000 C 
ATOM     12  N   UNL     1      46.809   3.246  17.502  0.00  0.00    +0.000 NA
ATOM     13  C   UNL     1      47.078   4.649  17.892  0.00  0.00    +0.000 C 
ATOM     14  H   UNL     1      46.599   2.638  18.296  0.00  0.00    +0.000 HD
ENDBRANCH   8  10
ENDBRANCH   6   8
ENDBRANCH   1   2
BRANCH   1  15
ATOM     15  C   UNL     1      49.225   7.311  12.443  0.00  0.00    +0.000 C 
ATOM     16  F   UNL     1      49.052   7.654  11.138  0.00  0.00    +0.000 F 
ENDBRANCH   1  15
BRANCH   1  17
ATOM     17  C   UNL     1      46.959   8.269  13.078  0.00  0.00    +0.000 C 
BRANCH  17  18
ATOM     18  N   UNL     1      46.282   7.068  13.569  0.00  0.00    +0.000 N 
ATOM     19  H   UNL     1      45.553   7.286  14.245  0.00  0.00    +0.000 HD
BRANCH  18  23
ATOM     20  C   UNL     1      45.048   3.965  11.000  0.00  0.00    +0.000 A 
ATOM     21  C   UNL     1      45.240   3.696  12.356  0.00  0.00    +0.000 A 
ATOM     22  C   UNL     1      45.698   4.704  13.215  0.00  0.00    +0.000 A 
ATOM     23  C   UNL     1      45.966   5.993  12.745  0.00  0.00    +0.000 A 
ATOM     24  C   UNL     1      45.759   6.242  11.380  0.00  0.00    +0.000 A 
ATOM     25  C   UNL     1      45.322   5.239  10.509  0.00  0.00    +0.000 A 
BRANCH  20  27
ATOM     26  N   UNL     1      44.166   2.116   9.410  0.00  0.00    +0.000 NA
ATOM     27  C   UNL     1      44.560   2.937  10.125  0.00  0.00    +0.000 C 
ENDBRANCH  20  27
ENDBRANCH  18  23
ENDBRANCH  17  18
ENDBRANCH   1  17
TORSDOF 8
ENDMDL
MODEL 9
REMARK VINA RESULT:    -5.753      3.165      7.152
REMARK INTER + INTRA:          -9.443
REMARK INTER:                  -8.355
REMARK INTRA:                  -1.088
REMARK UNBOUND:                -0.999
REMARK  Name = 
REMARK  8 active torsions:
REMARK  status: ('A' for Active; 'I' for Inactive)
REMARK    1  A    between atoms: C_2  and  C_3
REMARK    2  A    between atoms: C_6  and  N_7
REMARK    3  A    between atoms: N_7  and  C_8
REMARK    4  A    between atoms: C_8  and  C_9
REMARK    5  A    between atoms: C_9  and  C_10
REMARK    6  A    between atoms: C_9  and  C_12
REMARK    7  A    between atoms: C_16  and  N_17
REMARK    8  A    between atoms: N_17  and  C_18
REMARK                            x       y       z     vdW  Elec       q    Type
REMARK                         _______ _______ _______ _____ _____    ______ ____
ROOT
ATOM      1  C   UNL     1      48.563   8.209  11.702  0.00  0.00    +0.000 C 
ENDROOT
BRANCH   1   2
ATOM      2  C   UNL     1      47.146   7.645  11.780  0.00  0.00    +0.000 A 
ATOM      3  C   UNL     1      46.156   8.364  12.467  0.00  0.00    +0.000 A 
ATOM      4  C   UNL     1      44.824   7.944  12.443  0.00  0.00    +0.000 A 
ATOM      5  C   UNL     1      44.461   6.790  11.743  0.00  0.00    +0.000 A 
ATOM      6  C   UNL     1      45.423   6.048  11.062  0.00  0.00    +0.000 A 
ATOM      7  C   UNL     1      46.757   6.486  11.088  0.00  0.00    +0.000 A 
BRANCH   6   8
ATOM      8  N   UNL     1      45.126   4.890  10.313  0.00  0.00    +0.000 N 
ATOM      9  H   UNL     1      44.508   5.129   9.539  0.00  0.00    +0.000 HD
BRANCH   8  10
ATOM     10  C   UNL     1      44.915   3.566  10.827  0.00  0.00    +0.000 C 
ATOM     11  C   UNL     1      43.463   3.348  11.312  0.00  0.00    +0.000 C 
ATOM     12  N   UNL     1      43.987   2.682  12.524  0.00  0.00    +0.000 NA
ATOM     13  C   UNL     1      45.297   3.336  12.300  0.00  0.00    +0.000 C 
ATOM     14  H   UNL     1      44.021   1.665  12.435  0.00  0.00    +0.000 HD
ENDBRANCH   8  10
ENDBRANCH   6   8
ENDBRANCH   1   2
BRANCH   1  15
ATOM     15  C   UNL     1      48.710   9.699  12.035  0.00  0.00    +0.000 C 
ATOM     16  F   UNL     1      48.350  10.474  10.977  0.00  0.00    +0.000 F 
ENDBRANCH   1  15
BRANCH   1  17
ATOM     17  C   UNL     1      49.473   7.340  12.593  0.00  0.00    +0.000 C 
BRANCH  17  18
ATOM     18  N   UNL     1      49.225   7.525  14.023  0.00  0.00    +0.000 N 
ATOM     19  H   UNL     1      48.927   8.473  14.242  0.00  0.00    +0.000 HD
BRANCH  18  23
ATOM     20  C   UNL     1      47.649   4.456  16.441  0.00  0.00    +0.000 A 
ATOM     21  C   UNL     1      47.198   4.592  15.128  0.00  0.00    +0.000 A 
ATOM     22  C   UNL     1      47.675   5.638  14.326  0.00  0.00    +0.000 A 
ATOM     23  C   UNL     1      48.609   6.558  14.810  0.00  0.00    +0.000 A 
ATOM     24  C   UNL     1      49.054   6.397  16.131  0.00  0.00    +0.000 A 
ATOM     25  C   UNL     1      48.569   5.370  16.948  0.00  0.00    +0.000 A 
BRANCH  20  27
ATOM     26  N   UNL     1      46.805   2.498  17.917  0.00  0.00    +0.000 NA
ATOM     27  C   UNL     1      47.175   3.373  17.256  0.00  0.00    +0.000 C 
ENDBRANCH  20  27
ENDBRANCH  18  23
ENDBRANCH  17  18
ENDBRANCH   1  17
TORSDOF 8
ENDMDL
