MODEL 1
REMARK VINA RESULT:    -8.877      0.000      0.000
REMARK INTER + INTRA:         -11.557
REMARK INTER:                 -10.953
REMARK INTRA:                  -0.604
REMARK UNBOUND:                -0.604
REMARK  Name = 
REMARK  4 active torsions:
REMARK  status: ('A' for Active; 'I' for Inactive)
REMARK    1  A    between atoms: C_2  and  C_4
REMARK    2  A    between atoms: N_8  and  C_9
REMARK    3  A    between atoms: C_9  and  C_10
REMARK    4  A    between atoms: C_14  and  N_15
REMARK                            x       y       z     vdW  Elec       q    Type
REMARK                         _______ _______ _______ _____ _____    ______ ____
ROOT
ATOM      1  C   UNL     1      46.368   2.258   7.699  0.00  0.00    +0.000 A 
ATOM      2  C   UNL     1      45.566   1.791   8.734  0.00  0.00    +0.000 A 
ATOM      3  C   UNL     1      44.704   2.677   9.379  0.00  0.00    +0.000 A 
ATOM      4  C   UNL     1      44.672   4.016   8.999  0.00  0.00    +0.000 A 
ATOM      5  N   UNL     1      43.793   4.931   9.535  0.00  0.00    +0.000 N 
ATOM      6  N   UNL     1      45.456   4.481   8.009  0.00  0.00    +0.000 NA
ATOM      7  C   UNL     1      46.290   3.606   7.385  0.00  0.00    +0.000 A 
ATOM      8  H   UNL     1      44.039   5.850   9.178  0.00  0.00    +0.000 HD
ENDROOT
BRANCH   1  10
ATOM      9  N   UNL     1      48.342   1.985   6.316  0.00  0.00    +0.000 N 
ATOM     10  C   UNL     1      47.288   1.383   6.947  0.00  0.00    +0.000 C 
ATOM     11  O   UNL     1      47.135   0.171   6.913  0.00  0.00    +0.000 OA
ATOM     12  H   UNL     1      49.019   1.371   5.881  0.00  0.00    +0.000 HD
ATOM     13  H   UNL     1      48.638   2.929   6.525  0.00  0.00    +0.000 HD
ENDBRANCH   1  10
BRANCH   5  14
ATOM     14  C   UNL     1      43.359   4.881  10.916  0.00  0.00    +0.000 C 
BRANCH  14  15
ATOM     15  C   UNL     1      44.498   4.940  11.893  0.00  0.00    +0.000 A 
ATOM     16  C   UNL     1      44.712   3.927  12.815  0.00  0.00    +0.000 A 
ATOM     17  N   UNL     1      45.664   3.970  13.766  0.00  0.00    +0.000 NA
ATOM     18  C   UNL     1      46.439   5.086  13.796  0.00  0.00    +0.000 A 
ATOM     19  C   UNL     1      46.339   6.180  12.931  0.00  0.00    +0.000 A 
ATOM     20  C   UNL     1      45.340   6.060  11.957  0.00  0.00    +0.000 A 
BRANCH  19  21
ATOM     21  N   UNL     1      47.125   7.306  13.034  0.00  0.00    +0.000 N 
ATOM     22  C   UNL     1      46.581   8.650  13.285  0.00  0.00    +0.000 C 
ATOM     23  C   UNL     1      47.097   9.618  12.211  0.00  0.00    +0.000 C 
ATOM     24  O   UNL     1      48.534   9.631  12.167  0.00  0.00    +0.000 OA
ATOM     25  C   UNL     1      49.036   8.319  11.864  0.00  0.00    +0.000 C 
ATOM     26  C   UNL     1      48.591   7.275  12.903  0.00  0.00    +0.000 C 
ENDBRANCH  19  21
ENDBRANCH  14  15
ENDBRANCH   5  14
TORSDOF 4
ENDMDL
MODEL 2
REMARK VINA RESULT:    -8.698      1.951      2.844
REMARK INTER + INTRA:         -11.337
REMARK INTER:                 -10.641
REMARK INTRA:                  -0.696
REMARK UNBOUND:                -0.604
REMARK  Name = 
REMARK  4 active torsions:
REMARK  status: ('A' for Active; 'I' for Inactive)
REMARK    1  A    between atoms: C_2  and  C_4
REMARK    2  A    between atoms: N_8  and  C_9
REMARK    3  A    between atoms: C_9  and  C_10
REMARK    4  A    between atoms: C_14  and  N_15
REMARK                            x       y       z     vdW  Elec       q    Type
REMARK                         _______ _______ _______ _____ _____    ______ ____
ROOT
ATOM      1  C   UNL     1      46.197   2.024   7.974  0.00  0.00    +0.000 A 
ATOM      2  C   UNL     1      45.436   1.728   9.098  0.00  0.00    +0.000 A 
ATOM      3  C   UNL     1      44.612   2.714   9.640  0.00  0.00    +0.000 A 
ATOM      4  C   UNL     1      44.578   3.983   9.067  0.00  0.00    +0.000 A 
ATOM      5  N   UNL     1      43.733   4.981   9.499  0.00  0.00    +0.000 N 
ATOM      6  N   UNL     1      45.324   4.283   7.989  0.00  0.00    +0.000 NA
ATOM      7  C   UNL     1      46.120   3.312   7.468  0.00  0.00    +0.000 A 
ATOM      8  H   UNL     1      43.974   5.833   8.999  0.00  0.00    +0.000 HD
ENDROOT
BRANCH   1  10
ATOM      9  N   UNL     1      46.835  -0.287   7.596  0.00  0.00    +0.000 N 
ATOM     10  C   UNL     1      47.075   1.032   7.322  0.00  0.00    +0.000 C 
ATOM     11  O   UNL     1      47.959   1.370   6.548  0.00  0.00    +0.000 OA
ATOM     12  H   UNL     1      47.380  -0.962   7.076  0.00  0.00    +0.000 HD
ATOM     13  H   UNL     1      45.976  -0.609   8.021  0.00  0.00    +0.000 HD
ENDBRANCH   1  10
BRANCH   5  14
ATOM     14  C   UNL     1      43.358   5.142  10.888  0.00  0.00    +0.000 C 
BRANCH  14  15
ATOM     15  C   UNL     1      44.314   6.007  11.658  0.00  0.00    +0.000 A 
ATOM     16  C   UNL     1      44.332   7.384  11.499  0.00  0.00    +0.000 A 
ATOM     17  N   UNL     1      45.224   8.195  12.100  0.00  0.00    +0.000 NA
ATOM     18  C   UNL     1      46.144   7.595  12.900  0.00  0.00    +0.000 A 
ATOM     19  C   UNL     1      46.243   6.224  13.154  0.00  0.00    +0.000 A 
ATOM     20  C   UNL     1      45.275   5.443  12.511  0.00  0.00    +0.000 A 
BRANCH  19  21
ATOM     21  N   UNL     1      47.225   5.665  13.942  0.00  0.00    +0.000 N 
ATOM     22  C   UNL     1      47.171   4.282  14.440  0.00  0.00    +0.000 C 
ATOM     23  C   UNL     1      47.358   4.281  15.965  0.00  0.00    +0.000 C 
ATOM     24  O   UNL     1      48.586   4.928  16.339  0.00  0.00    +0.000 OA
ATOM     25  C   UNL     1      48.588   6.293  15.891  0.00  0.00    +0.000 C 
ATOM     26  C   UNL     1      48.429   6.400  14.363  0.00  0.00    +0.000 C 
ENDBRANCH  19  21
ENDBRANCH  14  15
ENDBRANCH   5  14
TORSDOF 4
ENDMDL
MODEL 3
REMARK VINA RESULT:    -6.982      1.856      6.767
REMARK INTER + INTRA:          -9.219
REMARK INTER:                  -8.584
REMARK INTRA:                  -0.635
REMARK UNBOUND:                -0.604
REMARK  Name = 
REMARK  4 active torsions:
REMARK  status: ('A' for Active; 'I' for Inactive)
REMARK    1  A    between atoms: C_2  and  C_4
REMARK    2  A    between atoms: N_8  and  C_9
REMARK    3  A    between atoms: C_9  and  C_10
REMARK    4  A    between atoms: C_14  and  N_15
REMARK                            x       y       z     vdW  Elec       q    Type
REMARK                         _______ _______ _______ _____ _____    ______ ____
ROOT
ATOM      1  C   UNL     1      49.495   8.306  12.052  0.00  0.00    +0.000 A 
ATOM      2  C   UNL     1      48.250   8.883  11.832  0.00  0.00    +0.000 A 
ATOM      3  C   UNL     1      47.106   8.216  12.269  0.00  0.00    +0.000 A 
ATOM      4  C   UNL     1      47.219   6.978  12.894  0.00  0.00    +0.000 A 
ATOM      5  N   UNL     1      46.143   6.298  13.420  0.00  0.00    +0.000 N 
ATOM      6  N   UNL     1      48.419   6.404  13.096  0.00  0.00    +0.000 NA
ATOM      7  C   UNL     1      49.528   7.066  12.670  0.00  0.00    +0.000 A 
ATOM      8  H   UNL     1      46.466   5.382  13.720  0.00  0.00    +0.000 HD
ENDROOT
BRANCH   1  10
ATOM      9  N   UNL     1      50.668  10.219  11.129  0.00  0.00    +0.000 N 
ATOM     10  C   UNL     1      50.757   8.956  11.646  0.00  0.00    +0.000 C 
ATOM     11  O   UNL     1      51.838   8.403  11.792  0.00  0.00    +0.000 OA
ATOM     12  H   UNL     1      51.543  10.692  10.940  0.00  0.00    +0.000 HD
ATOM     13  H   UNL     1      49.841  10.792  11.225  0.00  0.00    +0.000 HD
ENDBRANCH   1  10
BRANCH   5  14
ATOM     14  C   UNL     1      44.823   6.344  12.826  0.00  0.00    +0.000 C 
BRANCH  14  15
ATOM     15  C   UNL     1      44.388   5.023  12.260  0.00  0.00    +0.000 A 
ATOM     16  C   UNL     1      43.724   4.086  13.038  0.00  0.00    +0.000 A 
ATOM     17  N   UNL     1      43.388   2.857  12.605  0.00  0.00    +0.000 NA
ATOM     18  C   UNL     1      43.734   2.549  11.327  0.00  0.00    +0.000 A 
ATOM     19  C   UNL     1      44.400   3.391  10.431  0.00  0.00    +0.000 A 
ATOM     20  C   UNL     1      44.704   4.659  10.942  0.00  0.00    +0.000 A 
BRANCH  19  21
ATOM     21  N   UNL     1      44.765   3.011   9.158  0.00  0.00    +0.000 N 
ATOM     22  C   UNL     1      44.969   1.609   8.762  0.00  0.00    +0.000 C 
ATOM     23  C   UNL     1      46.354   1.457   8.117  0.00  0.00    +0.000 C 
ATOM     24  O   UNL     1      46.509   2.348   7.000  0.00  0.00    +0.000 OA
ATOM     25  C   UNL     1      46.363   3.713   7.425  0.00  0.00    +0.000 C 
ATOM     26  C   UNL     1      44.988   3.974   8.068  0.00  0.00    +0.000 C 
ENDBRANCH  19  21
ENDBRANCH  14  15
ENDBRANCH   5  14
TORSDOF 4
ENDMDL
MODEL 4
REMARK VINA RESULT:    -6.957      3.635      8.118
REMARK INTER + INTRA:          -9.188
REMARK INTER:                  -8.787
REMARK INTRA:                  -0.401
REMARK UNBOUND:                -0.604
REMARK  Name = 
REMARK  4 active torsions:
REMARK  status: ('A' for Active; 'I' for Inactive)
REMARK    1  A    between atoms: C_2  and  C_4
REMARK    2  A    between atoms: N_8  and  C_9
REMARK    3  A    between atoms: C_9  and  C_10
REMARK    4  A    between atoms: C_14  and  N_15
REMARK                            x       y       z     vdW  Elec       q    Type
REMARK                         _______ _______ _______ _____ _____    ______ ____
ROOT
ATOM      1  C   UNL     1      49.413   4.422  17.798  0.00  0.00    +0.000 A 
ATOM      2  C   UNL     1      49.273   5.546  16.993  0.00  0.00    +0.000 A 
ATOM      3  C   UNL     1      48.274   5.564  16.019  0.00  0.00    +0.000 A 
ATOM      4  C   UNL     1      47.450   4.455  15.849  0.00  0.00    +0.000 A 
ATOM      5  N   UNL     1      46.396   4.429  14.963  0.00  0.00    +0.000 N 
ATOM      6  N   UNL     1      47.590   3.356  16.613  0.00  0.00    +0.000 NA
ATOM      7  C   UNL     1      48.564   3.353  17.561  0.00  0.00    +0.000 A 
ATOM      8  H   UNL     1      46.023   3.484  14.946  0.00  0.00    +0.000 HD
ENDROOT
BRANCH   1  10
ATOM      9  N   UNL     1      49.971   4.362  20.159  0.00  0.00    +0.000 N 
ATOM     10  C   UNL     1      50.425   4.331  18.869  0.00  0.00    +0.000 C 
ATOM     11  O   UNL     1      51.614   4.201  18.616  0.00  0.00    +0.000 OA
ATOM     12  H   UNL     1      50.660   4.206  20.884  0.00  0.00    +0.000 HD
ATOM     13  H   UNL     1      49.001   4.217  20.400  0.00  0.00    +0.000 HD
ENDBRANCH   1  10
BRANCH   5  14
ATOM     14  C   UNL     1      46.424   5.124  13.693  0.00  0.00    +0.000 C 
BRANCH  14  15
ATOM     15  C   UNL     1      45.286   4.745  12.789  0.00  0.00    +0.000 A 
ATOM     16  C   UNL     1      43.973   4.763  13.235  0.00  0.00    +0.000 A 
ATOM     17  N   UNL     1      42.927   4.352  12.494  0.00  0.00    +0.000 NA
ATOM     18  C   UNL     1      43.210   3.899  11.244  0.00  0.00    +0.000 A 
ATOM     19  C   UNL     1      44.480   3.827  10.665  0.00  0.00    +0.000 A 
ATOM     20  C   UNL     1      45.519   4.286  11.484  0.00  0.00    +0.000 A 
BRANCH  19  21
ATOM     21  N   UNL     1      44.715   3.318   9.407  0.00  0.00    +0.000 N 
ATOM     22  C   UNL     1      44.694   1.879   9.102  0.00  0.00    +0.000 C 
ATOM     23  C   UNL     1      46.005   1.486   8.404  0.00  0.00    +0.000 C 
ATOM     24  O   UNL     1      46.221   2.272   7.220  0.00  0.00    +0.000 OA
ATOM     25  C   UNL     1      46.294   3.668   7.554  0.00  0.00    +0.000 C 
ATOM     26  C   UNL     1      45.010   4.167   8.241  0.00  0.00    +0.000 C 
ENDBRANCH  19  21
ENDBRANCH  14  15
ENDBRANCH   5  14
TORSDOF 4
ENDMDL
MODEL 5
REMARK VINA RESULT:    -6.874      2.384      7.151
REMARK INTER + INTRA:          -9.086
REMARK INTER:                  -8.752
REMARK INTRA:                  -0.334
REMARK UNBOUND:                -0.604
REMARK  Name = 
REMARK  4 active torsions:
REMARK  status: ('A' for Active; 'I' for Inactive)
REMARK    1  A    between atoms: C_2  and  C_4
REMARK    2  A    between atoms: N_8  and  C_9
REMARK    3  A    between atoms: C_9  and  C_10
REMARK    4  A    between atoms: C_14  and  N_15
REMARK                            x       y       z     vdW  Elec       q    Type
REMARK                         _______ _______ _______ _____ _____    ______ ____
ROOT
ATOM      1  C   UNL     1      47.855   5.483  15.183  0.00  0.00    +0.000 A 
ATOM      2  C   UNL     1      46.787   4.750  14.678  0.00  0.00    +0.000 A 
ATOM      3  C   UNL     1      46.258   5.090  13.433  0.00  0.00    +0.000 A 
ATOM      4  C   UNL     1      46.786   6.167  12.724  0.00  0.00    +0.000 A 
ATOM      5  N   UNL     1      46.368   6.512  11.458  0.00  0.00    +0.000 N 
ATOM      6  N   UNL     1      47.808   6.892  13.213  0.00  0.00    +0.000 NA
ATOM      7  C   UNL     1      48.318   6.547  14.426  0.00  0.00    +0.000 A 
ATOM      8  H   UNL     1      46.821   7.386  11.206  0.00  0.00    +0.000 HD
ENDROOT
BRANCH   1  10
ATOM      9  N   UNL     1      48.333   6.090  17.482  0.00  0.00    +0.000 N 
ATOM     10  C   UNL     1      48.490   5.174  16.479  0.00  0.00    +0.000 C 
ATOM     11  O   UNL     1      49.105   4.133  16.659  0.00  0.00    +0.000 OA
ATOM     12  H   UNL     1      48.692   5.829  18.392  0.00  0.00    +0.000 HD
ATOM     13  H   UNL     1      47.638   6.823  17.450  0.00  0.00    +0.000 HD
ENDBRANCH   1  10
BRANCH   5  14
ATOM     14  C   UNL     1      44.997   6.357  11.018  0.00  0.00    +0.000 C 
BRANCH  14  15
ATOM     15  C   UNL     1      44.683   4.963  10.555  0.00  0.00    +0.000 A 
ATOM     16  C   UNL     1      43.807   4.149  11.256  0.00  0.00    +0.000 A 
ATOM     17  N   UNL     1      43.557   2.866  10.934  0.00  0.00    +0.000 NA
ATOM     18  C   UNL     1      44.219   2.373   9.854  0.00  0.00    +0.000 A 
ATOM     19  C   UNL     1      45.125   3.076   9.054  0.00  0.00    +0.000 A 
ATOM     20  C   UNL     1      45.325   4.408   9.437  0.00  0.00    +0.000 A 
BRANCH  19  21
ATOM     21  N   UNL     1      45.801   2.512   7.995  0.00  0.00    +0.000 N 
ATOM     22  C   UNL     1      45.907   1.060   7.786  0.00  0.00    +0.000 C 
ATOM     23  C   UNL     1      47.384   0.673   7.628  0.00  0.00    +0.000 C 
ATOM     24  O   UNL     1      48.003   1.405   6.557  0.00  0.00    +0.000 OA
ATOM     25  C   UNL     1      47.937   2.818   6.815  0.00  0.00    +0.000 C 
ATOM     26  C   UNL     1      46.487   3.311   6.966  0.00  0.00    +0.000 C 
ENDBRANCH  19  21
ENDBRANCH  14  15
ENDBRANCH   5  14
TORSDOF 4
ENDMDL
MODEL 6
REMARK VINA RESULT:    -6.667      1.858      6.874
REMARK INTER + INTRA:          -8.830
REMARK INTER:                  -8.461
REMARK INTRA:                  -0.369
REMARK UNBOUND:                -0.604
REMARK  Name = 
REMARK  4 active torsions:
REMARK  status: ('A' for Active; 'I' for Inactive)
REMARK    1  A    between atoms: C_2  and  C_4
REMARK    2  A    between atoms: N_8  and  C_9
REMARK    3  A    between atoms: C_9  and  C_10
REMARK    4  A    between atoms: C_14  and  N_15
REMARK                            x       y       z     vdW  Elec       q    Type
REMARK                         _______ _______ _______ _____ _____    ______ ____
ROOT
ATOM      1  C   UNL     1      46.942   8.849  12.781  0.00  0.00    +0.000 A 
ATOM      2  C   UNL     1      46.605   7.524  13.026  0.00  0.00    +0.000 A 
ATOM      3  C   UNL     1      45.427   7.011  12.484  0.00  0.00    +0.000 A 
ATOM      4  C   UNL     1      44.594   7.832  11.728  0.00  0.00    +0.000 A 
ATOM      5  N   UNL     1      43.457   7.377  11.098  0.00  0.00    +0.000 N 
ATOM      6  N   UNL     1      44.905   9.121  11.500  0.00  0.00    +0.000 NA
ATOM      7  C   UNL     1      46.059   9.608  12.030  0.00  0.00    +0.000 A 
ATOM      8  H   UNL     1      42.972   8.181  10.709  0.00  0.00    +0.000 HD
ENDROOT
BRANCH   1  10
ATOM      9  N   UNL     1      48.140   9.989  14.556  0.00  0.00    +0.000 N 
ATOM     10  C   UNL     1      48.183   9.463  13.294  0.00  0.00    +0.000 C 
ATOM     11  O   UNL     1      49.212   9.476  12.634  0.00  0.00    +0.000 OA
ATOM     12  H   UNL     1      49.017  10.325  14.935  0.00  0.00    +0.000 HD
ATOM     13  H   UNL     1      47.401   9.778  15.212  0.00  0.00    +0.000 HD
ENDBRANCH   1  10
BRANCH   5  14
ATOM     14  C   UNL     1      42.619   6.336  11.654  0.00  0.00    +0.000 C 
BRANCH  14  15
ATOM     15  C   UNL     1      43.204   4.962  11.495  0.00  0.00    +0.000 A 
ATOM     16  C   UNL     1      43.393   4.127  12.585  0.00  0.00    +0.000 A 
ATOM     17  N   UNL     1      43.990   2.922  12.510  0.00  0.00    +0.000 NA
ATOM     18  C   UNL     1      44.421   2.536  11.280  0.00  0.00    +0.000 A 
ATOM     19  C   UNL     1      44.296   3.271  10.098  0.00  0.00    +0.000 A 
ATOM     20  C   UNL     1      43.651   4.505  10.246  0.00  0.00    +0.000 A 
BRANCH  19  21
ATOM     21  N   UNL     1      44.791   2.848   8.884  0.00  0.00    +0.000 N 
ATOM     22  C   UNL     1      45.064   1.437   8.571  0.00  0.00    +0.000 C 
ATOM     23  C   UNL     1      46.508   1.296   8.068  0.00  0.00    +0.000 C 
ATOM     24  O   UNL     1      46.749   2.143   6.932  0.00  0.00    +0.000 OA
ATOM     25  C   UNL     1      46.530   3.520   7.280  0.00  0.00    +0.000 C 
ATOM     26  C   UNL     1      45.095   3.770   7.778  0.00  0.00    +0.000 C 
ENDBRANCH  19  21
ENDBRANCH  14  15
ENDBRANCH   5  14
TORSDOF 4
ENDMDL
MODEL 7
REMARK VINA RESULT:    -6.644      5.153      8.335
REMARK INTER + INTRA:          -8.802
REMARK INTER:                  -8.212
REMARK INTRA:                  -0.591
REMARK UNBOUND:                -0.604
REMARK  Name = 
REMARK  4 active torsions:
REMARK  status: ('A' for Active; 'I' for Inactive)
REMARK    1  A    between atoms: C_2  and  C_4
REMARK    2  A    between atoms: N_8  and  C_9
REMARK    3  A    between atoms: C_9  and  C_10
REMARK    4  A    between atoms: C_14  and  N_15
REMARK                            x       y       z     vdW  Elec       q    Type
REMARK                         _______ _______ _______ _____ _____    ______ ____
ROOT
ATOM      1  C   UNL     1      51.965   2.481  17.759  0.00  0.00    +0.000 A 
ATOM      2  C   UNL     1      51.347   3.630  18.238  0.00  0.00    +0.000 A 
ATOM      3  C   UNL     1      49.995   3.837  17.967  0.00  0.00    +0.000 A 
ATOM      4  C   UNL     1      49.289   2.909  17.206  0.00  0.00    +0.000 A 
ATOM      5  N   UNL     1      47.936   3.006  16.964  0.00  0.00    +0.000 N 
ATOM      6  N   UNL     1      49.883   1.802  16.725  0.00  0.00    +0.000 NA
ATOM      7  C   UNL     1      51.201   1.610  16.999  0.00  0.00    +0.000 A 
ATOM      8  H   UNL     1      47.683   2.278  16.302  0.00  0.00    +0.000 HD
ENDROOT
BRANCH   1  10
ATOM      9  N   UNL     1      53.650   1.085  18.809  0.00  0.00    +0.000 N 
ATOM     10  C   UNL     1      53.385   2.172  18.022  0.00  0.00    +0.000 C 
ATOM     11  O   UNL     1      54.286   2.839  17.534  0.00  0.00    +0.000 OA
ATOM     12  H   UNL     1      54.623   0.826  18.908  0.00  0.00    +0.000 HD
ATOM     13  H   UNL     1      52.957   0.379  19.017  0.00  0.00    +0.000 HD
ENDBRANCH   1  10
BRANCH   5  14
ATOM     14  C   UNL     1      47.260   4.277  16.803  0.00  0.00    +0.000 C 
BRANCH  14  15
ATOM     15  C   UNL     1      47.338   4.810  15.401  0.00  0.00    +0.000 A 
ATOM     16  C   UNL     1      48.252   5.792  15.051  0.00  0.00    +0.000 A 
ATOM     17  N   UNL     1      48.306   6.364  13.833  0.00  0.00    +0.000 NA
ATOM     18  C   UNL     1      47.399   5.930  12.920  0.00  0.00    +0.000 A 
ATOM     19  C   UNL     1      46.425   4.948  13.131  0.00  0.00    +0.000 A 
ATOM     20  C   UNL     1      46.437   4.385  14.413  0.00  0.00    +0.000 A 
BRANCH  19  21
ATOM     21  N   UNL     1      45.501   4.577  12.180  0.00  0.00    +0.000 N 
ATOM     22  C   UNL     1      44.906   5.521  11.221  0.00  0.00    +0.000 C 
ATOM     23  C   UNL     1      43.375   5.424  11.291  0.00  0.00    +0.000 C 
ATOM     24  O   UNL     1      42.927   4.078  11.053  0.00  0.00    +0.000 OA
ATOM     25  C   UNL     1      43.477   3.187  12.037  0.00  0.00    +0.000 C 
ATOM     26  C   UNL     1      45.016   3.196  12.030  0.00  0.00    +0.000 C 
ENDBRANCH  19  21
ENDBRANCH  14  15
ENDBRANCH   5  14
TORSDOF 4
ENDMDL
MODEL 8
REMARK VINA RESULT:    -6.351      1.942      2.984
REMARK INTER + INTRA:          -8.441
REMARK INTER:                  -7.809
REMARK INTRA:                  -0.632
REMARK UNBOUND:                -0.604
REMARK  Name = 
REMARK  4 active torsions:
REMARK  status: ('A' for Active; 'I' for Inactive)
REMARK    1  A    between atoms: C_2  and  C_4
REMARK    2  A    between atoms: N_8  and  C_9
REMARK    3  A    between atoms: C_9  and  C_10
REMARK    4  A    between atoms: C_14  and  N_15
REMARK                            x       y       z     vdW  Elec       q    Type
REMARK                         _______ _______ _______ _____ _____    ______ ____
ROOT
ATOM      1  C   UNL     1      45.769   2.601   8.515  0.00  0.00    +0.000 A 
ATOM      2  C   UNL     1      45.912   3.976   8.375  0.00  0.00    +0.000 A 
ATOM      3  C   UNL     1      45.270   4.823   9.278  0.00  0.00    +0.000 A 
ATOM      4  C   UNL     1      44.479   4.286  10.290  0.00  0.00    +0.000 A 
ATOM      5  N   UNL     1      43.878   5.054  11.263  0.00  0.00    +0.000 N 
ATOM      6  N   UNL     1      44.321   2.957  10.424  0.00  0.00    +0.000 NA
ATOM      7  C   UNL     1      44.955   2.142   9.539  0.00  0.00    +0.000 A 
ATOM      8  H   UNL     1      43.274   4.448  11.812  0.00  0.00    +0.000 HD
ENDROOT
BRANCH   1  10
ATOM      9  N   UNL     1      46.924   2.118   6.437  0.00  0.00    +0.000 N 
ATOM     10  C   UNL     1      46.435   1.635   7.620  0.00  0.00    +0.000 C 
ATOM     11  O   UNL     1      46.571   0.461   7.932  0.00  0.00    +0.000 OA
ATOM     12  H   UNL     1      47.458   1.471   5.871  0.00  0.00    +0.000 HD
ATOM     13  H   UNL     1      47.051   3.105   6.260  0.00  0.00    +0.000 HD
ENDBRANCH   1  10
BRANCH   5  14
ATOM     14  C   UNL     1      43.378   6.389  11.008  0.00  0.00    +0.000 C 
BRANCH  14  15
ATOM     15  C   UNL     1      44.296   7.466  11.510  0.00  0.00    +0.000 A 
ATOM     16  C   UNL     1      44.104   8.796  11.170  0.00  0.00    +0.000 A 
ATOM     17  N   UNL     1      44.944   9.788  11.522  0.00  0.00    +0.000 NA
ATOM     18  C   UNL     1      46.032   9.429  12.252  0.00  0.00    +0.000 A 
ATOM     19  C   UNL     1      46.352   8.133  12.667  0.00  0.00    +0.000 A 
ATOM     20  C   UNL     1      45.427   7.154  12.281  0.00  0.00    +0.000 A 
BRANCH  19  21
ATOM     21  N   UNL     1      47.494   7.819  13.370  0.00  0.00    +0.000 N 
ATOM     22  C   UNL     1      47.998   6.445  13.519  0.00  0.00    +0.000 C 
ATOM     23  C   UNL     1      48.209   6.137  15.009  0.00  0.00    +0.000 C 
ATOM     24  O   UNL     1      49.095   7.092  15.617  0.00  0.00    +0.000 OA
ATOM     25  C   UNL     1      48.552   8.418  15.507  0.00  0.00    +0.000 C 
ATOM     26  C   UNL     1      48.325   8.830  14.042  0.00  0.00    +0.000 C 
ENDBRANCH  19  21
ENDBRANCH  14  15
ENDBRANCH   5  14
TORSDOF 4
ENDMDL
MODEL 9
REMARK VINA RESULT:    -6.185      4.083      6.310
REMARK INTER + INTRA:          -8.235
REMARK INTER:                  -7.593
REMARK INTRA:                  -0.642
REMARK UNBOUND:                -0.604
REMARK  Name = 
REMARK  4 active torsions:
REMARK  status: ('A' for Active; 'I' for Inactive)
REMARK    1  A    between atoms: C_2  and  C_4
REMARK    2  A    between atoms: N_8  and  C_9
REMARK    3  A    between atoms: C_9  and  C_10
REMARK    4  A    between atoms: C_14  and  N_15
REMARK                            x       y       z     vdW  Elec       q    Type
REMARK                         _______ _______ _______ _____ _____    ______ ____
ROOT
ATOM      1  C   UNL     1      44.643   5.299  11.383  0.00  0.00    +0.000 A 
ATOM      2  C   UNL     1      45.759   4.816  12.054  0.00  0.00    +0.000 A 
ATOM      3  C   UNL     1      46.519   5.692  12.829  0.00  0.00    +0.000 A 
ATOM      4  C   UNL     1      46.168   7.038  12.902  0.00  0.00    +0.000 A 
ATOM      5  N   UNL     1      46.823   7.944  13.706  0.00  0.00    +0.000 N 
ATOM      6  N   UNL     1      45.098   7.518  12.242  0.00  0.00    +0.000 NA
ATOM      7  C   UNL     1      44.363   6.652  11.494  0.00  0.00    +0.000 A 
ATOM      8  H   UNL     1      46.453   8.869  13.501  0.00  0.00    +0.000 HD
ENDROOT
BRANCH   1  10
ATOM      9  N   UNL     1      43.880   4.550   9.205  0.00  0.00    +0.000 N 
ATOM     10  C   UNL     1      43.770   4.435  10.564  0.00  0.00    +0.000 C 
ATOM     11  O   UNL     1      43.004   3.631  11.074  0.00  0.00    +0.000 OA
ATOM     12  H   UNL     1      43.347   3.891   8.652  0.00  0.00    +0.000 HD
ATOM     13  H   UNL     1      44.660   5.009   8.757  0.00  0.00    +0.000 HD
ENDBRANCH   1  10
BRANCH   5  14
ATOM     14  C   UNL     1      48.244   7.871  13.969  0.00  0.00    +0.000 C 
BRANCH  14  15
ATOM     15  C   UNL     1      48.561   7.468  15.381  0.00  0.00    +0.000 A 
ATOM     16  C   UNL     1      48.864   8.411  16.351  0.00  0.00    +0.000 A 
ATOM     17  N   UNL     1      49.237   8.100  17.607  0.00  0.00    +0.000 NA
ATOM     18  C   UNL     1      49.311   6.776  17.905  0.00  0.00    +0.000 A 
ATOM     19  C   UNL     1      49.034   5.720  17.032  0.00  0.00    +0.000 A 
ATOM     20  C   UNL     1      48.635   6.116  15.750  0.00  0.00    +0.000 A 
BRANCH  19  21
ATOM     21  N   UNL     1      49.167   4.393  17.377  0.00  0.00    +0.000 N 
ATOM     22  C   UNL     1      50.325   3.864  18.115  0.00  0.00    +0.000 C 
ATOM     23  C   UNL     1      50.925   2.680  17.342  0.00  0.00    +0.000 C 
ATOM     24  O   UNL     1      49.941   1.660  17.104  0.00  0.00    +0.000 OA
ATOM     25  C   UNL     1      48.850   2.189  16.333  0.00  0.00    +0.000 C 
ATOM     26  C   UNL     1      48.163   3.372  17.039  0.00  0.00    +0.000 C 
ENDBRANCH  19  21
ENDBRANCH  14  15
ENDBRANCH   5  14
TORSDOF 4
ENDMDL
