MODEL 1
REMARK VINA RESULT:    -8.571      0.000      0.000
REMARK INTER + INTRA:         -11.298
REMARK INTER:                 -10.576
REMARK INTRA:                  -0.722
REMARK UNBOUND:                -0.722
REMARK  Name = 
REMARK  4 active torsions:
REMARK  status: ('A' for Active; 'I' for Inactive)
REMARK    1  A    between atoms: C_2  and  C_4
REMARK    2  A    between atoms: N_8  and  C_9
REMARK    3  A    between atoms: C_9  and  C_10
REMARK    4  A    between atoms: C_13  and  C_14
REMARK                            x       y       z     vdW  Elec       q    Type
REMARK                         _______ _______ _______ _____ _____    ______ ____
ROOT
ATOM      1  C   UNL     1      46.485   2.749   7.509  0.00  0.00    +0.000 A 
ATOM      2  C   UNL     1      46.140   4.084   7.704  0.00  0.00    +0.000 A 
ATOM      3  C   UNL     1      45.300   4.421   8.767  0.00  0.00    +0.000 A 
ATOM      4  C   UNL     1      44.823   3.430   9.612  0.00  0.00    +0.000 A 
ATOM      5  N   UNL     1      43.920   3.670  10.651  0.00  0.00    +0.000 N 
ATOM      6  N   UNL     1      45.141   2.130   9.422  0.00  0.00    +0.000 NA
ATOM      7  C   UNL     1      45.953   1.814   8.381  0.00  0.00    +0.000 A 
ATOM      8  H   UNL     1      43.801   2.783  11.136  0.00  0.00    +0.000 HD
ENDROOT
BRANCH   1  10
ATOM      9  N   UNL     1      47.241   2.964   5.214  0.00  0.00    +0.000 N 
ATOM     10  C   UNL     1      47.358   2.302   6.405  0.00  0.00    +0.000 C 
ATOM     11  O   UNL     1      48.173   1.402   6.556  0.00  0.00    +0.000 OA
ATOM     12  H   UNL     1      47.905   2.714   4.491  0.00  0.00    +0.000 HD
ATOM     13  H   UNL     1      46.774   3.856   5.130  0.00  0.00    +0.000 HD
ENDBRANCH   1  10
BRANCH   5  14
ATOM     14  C   UNL     1      43.857   4.887  11.470  0.00  0.00    +0.000 C 
ATOM     15  C   UNL     1      42.722   4.893  12.491  0.00  0.00    +0.000 C 
ATOM     16  C   UNL     1      42.731   5.909  11.400  0.00  0.00    +0.000 C 
BRANCH  14  17
ATOM     17  C   UNL     1      45.218   5.433  11.900  0.00  0.00    +0.000 A 
ATOM     18  C   UNL     1      45.698   6.657  11.402  0.00  0.00    +0.000 A 
ATOM     19  C   UNL     1      46.888   7.224  11.873  0.00  0.00    +0.000 A 
ATOM     20  C   UNL     1      47.642   6.574  12.856  0.00  0.00    +0.000 A 
ATOM     21  C   UNL     1      47.203   5.329  13.326  0.00  0.00    +0.000 A 
ATOM     22  C   UNL     1      46.016   4.767  12.846  0.00  0.00    +0.000 A 
BRANCH  20  23
ATOM     23  C   UNL     1      48.893   7.195  13.423  0.00  0.00    +0.000 C 
ATOM     24  F   UNL     1      49.302   6.627  14.592  0.00  0.00    +0.000 F 
ATOM     25  F   UNL     1      49.954   7.094  12.574  0.00  0.00    +0.000 F 
ATOM     26  F   UNL     1      48.748   8.523  13.684  0.00  0.00    +0.000 F 
ENDBRANCH  20  23
ENDBRANCH  14  17
ENDBRANCH   5  14
TORSDOF 4
ENDMDL
MODEL 2
REMARK VINA RESULT:    -8.256      4.458      6.744
REMARK INTER + INTRA:         -10.908
REMARK INTER:                 -10.172
REMARK INTRA:                  -0.736
REMARK UNBOUND:                -0.722
REMARK  Name = 
REMARK  4 active torsions:
REMARK  status: ('A' for Active; 'I' for Inactive)
REMARK    1  A    between atoms: C_2  and  C_4
REMARK    2  A    between atoms: N_8  and  C_9
REMARK    3  A    between atoms: C_9  and  C_10
REMARK    4  A    between atoms: C_13  and  C_14
REMARK                            x       y       z     vdW  Elec       q    Type
REMARK                         _______ _______ _______ _____ _____    ______ ____
ROOT
ATOM      1  C   UNL     1      48.407   6.701  13.674  0.00  0.00    +0.000 A 
ATOM      2  C   UNL     1      47.572   5.638  14.008  0.00  0.00    +0.000 A 
ATOM      3  C   UNL     1      46.431   5.401  13.238  0.00  0.00    +0.000 A 
ATOM      4  C   UNL     1      46.145   6.220  12.156  0.00  0.00    +0.000 A 
ATOM      5  N   UNL     1      44.989   6.098  11.381  0.00  0.00    +0.000 N 
ATOM      6  N   UNL     1      46.942   7.262  11.833  0.00  0.00    +0.000 NA
ATOM      7  C   UNL     1      48.044   7.487  12.593  0.00  0.00    +0.000 A 
ATOM      8  H   UNL     1      45.077   6.779  10.629  0.00  0.00    +0.000 HD
ENDROOT
BRANCH   1  10
ATOM      9  N   UNL     1      50.562   7.807  13.811  0.00  0.00    +0.000 N 
ATOM     10  C   UNL     1      49.626   7.031  14.439  0.00  0.00    +0.000 C 
ATOM     11  O   UNL     1      49.779   6.658  15.593  0.00  0.00    +0.000 OA
ATOM     12  H   UNL     1      51.351   8.105  14.372  0.00  0.00    +0.000 HD
ATOM     13  H   UNL     1      50.360   8.333  12.973  0.00  0.00    +0.000 HD
ENDBRANCH   1  10
BRANCH   5  14
ATOM     14  C   UNL     1      44.295   4.844  11.062  0.00  0.00    +0.000 C 
ATOM     15  C   UNL     1      42.775   4.930  11.163  0.00  0.00    +0.000 C 
ATOM     16  C   UNL     1      43.519   4.015  12.075  0.00  0.00    +0.000 C 
BRANCH  14  17
ATOM     17  C   UNL     1      44.899   4.065   9.895  0.00  0.00    +0.000 A 
ATOM     18  C   UNL     1      45.571   4.726   8.852  0.00  0.00    +0.000 A 
ATOM     19  C   UNL     1      46.226   4.019   7.838  0.00  0.00    +0.000 A 
ATOM     20  C   UNL     1      46.220   2.620   7.831  0.00  0.00    +0.000 A 
ATOM     21  C   UNL     1      45.512   1.946   8.835  0.00  0.00    +0.000 A 
ATOM     22  C   UNL     1      44.855   2.661   9.841  0.00  0.00    +0.000 A 
BRANCH  20  23
ATOM     23  C   UNL     1      46.971   1.837   6.784  0.00  0.00    +0.000 C 
ATOM     24  F   UNL     1      46.750   0.494   6.844  0.00  0.00    +0.000 F 
ATOM     25  F   UNL     1      46.635   2.210   5.517  0.00  0.00    +0.000 F 
ATOM     26  F   UNL     1      48.320   1.998   6.875  0.00  0.00    +0.000 F 
ENDBRANCH  20  23
ENDBRANCH  14  17
ENDBRANCH   5  14
TORSDOF 4
ENDMDL
MODEL 3
REMARK VINA RESULT:    -7.619      4.411      6.873
REMARK INTER + INTRA:         -10.122
REMARK INTER:                  -9.719
REMARK INTRA:                  -0.404
REMARK UNBOUND:                -0.722
REMARK  Name = 
REMARK  4 active torsions:
REMARK  status: ('A' for Active; 'I' for Inactive)
REMARK    1  A    between atoms: C_2  and  C_4
REMARK    2  A    between atoms: N_8  and  C_9
REMARK    3  A    between atoms: C_9  and  C_10
REMARK    4  A    between atoms: C_13  and  C_14
REMARK                            x       y       z     vdW  Elec       q    Type
REMARK                         _______ _______ _______ _____ _____    ______ ____
ROOT
ATOM      1  C   UNL     1      46.632   8.074  12.973  0.00  0.00    +0.000 A 
ATOM      2  C   UNL     1      46.711   6.760  13.428  0.00  0.00    +0.000 A 
ATOM      3  C   UNL     1      45.867   5.796  12.870  0.00  0.00    +0.000 A 
ATOM      4  C   UNL     1      44.969   6.155  11.877  0.00  0.00    +0.000 A 
ATOM      5  N   UNL     1      44.040   5.272  11.320  0.00  0.00    +0.000 N 
ATOM      6  N   UNL     1      44.876   7.431  11.440  0.00  0.00    +0.000 NA
ATOM      7  C   UNL     1      45.696   8.360  11.995  0.00  0.00    +0.000 A 
ATOM      8  H   UNL     1      43.565   5.787  10.581  0.00  0.00    +0.000 HD
ENDROOT
BRANCH   1  10
ATOM      9  N   UNL     1      47.621   9.213  14.873  0.00  0.00    +0.000 N 
ATOM     10  C   UNL     1      47.477   9.158  13.514  0.00  0.00    +0.000 C 
ATOM     11  O   UNL     1      48.049   9.951  12.780  0.00  0.00    +0.000 OA
ATOM     12  H   UNL     1      48.274   9.901  15.230  0.00  0.00    +0.000 HD
ATOM     13  H   UNL     1      47.379   8.442  15.479  0.00  0.00    +0.000 HD
ENDBRANCH   1  10
BRANCH   5  14
ATOM     14  C   UNL     1      44.244   3.835  11.102  0.00  0.00    +0.000 C 
ATOM     15  C   UNL     1      43.086   2.962  11.577  0.00  0.00    +0.000 C 
ATOM     16  C   UNL     1      44.423   2.817  12.219  0.00  0.00    +0.000 C 
BRANCH  14  17
ATOM     17  C   UNL     1      44.916   3.484   9.776  0.00  0.00    +0.000 A 
ATOM     18  C   UNL     1      45.327   4.489   8.883  0.00  0.00    +0.000 A 
ATOM     19  C   UNL     1      46.045   4.188   7.720  0.00  0.00    +0.000 A 
ATOM     20  C   UNL     1      46.367   2.863   7.409  0.00  0.00    +0.000 A 
ATOM     21  C   UNL     1      45.922   1.845   8.262  0.00  0.00    +0.000 A 
ATOM     22  C   UNL     1      45.200   2.154   9.419  0.00  0.00    +0.000 A 
BRANCH  20  23
ATOM     23  C   UNL     1      47.194   2.521   6.195  0.00  0.00    +0.000 C 
ATOM     24  F   UNL     1      48.537   2.595   6.412  0.00  0.00    +0.000 F 
ATOM     25  F   UNL     1      46.962   1.254   5.750  0.00  0.00    +0.000 F 
ATOM     26  F   UNL     1      46.939   3.340   5.139  0.00  0.00    +0.000 F 
ENDBRANCH  20  23
ENDBRANCH  14  17
ENDBRANCH   5  14
TORSDOF 4
ENDMDL
MODEL 4
REMARK VINA RESULT:    -5.817      5.741      8.474
REMARK INTER + INTRA:          -7.900
REMARK INTER:                  -7.155
REMARK INTRA:                  -0.745
REMARK UNBOUND:                -0.722
REMARK  Name = 
REMARK  4 active torsions:
REMARK  status: ('A' for Active; 'I' for Inactive)
REMARK    1  A    between atoms: C_2  and  C_4
REMARK    2  A    between atoms: N_8  and  C_9
REMARK    3  A    between atoms: C_9  and  C_10
REMARK    4  A    between atoms: C_13  and  C_14
REMARK                            x       y       z     vdW  Elec       q    Type
REMARK                         _______ _______ _______ _____ _____    ______ ____
ROOT
ATOM      1  C   UNL     1      48.863   7.502  17.811  0.00  0.00    +0.000 A 
ATOM      2  C   UNL     1      48.491   8.526  16.945  0.00  0.00    +0.000 A 
ATOM      3  C   UNL     1      48.586   8.320  15.567  0.00  0.00    +0.000 A 
ATOM      4  C   UNL     1      49.046   7.104  15.080  0.00  0.00    +0.000 A 
ATOM      5  N   UNL     1      49.243   6.842  13.722  0.00  0.00    +0.000 N 
ATOM      6  N   UNL     1      49.422   6.110  15.914  0.00  0.00    +0.000 NA
ATOM      7  C   UNL     1      49.332   6.326  17.251  0.00  0.00    +0.000 A 
ATOM      8  H   UNL     1      49.518   5.864  13.658  0.00  0.00    +0.000 HD
ENDROOT
BRANCH   1  10
ATOM      9  N   UNL     1      47.589   7.443  19.875  0.00  0.00    +0.000 N 
ATOM     10  C   UNL     1      48.805   7.637  19.280  0.00  0.00    +0.000 C 
ATOM     11  O   UNL     1      49.805   7.880  19.941  0.00  0.00    +0.000 OA
ATOM     12  H   UNL     1      47.575   7.447  20.887  0.00  0.00    +0.000 HD
ATOM     13  H   UNL     1      46.815   7.001  19.400  0.00  0.00    +0.000 HD
ENDBRANCH   1  10
BRANCH   5  14
ATOM     14  C   UNL     1      48.437   7.378  12.618  0.00  0.00    +0.000 C 
ATOM     15  C   UNL     1      49.240   7.696  11.359  0.00  0.00    +0.000 C 
ATOM     16  C   UNL     1      48.552   8.800  12.087  0.00  0.00    +0.000 C 
BRANCH  14  17
ATOM     17  C   UNL     1      47.068   6.721  12.454  0.00  0.00    +0.000 A 
ATOM     18  C   UNL     1      46.834   5.410  12.904  0.00  0.00    +0.000 A 
ATOM     19  C   UNL     1      45.558   4.837  12.866  0.00  0.00    +0.000 A 
ATOM     20  C   UNL     1      44.472   5.561  12.363  0.00  0.00    +0.000 A 
ATOM     21  C   UNL     1      44.697   6.851  11.863  0.00  0.00    +0.000 A 
ATOM     22  C   UNL     1      45.977   7.413  11.901  0.00  0.00    +0.000 A 
BRANCH  20  23
ATOM     23  C   UNL     1      43.077   4.988  12.369  0.00  0.00    +0.000 C 
ATOM     24  F   UNL     1      42.139   5.831  11.852  0.00  0.00    +0.000 F 
ATOM     25  F   UNL     1      42.984   3.841  11.639  0.00  0.00    +0.000 F 
ATOM     26  F   UNL     1      42.645   4.671  13.620  0.00  0.00    +0.000 F 
ENDBRANCH  20  23
ENDBRANCH  14  17
ENDBRANCH   5  14
TORSDOF 4
ENDMDL
MODEL 5
REMARK VINA RESULT:    -5.657      1.840      2.483
REMARK INTER + INTRA:          -7.702
REMARK INTER:                  -7.671
REMARK INTRA:                  -0.031
REMARK UNBOUND:                -0.722
REMARK  Name = 
REMARK  4 active torsions:
REMARK  status: ('A' for Active; 'I' for Inactive)
REMARK    1  A    between atoms: C_2  and  C_4
REMARK    2  A    between atoms: N_8  and  C_9
REMARK    3  A    between atoms: C_9  and  C_10
REMARK    4  A    between atoms: C_13  and  C_14
REMARK                            x       y       z     vdW  Elec       q    Type
REMARK                         _______ _______ _______ _____ _____    ______ ____
ROOT
ATOM      1  C   UNL     1      46.313   3.660   7.347  0.00  0.00    +0.000 A 
ATOM      2  C   UNL     1      46.759   4.572   8.301  0.00  0.00    +0.000 A 
ATOM      3  C   UNL     1      45.887   4.979   9.312  0.00  0.00    +0.000 A 
ATOM      4  C   UNL     1      44.596   4.474   9.357  0.00  0.00    +0.000 A 
ATOM      5  N   UNL     1      43.638   4.884  10.288  0.00  0.00    +0.000 N 
ATOM      6  N   UNL     1      44.150   3.600   8.427  0.00  0.00    +0.000 NA
ATOM      7  C   UNL     1      45.005   3.217   7.445  0.00  0.00    +0.000 A 
ATOM      8  H   UNL     1      42.817   4.305  10.125  0.00  0.00    +0.000 HD
ENDROOT
BRANCH   1  10
ATOM      9  N   UNL     1      48.417   2.745   6.560  0.00  0.00    +0.000 N 
ATOM     10  C   UNL     1      47.163   3.185   6.237  0.00  0.00    +0.000 C 
ATOM     11  O   UNL     1      46.755   3.153   5.085  0.00  0.00    +0.000 OA
ATOM     12  H   UNL     1      48.960   2.336   5.809  0.00  0.00    +0.000 HD
ATOM     13  H   UNL     1      48.690   2.522   7.507  0.00  0.00    +0.000 HD
ENDBRANCH   1  10
BRANCH   5  14
ATOM     14  C   UNL     1      43.904   5.283  11.675  0.00  0.00    +0.000 C 
ATOM     15  C   UNL     1      44.150   4.113  12.623  0.00  0.00    +0.000 C 
ATOM     16  C   UNL     1      42.971   4.997  12.842  0.00  0.00    +0.000 C 
BRANCH  14  17
ATOM     17  C   UNL     1      44.781   6.526  11.820  0.00  0.00    +0.000 A 
ATOM     18  C   UNL     1      46.114   6.427  12.255  0.00  0.00    +0.000 A 
ATOM     19  C   UNL     1      46.961   7.541  12.283  0.00  0.00    +0.000 A 
ATOM     20  C   UNL     1      46.493   8.797  11.884  0.00  0.00    +0.000 A 
ATOM     21  C   UNL     1      45.152   8.923  11.496  0.00  0.00    +0.000 A 
ATOM     22  C   UNL     1      44.311   7.806  11.476  0.00  0.00    +0.000 A 
BRANCH  20  23
ATOM     23  C   UNL     1      47.404   9.998  11.846  0.00  0.00    +0.000 C 
ATOM     24  F   UNL     1      48.589   9.763  11.214  0.00  0.00    +0.000 F 
ATOM     25  F   UNL     1      46.843  11.055  11.194  0.00  0.00    +0.000 F 
ATOM     26  F   UNL     1      47.726  10.452  13.087  0.00  0.00    +0.000 F 
ENDBRANCH  20  23
ENDBRANCH  14  17
ENDBRANCH   5  14
TORSDOF 4
ENDMDL
MODEL 6
REMARK VINA RESULT:    -5.628      3.437      5.494
REMARK INTER + INTRA:          -7.666
REMARK INTER:                  -7.420
REMARK INTRA:                  -0.246
REMARK UNBOUND:                -0.722
REMARK  Name = 
REMARK  4 active torsions:
REMARK  status: ('A' for Active; 'I' for Inactive)
REMARK    1  A    between atoms: C_2  and  C_4
REMARK    2  A    between atoms: N_8  and  C_9
REMARK    3  A    between atoms: C_9  and  C_10
REMARK    4  A    between atoms: C_13  and  C_14
REMARK                            x       y       z     vdW  Elec       q    Type
REMARK                         _______ _______ _______ _____ _____    ______ ____
ROOT
ATOM      1  C   UNL     1      44.822   5.066  11.018  0.00  0.00    +0.000 A 
ATOM      2  C   UNL     1      45.968   5.730  10.588  0.00  0.00    +0.000 A 
ATOM      3  C   UNL     1      46.649   6.560  11.482  0.00  0.00    +0.000 A 
ATOM      4  C   UNL     1      46.180   6.710  12.779  0.00  0.00    +0.000 A 
ATOM      5  N   UNL     1      46.757   7.577  13.711  0.00  0.00    +0.000 N 
ATOM      6  N   UNL     1      45.061   6.081  13.200  0.00  0.00    +0.000 NA
ATOM      7  C   UNL     1      44.404   5.283  12.320  0.00  0.00    +0.000 A 
ATOM      8  H   UNL     1      46.253   7.432  14.584  0.00  0.00    +0.000 HD
ENDROOT
BRANCH   1  10
ATOM      9  N   UNL     1      44.084   4.434   8.795  0.00  0.00    +0.000 N 
ATOM     10  C   UNL     1      44.035   4.180  10.138  0.00  0.00    +0.000 C 
ATOM     11  O   UNL     1      43.392   3.240  10.584  0.00  0.00    +0.000 OA
ATOM     12  H   UNL     1      43.617   3.769   8.191  0.00  0.00    +0.000 HD
ATOM     13  H   UNL     1      44.789   5.027   8.378  0.00  0.00    +0.000 HD
ENDBRANCH   1  10
BRANCH   5  14
ATOM     14  C   UNL     1      48.185   7.899  13.816  0.00  0.00    +0.000 C 
ATOM     15  C   UNL     1      48.512   9.369  13.567  0.00  0.00    +0.000 C 
ATOM     16  C   UNL     1      49.053   8.331  12.644  0.00  0.00    +0.000 C 
BRANCH  14  17
ATOM     17  C   UNL     1      48.916   7.179  14.948  0.00  0.00    +0.000 A 
ATOM     18  C   UNL     1      48.263   6.215  15.736  0.00  0.00    +0.000 A 
ATOM     19  C   UNL     1      48.949   5.467  16.699  0.00  0.00    +0.000 A 
ATOM     20  C   UNL     1      50.317   5.670  16.911  0.00  0.00    +0.000 A 
ATOM     21  C   UNL     1      50.973   6.662  16.170  0.00  0.00    +0.000 A 
ATOM     22  C   UNL     1      50.278   7.408  15.213  0.00  0.00    +0.000 A 
BRANCH  20  23
ATOM     23  C   UNL     1      51.090   4.832  17.898  0.00  0.00    +0.000 C 
ATOM     24  F   UNL     1      51.675   3.734  17.342  0.00  0.00    +0.000 F 
ATOM     25  F   UNL     1      52.102   5.528  18.489  0.00  0.00    +0.000 F 
ATOM     26  F   UNL     1      50.313   4.367  18.914  0.00  0.00    +0.000 F 
ENDBRANCH  20  23
ENDBRANCH  14  17
ENDBRANCH   5  14
TORSDOF 4
ENDMDL
