MODEL 1
REMARK VINA RESULT:    -8.162      0.000      0.000
REMARK INTER + INTRA:         -11.286
REMARK INTER:                 -10.786
REMARK INTRA:                  -0.500
REMARK UNBOUND:                -0.500
REMARK  Name = 
REMARK  6 active torsions:
REMARK  status: ('A' for Active; 'I' for Inactive)
REMARK    1  A    between atoms: C_2  and  C_18
REMARK    2  A    between atoms: N_3  and  C_4
REMARK    3  A    between atoms: C_4  and  C_5
REMARK    4  A    between atoms: C_8  and  C_9
REMARK    5  A    between atoms: C_9  and  C_10
REMARK    6  A    between atoms: C_13  and  O_14
REMARK                            x       y       z     vdW  Elec       q    Type
REMARK                         _______ _______ _______ _____ _____    ______ ____
ROOT
ATOM      1  O   UNL     1      46.599   3.311  13.714  0.00  0.00    +0.000 OA
ATOM      2  C   UNL     1      46.386   4.460  14.097  0.00  0.00    +0.000 C 
ATOM      3  N   UNL     1      45.219   5.123  13.824  0.00  0.00    +0.000 N 
ATOM      4  H   UNL     1      45.171   6.122  13.992  0.00  0.00    +0.000 HD
ENDROOT
BRANCH   2   5
ATOM      5  C   UNL     1      47.358   5.181  14.927  0.00  0.00    +0.000 A 
ATOM      6  C   UNL     1      48.090   6.226  14.380  0.00  0.00    +0.000 A 
ATOM      7  S   UNL     1      49.186   6.940  15.474  0.00  0.00    +0.000 S 
ATOM      8  C   UNL     1      48.683   5.911  16.733  0.00  0.00    +0.000 A 
ATOM      9  N   UNL     1      49.214   6.021  17.981  0.00  0.00    +0.000 NA
ATOM     10  C   UNL     1      48.708   5.212  18.851  0.00  0.00    +0.000 A 
ATOM     11  N   UNL     1      47.730   4.291  18.584  0.00  0.00    +0.000 N 
ATOM     12  C   UNL     1      47.225   4.089  17.322  0.00  0.00    +0.000 A 
ATOM     13  O   UNL     1      46.459   3.159  17.095  0.00  0.00    +0.000 OA
ATOM     14  C   UNL     1      47.717   5.012  16.317  0.00  0.00    +0.000 A 
ATOM     15  H   UNL     1      47.400   3.662  19.301  0.00  0.00    +0.000 HD
ENDBRANCH   2   5
BRANCH   3  16
ATOM     16  C   UNL     1      44.217   4.591  12.938  0.00  0.00    +0.000 C 
BRANCH  16  17
ATOM     17  C   UNL     1      44.722   4.544  11.520  0.00  0.00    +0.000 A 
ATOM     18  C   UNL     1      45.458   5.614  10.999  0.00  0.00    +0.000 A 
ATOM     19  C   UNL     1      45.928   5.581   9.685  0.00  0.00    +0.000 A 
ATOM     20  C   UNL     1      45.668   4.478   8.865  0.00  0.00    +0.000 A 
ATOM     21  C   UNL     1      44.898   3.423   9.374  0.00  0.00    +0.000 A 
ATOM     22  C   UNL     1      44.426   3.457  10.688  0.00  0.00    +0.000 A 
BRANCH  20  23
ATOM     23  C   UNL     1      46.178   4.430   7.444  0.00  0.00    +0.000 C 
BRANCH  23  24
ATOM     24  C   UNL     1      46.127   3.035   6.791  0.00  0.00    +0.000 C 
ATOM     25  C   UNL     1      46.473   3.042   5.289  0.00  0.00    +0.000 C 
ATOM     26  C   UNL     1      47.592   2.018   5.098  0.00  0.00    +0.000 C 
ATOM     27  C   UNL     1      48.293   1.970   6.447  0.00  0.00    +0.000 C 
ATOM     28  C   UNL     1      47.145   2.077   7.441  0.00  0.00    +0.000 C 
BRANCH  27  29
ATOM     29  O   UNL     1      49.193   3.060   6.602  0.00  0.00    +0.000 OA
ATOM     30  H   UNL     1      49.588   3.269   5.740  0.00  0.00    +0.000 HD
ENDBRANCH  27  29
ENDBRANCH  23  24
ENDBRANCH  20  23
ENDBRANCH  16  17
ENDBRANCH   3  16
TORSDOF 6
ENDMDL
MODEL 2
REMARK VINA RESULT:    -7.550      4.249      8.901
REMARK INTER + INTRA:         -10.478
REMARK INTER:                  -9.563
REMARK INTRA:                  -0.915
REMARK UNBOUND:                -0.500
REMARK  Name = 
REMARK  6 active torsions:
REMARK  status: ('A' for Active; 'I' for Inactive)
REMARK    1  A    between atoms: C_2  and  C_18
REMARK    2  A    between atoms: N_3  and  C_4
REMARK    3  A    between atoms: C_4  and  C_5
REMARK    4  A    between atoms: C_8  and  C_9
REMARK    5  A    between atoms: C_9  and  C_10
REMARK    6  A    between atoms: C_13  and  O_14
REMARK                            x       y       z     vdW  Elec       q    Type
REMARK                         _______ _______ _______ _____ _____    ______ ____
ROOT
ATOM      1  O   UNL     1      49.508   6.849  14.309  0.00  0.00    +0.000 OA
ATOM      2  C   UNL     1      48.372   6.516  14.640  0.00  0.00    +0.000 C 
ATOM      3  N   UNL     1      48.003   6.353  15.949  0.00  0.00    +0.000 N 
ATOM      4  H   UNL     1      47.123   5.896  16.158  0.00  0.00    +0.000 HD
ENDROOT
BRANCH   2   5
ATOM      5  C   UNL     1      47.311   6.324  13.643  0.00  0.00    +0.000 A 
ATOM      6  C   UNL     1      46.845   7.411  12.916  0.00  0.00    +0.000 A 
ATOM      7  S   UNL     1      45.602   7.016  11.818  0.00  0.00    +0.000 S 
ATOM      8  C   UNL     1      45.679   5.369  12.238  0.00  0.00    +0.000 A 
ATOM      9  N   UNL     1      44.881   4.452  11.627  0.00  0.00    +0.000 NA
ATOM     10  C   UNL     1      45.078   3.234  12.007  0.00  0.00    +0.000 A 
ATOM     11  N   UNL     1      45.988   2.849  12.955  0.00  0.00    +0.000 N 
ATOM     12  C   UNL     1      46.755   3.748  13.656  0.00  0.00    +0.000 A 
ATOM     13  O   UNL     1      47.451   3.379  14.596  0.00  0.00    +0.000 OA
ATOM     14  C   UNL     1      46.616   5.127  13.227  0.00  0.00    +0.000 A 
ATOM     15  H   UNL     1      46.070   1.882  13.233  0.00  0.00    +0.000 HD
ENDBRANCH   2   5
BRANCH   3  16
ATOM     16  C   UNL     1      48.951   6.404  17.031  0.00  0.00    +0.000 C 
BRANCH  16  17
ATOM     17  C   UNL     1      49.658   5.083  17.190  0.00  0.00    +0.000 A 
ATOM     18  C   UNL     1      51.054   5.036  17.261  0.00  0.00    +0.000 A 
ATOM     19  C   UNL     1      51.719   3.817  17.404  0.00  0.00    +0.000 A 
ATOM     20  C   UNL     1      50.999   2.620  17.476  0.00  0.00    +0.000 A 
ATOM     21  C   UNL     1      49.602   2.663  17.366  0.00  0.00    +0.000 A 
ATOM     22  C   UNL     1      48.937   3.883  17.221  0.00  0.00    +0.000 A 
BRANCH  20  23
ATOM     23  C   UNL     1      51.708   1.296  17.638  0.00  0.00    +0.000 C 
BRANCH  23  24
ATOM     24  C   UNL     1      53.244   1.376  17.539  0.00  0.00    +0.000 C 
ATOM     25  C   UNL     1      53.943   1.571  18.900  0.00  0.00    +0.000 C 
ATOM     26  C   UNL     1      54.982   0.456  19.017  0.00  0.00    +0.000 C 
ATOM     27  C   UNL     1      54.430  -0.665  18.149  0.00  0.00    +0.000 C 
ATOM     28  C   UNL     1      53.834   0.075  16.960  0.00  0.00    +0.000 C 
BRANCH  27  29
ATOM     29  O   UNL     1      53.427  -1.404  18.833  0.00  0.00    +0.000 OA
ATOM     30  H   UNL     1      52.997  -0.827  19.485  0.00  0.00    +0.000 HD
ENDBRANCH  27  29
ENDBRANCH  23  24
ENDBRANCH  20  23
ENDBRANCH  16  17
ENDBRANCH   3  16
TORSDOF 6
ENDMDL
MODEL 3
REMARK VINA RESULT:    -7.310      4.259      9.515
REMARK INTER + INTRA:         -10.160
REMARK INTER:                  -9.278
REMARK INTRA:                  -0.882
REMARK UNBOUND:                -0.500
REMARK  Name = 
REMARK  6 active torsions:
REMARK  status: ('A' for Active; 'I' for Inactive)
REMARK    1  A    between atoms: C_2  and  C_18
REMARK    2  A    between atoms: N_3  and  C_4
REMARK    3  A    between atoms: C_4  and  C_5
REMARK    4  A    between atoms: C_8  and  C_9
REMARK    5  A    between atoms: C_9  and  C_10
REMARK    6  A    between atoms: C_13  and  O_14
REMARK                            x       y       z     vdW  Elec       q    Type
REMARK                         _______ _______ _______ _____ _____    ______ ____
ROOT
ATOM      1  O   UNL     1      47.194   3.060  14.020  0.00  0.00    +0.000 OA
ATOM      2  C   UNL     1      46.796   4.121  14.496  0.00  0.00    +0.000 C 
ATOM      3  N   UNL     1      46.828   4.385  15.840  0.00  0.00    +0.000 N 
ATOM      4  H   UNL     1      46.316   5.184  16.195  0.00  0.00    +0.000 HD
ENDROOT
BRANCH   2   5
ATOM      5  C   UNL     1      46.308   5.207  13.637  0.00  0.00    +0.000 A 
ATOM      6  C   UNL     1      47.114   6.311  13.399  0.00  0.00    +0.000 A 
ATOM      7  S   UNL     1      46.386   7.486  12.399  0.00  0.00    +0.000 S 
ATOM      8  C   UNL     1      44.988   6.535  12.207  0.00  0.00    +0.000 A 
ATOM      9  N   UNL     1      43.960   6.954  11.422  0.00  0.00    +0.000 NA
ATOM     10  C   UNL     1      42.984   6.114  11.326  0.00  0.00    +0.000 A 
ATOM     11  N   UNL     1      42.934   4.899  11.958  0.00  0.00    +0.000 N 
ATOM     12  C   UNL     1      43.911   4.473  12.825  0.00  0.00    +0.000 A 
ATOM     13  O   UNL     1      43.762   3.448  13.481  0.00  0.00    +0.000 OA
ATOM     14  C   UNL     1      45.060   5.353  12.923  0.00  0.00    +0.000 A 
ATOM     15  H   UNL     1      42.125   4.302  11.870  0.00  0.00    +0.000 HD
ENDBRANCH   2   5
BRANCH   3  16
ATOM     16  C   UNL     1      47.181   3.386  16.815  0.00  0.00    +0.000 C 
BRANCH  16  17
ATOM     17  C   UNL     1      48.661   3.402  17.090  0.00  0.00    +0.000 A 
ATOM     18  C   UNL     1      49.309   4.607  17.386  0.00  0.00    +0.000 A 
ATOM     19  C   UNL     1      50.682   4.633  17.638  0.00  0.00    +0.000 A 
ATOM     20  C   UNL     1      51.434   3.454  17.598  0.00  0.00    +0.000 A 
ATOM     21  C   UNL     1      50.793   2.254  17.263  0.00  0.00    +0.000 A 
ATOM     22  C   UNL     1      49.420   2.228  17.008  0.00  0.00    +0.000 A 
BRANCH  20  23
ATOM     23  C   UNL     1      52.918   3.471  17.876  0.00  0.00    +0.000 C 
BRANCH  23  24
ATOM     24  C   UNL     1      53.321   2.889  19.246  0.00  0.00    +0.000 C 
ATOM     25  C   UNL     1      54.708   2.217  19.250  0.00  0.00    +0.000 C 
ATOM     26  C   UNL     1      55.500   2.865  20.385  0.00  0.00    +0.000 C 
ATOM     27  C   UNL     1      54.884   4.248  20.531  0.00  0.00    +0.000 C 
ATOM     28  C   UNL     1      53.398   3.993  20.319  0.00  0.00    +0.000 C 
BRANCH  27  29
ATOM     29  O   UNL     1      55.384   5.145  19.549  0.00  0.00    +0.000 OA
ATOM     30  H   UNL     1      56.355   5.124  19.565  0.00  0.00    +0.000 HD
ENDBRANCH  27  29
ENDBRANCH  23  24
ENDBRANCH  20  23
ENDBRANCH  16  17
ENDBRANCH   3  16
TORSDOF 6
ENDMDL
MODEL 4
REMARK VINA RESULT:    -7.231      2.168      3.383
REMARK INTER + INTRA:         -10.056
REMARK INTER:                  -8.684
REMARK INTRA:                  -1.372
REMARK UNBOUND:                -0.500
REMARK  Name = 
REMARK  6 active torsions:
REMARK  status: ('A' for Active; 'I' for Inactive)
REMARK    1  A    between atoms: C_2  and  C_18
REMARK    2  A    between atoms: N_3  and  C_4
REMARK    3  A    between atoms: C_4  and  C_5
REMARK    4  A    between atoms: C_8  and  C_9
REMARK    5  A    between atoms: C_9  and  C_10
REMARK    6  A    between atoms: C_13  and  O_14
REMARK                            x       y       z     vdW  Elec       q    Type
REMARK                         _______ _______ _______ _____ _____    ______ ____
ROOT
ATOM      1  O   UNL     1      46.636   3.765  14.327  0.00  0.00    +0.000 OA
ATOM      2  C   UNL     1      46.572   4.953  14.019  0.00  0.00    +0.000 C 
ATOM      3  N   UNL     1      45.435   5.523  13.509  0.00  0.00    +0.000 N 
ATOM      4  H   UNL     1      45.493   6.447  13.096  0.00  0.00    +0.000 HD
ENDROOT
BRANCH   2   5
ATOM      5  C   UNL     1      47.707   5.860  14.234  0.00  0.00    +0.000 A 
ATOM      6  C   UNL     1      48.337   5.893  15.470  0.00  0.00    +0.000 A 
ATOM      7  S   UNL     1      49.620   7.013  15.554  0.00  0.00    +0.000 S 
ATOM      8  C   UNL     1      49.412   7.455  13.924  0.00  0.00    +0.000 A 
ATOM      9  N   UNL     1      50.231   8.370  13.337  0.00  0.00    +0.000 NA
ATOM     10  C   UNL     1      49.992   8.575  12.085  0.00  0.00    +0.000 A 
ATOM     11  N   UNL     1      48.999   7.961  11.368  0.00  0.00    +0.000 N 
ATOM     12  C   UNL     1      48.098   7.095  11.939  0.00  0.00    +0.000 A 
ATOM     13  O   UNL     1      47.138   6.680  11.301  0.00  0.00    +0.000 OA
ATOM     14  C   UNL     1      48.357   6.783  13.332  0.00  0.00    +0.000 A 
ATOM     15  H   UNL     1      48.842   8.191  10.398  0.00  0.00    +0.000 HD
ENDBRANCH   2   5
BRANCH   3  16
ATOM     16  C   UNL     1      44.278   4.748  13.146  0.00  0.00    +0.000 C 
BRANCH  16  17
ATOM     17  C   UNL     1      44.381   4.262  11.724  0.00  0.00    +0.000 A 
ATOM     18  C   UNL     1      44.047   5.112  10.664  0.00  0.00    +0.000 A 
ATOM     19  C   UNL     1      44.135   4.670   9.342  0.00  0.00    +0.000 A 
ATOM     20  C   UNL     1      44.558   3.367   9.056  0.00  0.00    +0.000 A 
ATOM     21  C   UNL     1      44.855   2.503  10.119  0.00  0.00    +0.000 A 
ATOM     22  C   UNL     1      44.764   2.945  11.441  0.00  0.00    +0.000 A 
BRANCH  20  23
ATOM     23  C   UNL     1      44.663   2.882   7.630  0.00  0.00    +0.000 C 
BRANCH  23  24
ATOM     24  C   UNL     1      45.857   3.459   6.843  0.00  0.00    +0.000 C 
ATOM     25  C   UNL     1      47.161   3.532   7.661  0.00  0.00    +0.000 C 
ATOM     26  C   UNL     1      48.227   2.804   6.843  0.00  0.00    +0.000 C 
ATOM     27  C   UNL     1      47.441   1.807   6.004  0.00  0.00    +0.000 C 
ATOM     28  C   UNL     1      46.191   2.585   5.618  0.00  0.00    +0.000 C 
BRANCH  27  29
ATOM     29  O   UNL     1      47.100   0.651   6.757  0.00  0.00    +0.000 OA
ATOM     30  H   UNL     1      47.911   0.259   7.120  0.00  0.00    +0.000 HD
ENDBRANCH  27  29
ENDBRANCH  23  24
ENDBRANCH  20  23
ENDBRANCH  16  17
ENDBRANCH   3  16
TORSDOF 6
ENDMDL
MODEL 5
REMARK VINA RESULT:    -7.230      4.216      8.062
REMARK INTER + INTRA:         -10.055
REMARK INTER:                  -9.101
REMARK INTRA:                  -0.954
REMARK UNBOUND:                -0.500
REMARK  Name = 
REMARK  6 active torsions:
REMARK  status: ('A' for Active; 'I' for Inactive)
REMARK    1  A    between atoms: C_2  and  C_18
REMARK    2  A    between atoms: N_3  and  C_4
REMARK    3  A    between atoms: C_4  and  C_5
REMARK    4  A    between atoms: C_8  and  C_9
REMARK    5  A    between atoms: C_9  and  C_10
REMARK    6  A    between atoms: C_13  and  O_14
REMARK                            x       y       z     vdW  Elec       q    Type
REMARK                         _______ _______ _______ _____ _____    ______ ____
ROOT
ATOM      1  O   UNL     1      43.773   3.711   9.104  0.00  0.00    +0.000 OA
ATOM      2  C   UNL     1      44.518   2.847   9.561  0.00  0.00    +0.000 C 
ATOM      3  N   UNL     1      44.539   2.519  10.891  0.00  0.00    +0.000 N 
ATOM      4  H   UNL     1      45.297   1.946  11.243  0.00  0.00    +0.000 HD
ENDROOT
BRANCH   2   5
ATOM      5  C   UNL     1      45.403   2.065   8.690  0.00  0.00    +0.000 A 
ATOM      6  C   UNL     1      45.356   0.678   8.728  0.00  0.00    +0.000 A 
ATOM      7  S   UNL     1      46.462  -0.073   7.669  0.00  0.00    +0.000 S 
ATOM      8  C   UNL     1      47.007   1.429   7.086  0.00  0.00    +0.000 A 
ATOM      9  N   UNL     1      47.953   1.500   6.111  0.00  0.00    +0.000 NA
ATOM     10  C   UNL     1      48.238   2.700   5.727  0.00  0.00    +0.000 A 
ATOM     11  N   UNL     1      47.676   3.838   6.242  0.00  0.00    +0.000 N 
ATOM     12  C   UNL     1      46.779   3.818   7.283  0.00  0.00    +0.000 A 
ATOM     13  O   UNL     1      46.410   4.860   7.812  0.00  0.00    +0.000 OA
ATOM     14  C   UNL     1      46.379   2.491   7.713  0.00  0.00    +0.000 A 
ATOM     15  H   UNL     1      47.967   4.750   5.923  0.00  0.00    +0.000 HD
ENDBRANCH   2   5
BRANCH   3  16
ATOM     16  C   UNL     1      43.808   3.264  11.882  0.00  0.00    +0.000 C 
BRANCH  16  17
ATOM     17  C   UNL     1      44.529   4.538  12.238  0.00  0.00    +0.000 A 
ATOM     18  C   UNL     1      45.635   4.504  13.095  0.00  0.00    +0.000 A 
ATOM     19  C   UNL     1      46.309   5.680  13.434  0.00  0.00    +0.000 A 
ATOM     20  C   UNL     1      45.886   6.912  12.925  0.00  0.00    +0.000 A 
ATOM     21  C   UNL     1      44.754   6.950  12.098  0.00  0.00    +0.000 A 
ATOM     22  C   UNL     1      44.079   5.775  11.761  0.00  0.00    +0.000 A 
BRANCH  20  23
ATOM     23  C   UNL     1      46.611   8.188  13.280  0.00  0.00    +0.000 C 
BRANCH  23  24
ATOM     24  C   UNL     1      47.571   8.705  12.190  0.00  0.00    +0.000 C 
ATOM     25  C   UNL     1      48.719   9.575  12.738  0.00  0.00    +0.000 C 
ATOM     26  C   UNL     1      50.017   8.959  12.216  0.00  0.00    +0.000 C 
ATOM     27  C   UNL     1      49.677   7.492  12.002  0.00  0.00    +0.000 C 
ATOM     28  C   UNL     1      48.258   7.538  11.453  0.00  0.00    +0.000 C 
BRANCH  27  29
ATOM     29  O   UNL     1      49.719   6.767  13.224  0.00  0.00    +0.000 OA
ATOM     30  H   UNL     1      50.457   7.097  13.763  0.00  0.00    +0.000 HD
ENDBRANCH  27  29
ENDBRANCH  23  24
ENDBRANCH  20  23
ENDBRANCH  16  17
ENDBRANCH   3  16
TORSDOF 6
ENDMDL
MODEL 6
REMARK VINA RESULT:    -7.153      4.128      5.980
REMARK INTER + INTRA:          -9.953
REMARK INTER:                  -9.001
REMARK INTRA:                  -0.952
REMARK UNBOUND:                -0.500
REMARK  Name = 
REMARK  6 active torsions:
REMARK  status: ('A' for Active; 'I' for Inactive)
REMARK    1  A    between atoms: C_2  and  C_18
REMARK    2  A    between atoms: N_3  and  C_4
REMARK    3  A    between atoms: C_4  and  C_5
REMARK    4  A    between atoms: C_8  and  C_9
REMARK    5  A    between atoms: C_9  and  C_10
REMARK    6  A    between atoms: C_13  and  O_14
REMARK                            x       y       z     vdW  Elec       q    Type
REMARK                         _______ _______ _______ _____ _____    ______ ____
ROOT
ATOM      1  O   UNL     1      49.308   5.655  18.775  0.00  0.00    +0.000 OA
ATOM      2  C   UNL     1      50.226   5.486  17.976  0.00  0.00    +0.000 C 
ATOM      3  N   UNL     1      50.283   6.136  16.770  0.00  0.00    +0.000 N 
ATOM      4  H   UNL     1      50.948   5.820  16.074  0.00  0.00    +0.000 HD
ENDROOT
BRANCH   2   5
ATOM      5  C   UNL     1      51.360   4.609  18.289  0.00  0.00    +0.000 A 
ATOM      6  C   UNL     1      52.429   5.103  19.024  0.00  0.00    +0.000 A 
ATOM      7  S   UNL     1      53.668   3.959  19.281  0.00  0.00    +0.000 S 
ATOM      8  C   UNL     1      52.796   2.749  18.462  0.00  0.00    +0.000 A 
ATOM      9  N   UNL     1      53.289   1.487  18.348  0.00  0.00    +0.000 NA
ATOM     10  C   UNL     1      52.503   0.658  17.746  0.00  0.00    +0.000 A 
ATOM     11  N   UNL     1      51.274   0.979  17.233  0.00  0.00    +0.000 N 
ATOM     12  C   UNL     1      50.773   2.258  17.252  0.00  0.00    +0.000 A 
ATOM     13  O   UNL     1      49.738   2.535  16.656  0.00  0.00    +0.000 OA
ATOM     14  C   UNL     1      51.590   3.219  17.970  0.00  0.00    +0.000 A 
ATOM     15  H   UNL     1      50.722   0.292  16.742  0.00  0.00    +0.000 HD
ENDBRANCH   2   5
BRANCH   3  16
ATOM     16  C   UNL     1      49.199   6.945  16.277  0.00  0.00    +0.000 C 
BRANCH  16  17
ATOM     17  C   UNL     1      48.333   6.162  15.325  0.00  0.00    +0.000 A 
ATOM     18  C   UNL     1      47.690   4.996  15.755  0.00  0.00    +0.000 A 
ATOM     19  C   UNL     1      46.888   4.261  14.880  0.00  0.00    +0.000 A 
ATOM     20  C   UNL     1      46.717   4.677  13.555  0.00  0.00    +0.000 A 
ATOM     21  C   UNL     1      47.393   5.823  13.113  0.00  0.00    +0.000 A 
ATOM     22  C   UNL     1      48.197   6.557  13.988  0.00  0.00    +0.000 A 
BRANCH  20  23
ATOM     23  C   UNL     1      45.847   3.893  12.602  0.00  0.00    +0.000 C 
BRANCH  23  24
ATOM     24  C   UNL     1      44.335   3.989  12.888  0.00  0.00    +0.000 C 
ATOM     25  C   UNL     1      43.818   5.436  13.006  0.00  0.00    +0.000 C 
ATOM     26  C   UNL     1      42.651   5.560  12.026  0.00  0.00    +0.000 C 
ATOM     27  C   UNL     1      42.946   4.520  10.956  0.00  0.00    +0.000 C 
ATOM     28  C   UNL     1      43.512   3.352  11.751  0.00  0.00    +0.000 C 
BRANCH  27  29
ATOM     29  O   UNL     1      43.902   4.998  10.019  0.00  0.00    +0.000 OA
ATOM     30  H   UNL     1      44.774   4.633  10.241  0.00  0.00    +0.000 HD
ENDBRANCH  27  29
ENDBRANCH  23  24
ENDBRANCH  20  23
ENDBRANCH  16  17
ENDBRANCH   3  16
TORSDOF 6
ENDMDL
MODEL 7
REMARK VINA RESULT:    -6.985      4.871      7.488
REMARK INTER + INTRA:          -9.730
REMARK INTER:                  -8.709
REMARK INTRA:                  -1.021
REMARK UNBOUND:                -0.500
REMARK  Name = 
REMARK  6 active torsions:
REMARK  status: ('A' for Active; 'I' for Inactive)
REMARK    1  A    between atoms: C_2  and  C_18
REMARK    2  A    between atoms: N_3  and  C_4
REMARK    3  A    between atoms: C_4  and  C_5
REMARK    4  A    between atoms: C_8  and  C_9
REMARK    5  A    between atoms: C_9  and  C_10
REMARK    6  A    between atoms: C_13  and  O_14
REMARK                            x       y       z     vdW  Elec       q    Type
REMARK                         _______ _______ _______ _____ _____    ______ ____
ROOT
ATOM      1  O   UNL     1      44.377   7.607  11.061  0.00  0.00    +0.000 OA
ATOM      2  C   UNL     1      44.872   6.690  11.712  0.00  0.00    +0.000 C 
ATOM      3  N   UNL     1      45.741   6.907  12.749  0.00  0.00    +0.000 N 
ATOM      4  H   UNL     1      46.264   6.123  13.122  0.00  0.00    +0.000 HD
ENDROOT
BRANCH   2   5
ATOM      5  C   UNL     1      44.516   5.290  11.451  0.00  0.00    +0.000 A 
ATOM      6  C   UNL     1      43.743   4.594  12.371  0.00  0.00    +0.000 A 
ATOM      7  S   UNL     1      43.440   2.976  11.923  0.00  0.00    +0.000 S 
ATOM      8  C   UNL     1      44.287   3.165  10.460  0.00  0.00    +0.000 A 
ATOM      9  N   UNL     1      44.381   2.142   9.569  0.00  0.00    +0.000 NA
ATOM     10  C   UNL     1      45.010   2.437   8.480  0.00  0.00    +0.000 A 
ATOM     11  N   UNL     1      45.568   3.657   8.207  0.00  0.00    +0.000 N 
ATOM     12  C   UNL     1      45.569   4.692   9.111  0.00  0.00    +0.000 A 
ATOM     13  O   UNL     1      46.203   5.718   8.888  0.00  0.00    +0.000 OA
ATOM     14  C   UNL     1      44.824   4.434  10.329  0.00  0.00    +0.000 A 
ATOM     15  H   UNL     1      46.078   3.815   7.350  0.00  0.00    +0.000 HD
ENDBRANCH   2   5
BRANCH   3  16
ATOM     16  C   UNL     1      46.265   8.211  13.058  0.00  0.00    +0.000 C 
BRANCH  16  17
ATOM     17  C   UNL     1      47.643   8.389  12.478  0.00  0.00    +0.000 A 
ATOM     18  C   UNL     1      48.063   9.647  12.032  0.00  0.00    +0.000 A 
ATOM     19  C   UNL     1      49.337   9.821  11.489  0.00  0.00    +0.000 A 
ATOM     20  C   UNL     1      50.216   8.738  11.379  0.00  0.00    +0.000 A 
ATOM     21  C   UNL     1      49.782   7.470  11.790  0.00  0.00    +0.000 A 
ATOM     22  C   UNL     1      48.506   7.296  12.331  0.00  0.00    +0.000 A 
BRANCH  20  23
ATOM     23  C   UNL     1      51.599   8.917  10.800  0.00  0.00    +0.000 C 
BRANCH  23  24
ATOM     24  C   UNL     1      52.388   7.607  10.605  0.00  0.00    +0.000 C 
ATOM     25  C   UNL     1      52.413   7.112   9.145  0.00  0.00    +0.000 C 
ATOM     26  C   UNL     1      53.884   6.909   8.783  0.00  0.00    +0.000 C 
ATOM     27  C   UNL     1      54.632   7.874   9.691  0.00  0.00    +0.000 C 
ATOM     28  C   UNL     1      53.866   7.782  11.003  0.00  0.00    +0.000 C 
BRANCH  27  29
ATOM     29  O   UNL     1      54.595   9.200   9.180  0.00  0.00    +0.000 OA
ATOM     30  H   UNL     1      54.627   9.826   9.923  0.00  0.00    +0.000 HD
ENDBRANCH  27  29
ENDBRANCH  23  24
ENDBRANCH  20  23
ENDBRANCH  16  17
ENDBRANCH   3  16
TORSDOF 6
ENDMDL
MODEL 8
REMARK VINA RESULT:    -6.959      3.967      5.454
REMARK INTER + INTRA:          -9.697
REMARK INTER:                  -8.372
REMARK INTRA:                  -1.325
REMARK UNBOUND:                -0.500
REMARK  Name = 
REMARK  6 active torsions:
REMARK  status: ('A' for Active; 'I' for Inactive)
REMARK    1  A    between atoms: C_2  and  C_18
REMARK    2  A    between atoms: N_3  and  C_4
REMARK    3  A    between atoms: C_4  and  C_5
REMARK    4  A    between atoms: C_8  and  C_9
REMARK    5  A    between atoms: C_9  and  C_10
REMARK    6  A    between atoms: C_13  and  O_14
REMARK                            x       y       z     vdW  Elec       q    Type
REMARK                         _______ _______ _______ _____ _____    ______ ____
ROOT
ATOM      1  O   UNL     1      47.888   9.475  16.912  0.00  0.00    +0.000 OA
ATOM      2  C   UNL     1      48.659   8.525  16.798  0.00  0.00    +0.000 C 
ATOM      3  N   UNL     1      49.408   8.314  15.671  0.00  0.00    +0.000 N 
ATOM      4  H   UNL     1      49.875   7.423  15.551  0.00  0.00    +0.000 HD
ENDROOT
BRANCH   2   5
ATOM      5  C   UNL     1      48.868   7.575  17.898  0.00  0.00    +0.000 A 
ATOM      6  C   UNL     1      49.192   8.047  19.162  0.00  0.00    +0.000 A 
ATOM      7  S   UNL     1      49.419   6.810  20.316  0.00  0.00    +0.000 S 
ATOM      8  C   UNL     1      49.042   5.604  19.176  0.00  0.00    +0.000 A 
ATOM      9  N   UNL     1      49.019   4.291  19.530  0.00  0.00    +0.000 NA
ATOM     10  C   UNL     1      48.670   3.487  18.581  0.00  0.00    +0.000 A 
ATOM     11  N   UNL     1      48.358   3.875  17.305  0.00  0.00    +0.000 N 
ATOM     12  C   UNL     1      48.448   5.180  16.882  0.00  0.00    +0.000 A 
ATOM     13  O   UNL     1      48.302   5.466  15.700  0.00  0.00    +0.000 OA
ATOM     14  C   UNL     1      48.779   6.133  17.925  0.00  0.00    +0.000 A 
ATOM     15  H   UNL     1      48.126   3.193  16.598  0.00  0.00    +0.000 HD
ENDBRANCH   2   5
BRANCH   3  16
ATOM     16  C   UNL     1      49.239   9.095  14.473  0.00  0.00    +0.000 C 
BRANCH  16  17
ATOM     17  C   UNL     1      48.254   8.442  13.540  0.00  0.00    +0.000 A 
ATOM     18  C   UNL     1      46.914   8.843  13.537  0.00  0.00    +0.000 A 
ATOM     19  C   UNL     1      45.992   8.240  12.678  0.00  0.00    +0.000 A 
ATOM     20  C   UNL     1      46.394   7.222  11.806  0.00  0.00    +0.000 A 
ATOM     21  C   UNL     1      47.729   6.794  11.837  0.00  0.00    +0.000 A 
ATOM     22  C   UNL     1      48.649   7.395  12.698  0.00  0.00    +0.000 A 
BRANCH  20  23
ATOM     23  C   UNL     1      45.407   6.569  10.869  0.00  0.00    +0.000 C 
BRANCH  23  24
ATOM     24  C   UNL     1      44.829   5.233  11.375  0.00  0.00    +0.000 C 
ATOM     25  C   UNL     1      44.528   5.222  12.887  0.00  0.00    +0.000 C 
ATOM     26  C   UNL     1      43.069   4.790  13.035  0.00  0.00    +0.000 C 
ATOM     27  C   UNL     1      42.417   5.214  11.728  0.00  0.00    +0.000 C 
ATOM     28  C   UNL     1      43.487   4.911  10.689  0.00  0.00    +0.000 C 
BRANCH  27  29
ATOM     29  O   UNL     1      42.101   6.600  11.732  0.00  0.00    +0.000 OA
ATOM     30  H   UNL     1      42.100   6.927  10.818  0.00  0.00    +0.000 HD
ENDBRANCH  27  29
ENDBRANCH  23  24
ENDBRANCH  20  23
ENDBRANCH  16  17
ENDBRANCH   3  16
TORSDOF 6
ENDMDL
MODEL 9
REMARK VINA RESULT:    -6.773      3.612      5.174
REMARK INTER + INTRA:          -9.451
REMARK INTER:                  -8.484
REMARK INTRA:                  -0.966
REMARK UNBOUND:                -0.500
REMARK  Name = 
REMARK  6 active torsions:
REMARK  status: ('A' for Active; 'I' for Inactive)
REMARK    1  A    between atoms: C_2  and  C_18
REMARK    2  A    between atoms: N_3  and  C_4
REMARK    3  A    between atoms: C_4  and  C_5
REMARK    4  A    between atoms: C_8  and  C_9
REMARK    5  A    between atoms: C_9  and  C_10
REMARK    6  A    between atoms: C_13  and  O_14
REMARK                            x       y       z     vdW  Elec       q    Type
REMARK                         _______ _______ _______ _____ _____    ______ ____
ROOT
ATOM      1  O   UNL     1      48.290   6.422  17.695  0.00  0.00    +0.000 OA
ATOM      2  C   UNL     1      49.363   6.447  17.096  0.00  0.00    +0.000 C 
ATOM      3  N   UNL     1      49.640   7.366  16.119  0.00  0.00    +0.000 N 
ATOM      4  H   UNL     1      50.452   7.225  15.529  0.00  0.00    +0.000 HD
ENDROOT
BRANCH   2   5
ATOM      5  C   UNL     1      50.448   5.517  17.433  0.00  0.00    +0.000 A 
ATOM      6  C   UNL     1      51.621   6.004  17.993  0.00  0.00    +0.000 A 
ATOM      7  S   UNL     1      52.783   4.794  18.304  0.00  0.00    +0.000 S 
ATOM      8  C   UNL     1      51.738   3.572  17.749  0.00  0.00    +0.000 A 
ATOM      9  N   UNL     1      52.113   2.265  17.776  0.00  0.00    +0.000 NA
ATOM     10  C   UNL     1      51.206   1.439  17.371  0.00  0.00    +0.000 A 
ATOM     11  N   UNL     1      49.963   1.802  16.926  0.00  0.00    +0.000 N 
ATOM     12  C   UNL     1      49.572   3.113  16.804  0.00  0.00    +0.000 A 
ATOM     13  O   UNL     1      48.508   3.402  16.266  0.00  0.00    +0.000 OA
ATOM     14  C   UNL     1      50.532   4.081  17.300  0.00  0.00    +0.000 A 
ATOM     15  H   UNL     1      49.310   1.109  16.590  0.00  0.00    +0.000 HD
ENDBRANCH   2   5
BRANCH   3  16
ATOM     16  C   UNL     1      48.646   8.273  15.606  0.00  0.00    +0.000 C 
BRANCH  16  17
ATOM     17  C   UNL     1      47.934   7.676  14.421  0.00  0.00    +0.000 A 
ATOM     18  C   UNL     1      48.212   6.364  14.021  0.00  0.00    +0.000 A 
ATOM     19  C   UNL     1      47.560   5.802  12.921  0.00  0.00    +0.000 A 
ATOM     20  C   UNL     1      46.619   6.544  12.198  0.00  0.00    +0.000 A 
ATOM     21  C   UNL     1      46.370   7.871  12.575  0.00  0.00    +0.000 A 
ATOM     22  C   UNL     1      47.024   8.433  13.674  0.00  0.00    +0.000 A 
BRANCH  20  23
ATOM     23  C   UNL     1      45.904   5.943  11.012  0.00  0.00    +0.000 C 
BRANCH  23  24
ATOM     24  C   UNL     1      44.430   5.573  11.272  0.00  0.00    +0.000 C 
ATOM     25  C   UNL     1      43.908   4.438  10.368  0.00  0.00    +0.000 C 
ATOM     26  C   UNL     1      43.323   3.377  11.301  0.00  0.00    +0.000 C 
ATOM     27  C   UNL     1      44.085   3.562  12.605  0.00  0.00    +0.000 C 
ATOM     28  C   UNL     1      44.227   5.073  12.715  0.00  0.00    +0.000 C 
BRANCH  27  29
ATOM     29  O   UNL     1      45.362   2.941  12.552  0.00  0.00    +0.000 OA
ATOM     30  H   UNL     1      46.000   3.561  12.162  0.00  0.00    +0.000 HD
ENDBRANCH  27  29
ENDBRANCH  23  24
ENDBRANCH  20  23
ENDBRANCH  16  17
ENDBRANCH   3  16
TORSDOF 6
ENDMDL
