MODEL 1
REMARK VINA RESULT:    -6.476      0.000      0.000
REMARK INTER + INTRA:          -8.667
REMARK INTER:                  -7.991
REMARK INTRA:                  -0.677
REMARK UNBOUND:                -0.677
REMARK  Name = 
REMARK  6 active torsions:
REMARK  status: ('A' for Active; 'I' for Inactive)
REMARK    1  A    between atoms: C_1  and  C_2
REMARK    2  A    between atoms: C_2  and  C_3
REMARK    3  A    between atoms: C_2  and  C_4
REMARK    4  A    between atoms: C_2  and  C_19
REMARK    5  A    between atoms: C_5  and  C_6
REMARK    6  A    between atoms: C_9  and  C_10
REMARK                            x       y       z     vdW  Elec       q    Type
REMARK                         _______ _______ _______ _____ _____    ______ ____
ROOT
ATOM      1  C   UNL     1      46.482   6.534  13.166  0.00  0.00    +0.000 C 
ATOM      2  C   UNL     1      47.986   6.268  12.915  0.00  0.00    +0.000 C 
ATOM      3  N   UNL     1      48.545   7.012  11.763  0.00  0.00    +0.000 NA
ATOM      4  C   UNL     1      48.253   8.462  11.948  0.00  0.00    +0.000 C 
ATOM      5  C   UNL     1      46.743   8.715  12.183  0.00  0.00    +0.000 C 
ATOM      6  O   UNL     1      46.180   7.935  13.250  0.00  0.00    +0.000 OA
ATOM      7  H   UNL     1      48.053   6.697  10.927  0.00  0.00    +0.000 HD
ENDROOT
BRANCH   4   8
ATOM      8  C   UNL     1      49.128   9.093  13.033  0.00  0.00    +0.000 A 
ATOM      9  C   UNL     1      48.589  10.078  13.867  0.00  0.00    +0.000 A 
ATOM     10  C   UNL     1      49.414  10.697  14.803  0.00  0.00    +0.000 A 
ATOM     11  C   UNL     1      50.744  10.317  14.876  0.00  0.00    +0.000 A 
ATOM     12  F   UNL     1      51.568  10.907  15.751  0.00  0.00    +0.000 F 
ATOM     13  C   UNL     1      51.210   9.332  14.031  0.00  0.00    +0.000 A 
ATOM     14  N   UNL     1      50.428   8.711  13.119  0.00  0.00    +0.000 NA
ENDBRANCH   4   8
BRANCH   1  16
ATOM     15  C   UNL     1      45.356   4.637  11.936  0.00  0.00    +0.000 C 
ATOM     16  C   UNL     1      45.589   5.948  12.108  0.00  0.00    +0.000 C 
BRANCH  15  18
ATOM     17  C   UNL     1      43.523   2.855  11.613  0.00  0.00    +0.000 C 
ATOM     18  C   UNL     1      44.313   4.036  10.997  0.00  0.00    +0.000 C 
ATOM     19  C   UNL     1      43.295   5.153  10.682  0.00  0.00    +0.000 C 
BRANCH  18  20
ATOM     20  C   UNL     1      45.020   3.524   9.726  0.00  0.00    +0.000 A 
ATOM     21  C   UNL     1      45.529   4.434   8.787  0.00  0.00    +0.000 A 
ATOM     22  C   UNL     1      46.187   3.959   7.655  0.00  0.00    +0.000 A 
ATOM     23  C   UNL     1      46.307   2.593   7.482  0.00  0.00    +0.000 A 
ATOM     24  F   UNL     1      46.938   2.100   6.409  0.00  0.00    +0.000 F 
ATOM     25  C   UNL     1      45.770   1.749   8.434  0.00  0.00    +0.000 A 
ATOM     26  N   UNL     1      45.133   2.182   9.550  0.00  0.00    +0.000 NA
ENDBRANCH  18  20
ENDBRANCH  15  18
ENDBRANCH   1  16
TORSDOF 4
ENDMDL
MODEL 2
REMARK VINA RESULT:    -6.308      3.433      9.018
REMARK INTER + INTRA:          -8.460
REMARK INTER:                  -7.822
REMARK INTRA:                  -0.638
REMARK UNBOUND:                -0.677
REMARK  Name = 
REMARK  6 active torsions:
REMARK  status: ('A' for Active; 'I' for Inactive)
REMARK    1  A    between atoms: C_1  and  C_2
REMARK    2  A    between atoms: C_2  and  C_3
REMARK    3  A    between atoms: C_2  and  C_4
REMARK    4  A    between atoms: C_2  and  C_19
REMARK    5  A    between atoms: C_5  and  C_6
REMARK    6  A    between atoms: C_9  and  C_10
REMARK                            x       y       z     vdW  Elec       q    Type
REMARK                         _______ _______ _______ _____ _____    ______ ____
ROOT
ATOM      1  C   UNL     1      47.952   6.244  12.998  0.00  0.00    +0.000 C 
ATOM      2  C   UNL     1      47.052   5.085  13.494  0.00  0.00    +0.000 C 
ATOM      3  N   UNL     1      45.624   5.451  13.638  0.00  0.00    +0.000 NA
ATOM      4  C   UNL     1      45.148   6.021  12.346  0.00  0.00    +0.000 C 
ATOM      5  C   UNL     1      46.048   7.189  11.870  0.00  0.00    +0.000 C 
ATOM      6  O   UNL     1      47.445   6.859  11.805  0.00  0.00    +0.000 OA
ATOM      7  H   UNL     1      45.566   6.184  14.345  0.00  0.00    +0.000 HD
ENDROOT
BRANCH   4   8
ATOM      8  C   UNL     1      44.968   4.946  11.272  0.00  0.00    +0.000 A 
ATOM      9  C   UNL     1      45.387   5.202   9.963  0.00  0.00    +0.000 A 
ATOM     10  C   UNL     1      45.153   4.245   8.978  0.00  0.00    +0.000 A 
ATOM     11  C   UNL     1      44.510   3.070   9.329  0.00  0.00    +0.000 A 
ATOM     12  F   UNL     1      44.251   2.138   8.402  0.00  0.00    +0.000 F 
ATOM     13  C   UNL     1      44.131   2.875  10.640  0.00  0.00    +0.000 A 
ATOM     14  N   UNL     1      44.353   3.785  11.616  0.00  0.00    +0.000 NA
ENDBRANCH   4   8
BRANCH   1  16
ATOM     15  C   UNL     1      48.930   7.252  15.097  0.00  0.00    +0.000 C 
ATOM     16  C   UNL     1      48.135   7.332  14.019  0.00  0.00    +0.000 C 
BRANCH  15  18
ATOM     17  C   UNL     1      50.796   8.645  16.203  0.00  0.00    +0.000 C 
ATOM     18  C   UNL     1      49.275   8.407  16.035  0.00  0.00    +0.000 C 
ATOM     19  C   UNL     1      48.677   9.687  15.411  0.00  0.00    +0.000 C 
BRANCH  18  20
ATOM     20  C   UNL     1      48.683   8.113  17.428  0.00  0.00    +0.000 A 
ATOM     21  C   UNL     1      47.959   9.103  18.110  0.00  0.00    +0.000 A 
ATOM     22  C   UNL     1      47.409   8.818  19.357  0.00  0.00    +0.000 A 
ATOM     23  C   UNL     1      47.607   7.561  19.897  0.00  0.00    +0.000 A 
ATOM     24  F   UNL     1      47.089   7.249  21.092  0.00  0.00    +0.000 F 
ATOM     25  C   UNL     1      48.343   6.636  19.184  0.00  0.00    +0.000 A 
ATOM     26  N   UNL     1      48.882   6.881  17.964  0.00  0.00    +0.000 NA
ENDBRANCH  18  20
ENDBRANCH  15  18
ENDBRANCH   1  16
TORSDOF 4
ENDMDL
MODEL 3
REMARK VINA RESULT:    -6.307      4.377      4.945
REMARK INTER + INTRA:          -8.458
REMARK INTER:                  -7.962
REMARK INTRA:                  -0.496
REMARK UNBOUND:                -0.677
REMARK  Name = 
REMARK  6 active torsions:
REMARK  status: ('A' for Active; 'I' for Inactive)
REMARK    1  A    between atoms: C_1  and  C_2
REMARK    2  A    between atoms: C_2  and  C_3
REMARK    3  A    between atoms: C_2  and  C_4
REMARK    4  A    between atoms: C_2  and  C_19
REMARK    5  A    between atoms: C_5  and  C_6
REMARK    6  A    between atoms: C_9  and  C_10
REMARK                            x       y       z     vdW  Elec       q    Type
REMARK                         _______ _______ _______ _____ _____    ______ ____
ROOT
ATOM      1  C   UNL     1      47.880   4.459  14.557  0.00  0.00    +0.000 C 
ATOM      2  C   UNL     1      48.178   5.610  15.548  0.00  0.00    +0.000 C 
ATOM      3  N   UNL     1      47.487   5.477  16.851  0.00  0.00    +0.000 NA
ATOM      4  C   UNL     1      47.814   4.141  17.426  0.00  0.00    +0.000 C 
ATOM      5  C   UNL     1      47.496   2.998  16.429  0.00  0.00    +0.000 C 
ATOM      6  O   UNL     1      48.102   3.166  15.137  0.00  0.00    +0.000 OA
ATOM      7  H   UNL     1      46.484   5.504  16.671  0.00  0.00    +0.000 HD
ENDROOT
BRANCH   4   8
ATOM      8  C   UNL     1      49.248   4.075  17.955  0.00  0.00    +0.000 A 
ATOM      9  C   UNL     1      49.635   4.915  19.004  0.00  0.00    +0.000 A 
ATOM     10  C   UNL     1      50.962   4.898  19.430  0.00  0.00    +0.000 A 
ATOM     11  C   UNL     1      51.855   4.049  18.797  0.00  0.00    +0.000 A 
ATOM     12  F   UNL     1      53.141   4.023  19.168  0.00  0.00    +0.000 F 
ATOM     13  C   UNL     1      51.406   3.239  17.776  0.00  0.00    +0.000 A 
ATOM     14  N   UNL     1      50.122   3.231  17.349  0.00  0.00    +0.000 NA
ENDBRANCH   4   8
BRANCH   1  16
ATOM     15  C   UNL     1      46.077   5.094  12.906  0.00  0.00    +0.000 C 
ATOM     16  C   UNL     1      46.472   4.477  14.030  0.00  0.00    +0.000 C 
BRANCH  15  18
ATOM     17  C   UNL     1      43.743   4.005  13.006  0.00  0.00    +0.000 C 
ATOM     18  C   UNL     1      44.700   4.965  12.258  0.00  0.00    +0.000 C 
ATOM     19  C   UNL     1      44.056   6.368  12.290  0.00  0.00    +0.000 C 
BRANCH  18  20
ATOM     20  C   UNL     1      44.871   4.441  10.819  0.00  0.00    +0.000 A 
ATOM     21  C   UNL     1      44.338   3.195  10.454  0.00  0.00    +0.000 A 
ATOM     22  C   UNL     1      44.479   2.742   9.145  0.00  0.00    +0.000 A 
ATOM     23  C   UNL     1      45.158   3.535   8.238  0.00  0.00    +0.000 A 
ATOM     24  F   UNL     1      45.308   3.135   6.970  0.00  0.00    +0.000 F 
ATOM     25  C   UNL     1      45.674   4.743   8.664  0.00  0.00    +0.000 A 
ATOM     26  N   UNL     1      45.544   5.214   9.928  0.00  0.00    +0.000 NA
ENDBRANCH  18  20
ENDBRANCH  15  18
ENDBRANCH   1  16
TORSDOF 4
ENDMDL
MODEL 4
REMARK VINA RESULT:    -6.253      4.377      8.879
REMARK INTER + INTRA:          -8.392
REMARK INTER:                  -7.801
REMARK INTRA:                  -0.591
REMARK UNBOUND:                -0.677
REMARK  Name = 
REMARK  6 active torsions:
REMARK  status: ('A' for Active; 'I' for Inactive)
REMARK    1  A    between atoms: C_1  and  C_2
REMARK    2  A    between atoms: C_2  and  C_3
REMARK    3  A    between atoms: C_2  and  C_4
REMARK    4  A    between atoms: C_2  and  C_19
REMARK    5  A    between atoms: C_5  and  C_6
REMARK    6  A    between atoms: C_9  and  C_10
REMARK                            x       y       z     vdW  Elec       q    Type
REMARK                         _______ _______ _______ _____ _____    ______ ____
ROOT
ATOM      1  C   UNL     1      47.791   5.179  13.739  0.00  0.00    +0.000 C 
ATOM      2  C   UNL     1      46.829   3.968  13.666  0.00  0.00    +0.000 C 
ATOM      3  N   UNL     1      45.399   4.326  13.805  0.00  0.00    +0.000 NA
ATOM      4  C   UNL     1      45.071   5.367  12.789  0.00  0.00    +0.000 C 
ATOM      5  C   UNL     1      46.032   6.579  12.883  0.00  0.00    +0.000 C 
ATOM      6  O   UNL     1      47.424   6.226  12.829  0.00  0.00    +0.000 OA
ATOM      7  H   UNL     1      45.274   4.739  14.728  0.00  0.00    +0.000 HD
ENDROOT
BRANCH   4   8
ATOM      8  C   UNL     1      44.994   4.790  11.374  0.00  0.00    +0.000 A 
ATOM      9  C   UNL     1      45.611   5.469  10.319  0.00  0.00    +0.000 A 
ATOM     10  C   UNL     1      45.474   4.973   9.024  0.00  0.00    +0.000 A 
ATOM     11  C   UNL     1      44.727   3.823   8.825  0.00  0.00    +0.000 A 
ATOM     12  F   UNL     1      44.558   3.333   7.590  0.00  0.00    +0.000 F 
ATOM     13  C   UNL     1      44.153   3.197   9.911  0.00  0.00    +0.000 A 
ATOM     14  N   UNL     1      44.277   3.654  11.178  0.00  0.00    +0.000 NA
ENDBRANCH   4   8
BRANCH   1  16
ATOM     15  C   UNL     1      48.183   5.119  16.233  0.00  0.00    +0.000 C 
ATOM     16  C   UNL     1      47.878   5.788  15.110  0.00  0.00    +0.000 C 
BRANCH  15  18
ATOM     17  C   UNL     1      48.566   7.295  17.561  0.00  0.00    +0.000 C 
ATOM     18  C   UNL     1      48.461   5.751  17.596  0.00  0.00    +0.000 C 
ATOM     19  C   UNL     1      47.268   5.394  18.508  0.00  0.00    +0.000 C 
BRANCH  18  20
ATOM     20  C   UNL     1      49.792   5.196  18.142  0.00  0.00    +0.000 A 
ATOM     21  C   UNL     1      50.142   5.398  19.486  0.00  0.00    +0.000 A 
ATOM     22  C   UNL     1      51.336   4.873  19.973  0.00  0.00    +0.000 A 
ATOM     23  C   UNL     1      52.155   4.173  19.106  0.00  0.00    +0.000 A 
ATOM     24  F   UNL     1      53.308   3.648  19.540  0.00  0.00    +0.000 F 
ATOM     25  C   UNL     1      51.762   4.023  17.791  0.00  0.00    +0.000 A 
ATOM     26  N   UNL     1      50.602   4.515  17.291  0.00  0.00    +0.000 NA
ENDBRANCH  18  20
ENDBRANCH  15  18
ENDBRANCH   1  16
TORSDOF 4
ENDMDL
MODEL 5
REMARK VINA RESULT:    -5.590      2.259      8.702
REMARK INTER + INTRA:          -7.574
REMARK INTER:                  -6.882
REMARK INTRA:                  -0.692
REMARK UNBOUND:                -0.677
REMARK  Name = 
REMARK  6 active torsions:
REMARK  status: ('A' for Active; 'I' for Inactive)
REMARK    1  A    between atoms: C_1  and  C_2
REMARK    2  A    between atoms: C_2  and  C_3
REMARK    3  A    between atoms: C_2  and  C_4
REMARK    4  A    between atoms: C_2  and  C_19
REMARK    5  A    between atoms: C_5  and  C_6
REMARK    6  A    between atoms: C_9  and  C_10
REMARK                            x       y       z     vdW  Elec       q    Type
REMARK                         _______ _______ _______ _____ _____    ______ ____
ROOT
ATOM      1  C   UNL     1      48.131   6.217  13.035  0.00  0.00    +0.000 C 
ATOM      2  C   UNL     1      47.171   5.107  13.529  0.00  0.00    +0.000 C 
ATOM      3  N   UNL     1      45.768   5.552  13.691  0.00  0.00    +0.000 NA
ATOM      4  C   UNL     1      45.313   6.159  12.407  0.00  0.00    +0.000 C 
ATOM      5  C   UNL     1      46.274   7.278  11.932  0.00  0.00    +0.000 C 
ATOM      6  O   UNL     1      47.649   6.869  11.851  0.00  0.00    +0.000 OA
ATOM      7  H   UNL     1      45.758   6.281  14.403  0.00  0.00    +0.000 HD
ENDROOT
BRANCH   4   8
ATOM      8  C   UNL     1      45.062   5.104  11.327  0.00  0.00    +0.000 A 
ATOM      9  C   UNL     1      45.519   5.331  10.025  0.00  0.00    +0.000 A 
ATOM     10  C   UNL     1      45.223   4.398   9.032  0.00  0.00    +0.000 A 
ATOM     11  C   UNL     1      44.482   3.277   9.371  0.00  0.00    +0.000 A 
ATOM     12  F   UNL     1      44.163   2.371   8.437  0.00  0.00    +0.000 F 
ATOM     13  C   UNL     1      44.072   3.109  10.676  0.00  0.00    +0.000 A 
ATOM     14  N   UNL     1      44.352   3.996  11.658  0.00  0.00    +0.000 NA
ENDBRANCH   4   8
BRANCH   1  16
ATOM     15  C   UNL     1      48.695   7.059  15.348  0.00  0.00    +0.000 C 
ATOM     16  C   UNL     1      48.385   7.284  14.062  0.00  0.00    +0.000 C 
BRANCH  15  18
ATOM     17  C   UNL     1      48.177   9.325  16.460  0.00  0.00    +0.000 C 
ATOM     18  C   UNL     1      49.141   8.118  16.354  0.00  0.00    +0.000 C 
ATOM     19  C   UNL     1      49.175   7.437  17.739  0.00  0.00    +0.000 C 
BRANCH  18  20
ATOM     20  C   UNL     1      50.527   8.651  15.938  0.00  0.00    +0.000 A 
ATOM     21  C   UNL     1      50.697  10.011  15.634  0.00  0.00    +0.000 A 
ATOM     22  C   UNL     1      51.958  10.485  15.282  0.00  0.00    +0.000 A 
ATOM     23  C   UNL     1      53.012   9.591  15.229  0.00  0.00    +0.000 A 
ATOM     24  F   UNL     1      54.239  10.011  14.899  0.00  0.00    +0.000 F 
ATOM     25  C   UNL     1      52.775   8.262  15.522  0.00  0.00    +0.000 A 
ATOM     26  N   UNL     1      51.561   7.774  15.877  0.00  0.00    +0.000 NA
ENDBRANCH  18  20
ENDBRANCH  15  18
ENDBRANCH   1  16
TORSDOF 4
ENDMDL
MODEL 6
REMARK VINA RESULT:    -5.295      5.014      8.519
REMARK INTER + INTRA:          -7.210
REMARK INTER:                  -6.654
REMARK INTRA:                  -0.556
REMARK UNBOUND:                -0.677
REMARK  Name = 
REMARK  6 active torsions:
REMARK  status: ('A' for Active; 'I' for Inactive)
REMARK    1  A    between atoms: C_1  and  C_2
REMARK    2  A    between atoms: C_2  and  C_3
REMARK    3  A    between atoms: C_2  and  C_4
REMARK    4  A    between atoms: C_2  and  C_19
REMARK    5  A    between atoms: C_5  and  C_6
REMARK    6  A    between atoms: C_9  and  C_10
REMARK                            x       y       z     vdW  Elec       q    Type
REMARK                         _______ _______ _______ _____ _____    ______ ____
ROOT
ATOM      1  C   UNL     1      47.956   6.698  15.322  0.00  0.00    +0.000 C 
ATOM      2  C   UNL     1      47.781   7.146  13.851  0.00  0.00    +0.000 C 
ATOM      3  N   UNL     1      48.148   6.109  12.858  0.00  0.00    +0.000 NA
ATOM      4  C   UNL     1      47.381   4.868  13.164  0.00  0.00    +0.000 C 
ATOM      5  C   UNL     1      47.578   4.423  14.635  0.00  0.00    +0.000 C 
ATOM      6  O   UNL     1      47.298   5.453  15.598  0.00  0.00    +0.000 OA
ATOM      7  H   UNL     1      49.139   5.904  12.982  0.00  0.00    +0.000 HD
ENDROOT
BRANCH   4   8
ATOM      8  C   UNL     1      45.905   4.992  12.782  0.00  0.00    +0.000 A 
ATOM      9  C   UNL     1      45.530   5.867  11.758  0.00  0.00    +0.000 A 
ATOM     10  C   UNL     1      44.176   6.027  11.467  0.00  0.00    +0.000 A 
ATOM     11  C   UNL     1      43.246   5.313  12.205  0.00  0.00    +0.000 A 
ATOM     12  F   UNL     1      41.937   5.459  11.965  0.00  0.00    +0.000 F 
ATOM     13  C   UNL     1      43.684   4.460  13.195  0.00  0.00    +0.000 A 
ATOM     14  N   UNL     1      44.992   4.282  13.492  0.00  0.00    +0.000 NA
ENDBRANCH   4   8
BRANCH   1  16
ATOM     15  C   UNL     1      49.818   6.258  16.971  0.00  0.00    +0.000 C 
ATOM     16  C   UNL     1      49.394   6.543  15.730  0.00  0.00    +0.000 C 
BRANCH  15  18
ATOM     17  C   UNL     1      52.316   6.416  16.356  0.00  0.00    +0.000 C 
ATOM     18  C   UNL     1      51.253   5.912  17.363  0.00  0.00    +0.000 C 
ATOM     19  C   UNL     1      51.532   6.611  18.711  0.00  0.00    +0.000 C 
BRANCH  18  20
ATOM     20  C   UNL     1      51.386   4.380  17.469  0.00  0.00    +0.000 A 
ATOM     21  C   UNL     1      52.585   3.806  17.919  0.00  0.00    +0.000 A 
ATOM     22  C   UNL     1      52.686   2.421  18.032  0.00  0.00    +0.000 A 
ATOM     23  C   UNL     1      51.596   1.646  17.682  0.00  0.00    +0.000 A 
ATOM     24  F   UNL     1      51.654   0.313  17.783  0.00  0.00    +0.000 F 
ATOM     25  C   UNL     1      50.450   2.271  17.230  0.00  0.00    +0.000 A 
ATOM     26  N   UNL     1      50.320   3.616  17.119  0.00  0.00    +0.000 NA
ENDBRANCH  18  20
ENDBRANCH  15  18
ENDBRANCH   1  16
TORSDOF 4
ENDMDL
MODEL 7
REMARK VINA RESULT:    -4.763      2.465      8.704
REMARK INTER + INTRA:          -6.554
REMARK INTER:                  -5.866
REMARK INTRA:                  -0.688
REMARK UNBOUND:                -0.677
REMARK  Name = 
REMARK  6 active torsions:
REMARK  status: ('A' for Active; 'I' for Inactive)
REMARK    1  A    between atoms: C_1  and  C_2
REMARK    2  A    between atoms: C_2  and  C_3
REMARK    3  A    between atoms: C_2  and  C_4
REMARK    4  A    between atoms: C_2  and  C_19
REMARK    5  A    between atoms: C_5  and  C_6
REMARK    6  A    between atoms: C_9  and  C_10
REMARK                            x       y       z     vdW  Elec       q    Type
REMARK                         _______ _______ _______ _____ _____    ______ ____
ROOT
ATOM      1  C   UNL     1      48.093   6.649  12.070  0.00  0.00    +0.000 C 
ATOM      2  C   UNL     1      47.542   5.840  13.270  0.00  0.00    +0.000 C 
ATOM      3  N   UNL     1      46.283   6.383  13.833  0.00  0.00    +0.000 NA
ATOM      4  C   UNL     1      45.286   6.507  12.732  0.00  0.00    +0.000 C 
ATOM      5  C   UNL     1      45.846   7.331  11.545  0.00  0.00    +0.000 C 
ATOM      6  O   UNL     1      47.108   6.854  11.048  0.00  0.00    +0.000 OA
ATOM      7  H   UNL     1      46.483   7.319  14.184  0.00  0.00    +0.000 HD
ENDROOT
BRANCH   4   8
ATOM      8  C   UNL     1      44.737   5.149  12.294  0.00  0.00    +0.000 A 
ATOM      9  C   UNL     1      44.596   4.869  10.931  0.00  0.00    +0.000 A 
ATOM     10  C   UNL     1      44.027   3.657  10.544  0.00  0.00    +0.000 A 
ATOM     11  C   UNL     1      43.617   2.769  11.525  0.00  0.00    +0.000 A 
ATOM     12  F   UNL     1      43.048   1.605  11.187  0.00  0.00    +0.000 F 
ATOM     13  C   UNL     1      43.794   3.102  12.851  0.00  0.00    +0.000 A 
ATOM     14  N   UNL     1      44.350   4.269  13.252  0.00  0.00    +0.000 NA
ENDBRANCH   4   8
BRANCH   1  16
ATOM     15  C   UNL     1      49.199   8.873  11.616  0.00  0.00    +0.000 C 
ATOM     16  C   UNL     1      48.624   8.000  12.457  0.00  0.00    +0.000 C 
BRANCH  15  18
ATOM     17  C   UNL     1      50.092  11.125  10.736  0.00  0.00    +0.000 C 
ATOM     18  C   UNL     1      49.570  10.317  11.949  0.00  0.00    +0.000 C 
ATOM     19  C   UNL     1      48.280  11.011  12.439  0.00  0.00    +0.000 C 
BRANCH  18  20
ATOM     20  C   UNL     1      50.670  10.315  13.028  0.00  0.00    +0.000 A 
ATOM     21  C   UNL     1      51.958   9.851  12.721  0.00  0.00    +0.000 A 
ATOM     22  C   UNL     1      52.950   9.875  13.698  0.00  0.00    +0.000 A 
ATOM     23  C   UNL     1      52.630  10.348  14.957  0.00  0.00    +0.000 A 
ATOM     24  F   UNL     1      53.559  10.392  15.920  0.00  0.00    +0.000 F 
ATOM     25  C   UNL     1      51.339  10.775  15.201  0.00  0.00    +0.000 A 
ATOM     26  N   UNL     1      50.356  10.772  14.268  0.00  0.00    +0.000 NA
ENDBRANCH  18  20
ENDBRANCH  15  18
ENDBRANCH   1  16
TORSDOF 4
ENDMDL
MODEL 8
REMARK VINA RESULT:    -4.669      4.592      5.974
REMARK INTER + INTRA:          -6.437
REMARK INTER:                  -5.824
REMARK INTRA:                  -0.614
REMARK UNBOUND:                -0.677
REMARK  Name = 
REMARK  6 active torsions:
REMARK  status: ('A' for Active; 'I' for Inactive)
REMARK    1  A    between atoms: C_1  and  C_2
REMARK    2  A    between atoms: C_2  and  C_3
REMARK    3  A    between atoms: C_2  and  C_4
REMARK    4  A    between atoms: C_2  and  C_19
REMARK    5  A    between atoms: C_5  and  C_6
REMARK    6  A    between atoms: C_9  and  C_10
REMARK                            x       y       z     vdW  Elec       q    Type
REMARK                         _______ _______ _______ _____ _____    ______ ____
ROOT
ATOM      1  C   UNL     1      50.293   7.011  15.494  0.00  0.00    +0.000 C 
ATOM      2  C   UNL     1      50.861   7.984  16.557  0.00  0.00    +0.000 C 
ATOM      3  N   UNL     1      49.925   8.276  17.667  0.00  0.00    +0.000 NA
ATOM      4  C   UNL     1      49.482   6.985  18.265  0.00  0.00    +0.000 C 
ATOM      5  C   UNL     1      48.902   6.028  17.194  0.00  0.00    +0.000 C 
ATOM      6  O   UNL     1      49.777   5.805  16.076  0.00  0.00    +0.000 OA
ATOM      7  H   UNL     1      49.107   8.733  17.265  0.00  0.00    +0.000 HD
ENDROOT
BRANCH   4   8
ATOM      8  C   UNL     1      50.581   6.329  19.103  0.00  0.00    +0.000 A 
ATOM      9  C   UNL     1      51.276   7.091  20.046  0.00  0.00    +0.000 A 
ATOM     10  C   UNL     1      52.324   6.503  20.752  0.00  0.00    +0.000 A 
ATOM     11  C   UNL     1      52.643   5.180  20.493  0.00  0.00    +0.000 A 
ATOM     12  F   UNL     1      53.658   4.591  21.139  0.00  0.00    +0.000 F 
ATOM     13  C   UNL     1      51.911   4.482  19.557  0.00  0.00    +0.000 A 
ATOM     14  N   UNL     1      50.885   5.028  18.864  0.00  0.00    +0.000 NA
ENDBRANCH   4   8
BRANCH   1  16
ATOM     15  C   UNL     1      48.731   7.104  13.512  0.00  0.00    +0.000 C 
ATOM     16  C   UNL     1      49.194   7.613  14.664  0.00  0.00    +0.000 C 
BRANCH  15  18
ATOM     17  C   UNL     1      46.655   8.632  13.539  0.00  0.00    +0.000 C 
ATOM     18  C   UNL     1      47.496   7.593  12.758  0.00  0.00    +0.000 C 
ATOM     19  C   UNL     1      47.999   8.285  11.473  0.00  0.00    +0.000 C 
BRANCH  18  20
ATOM     20  C   UNL     1      46.590   6.385  12.447  0.00  0.00    +0.000 A 
ATOM     21  C   UNL     1      46.119   6.174  11.142  0.00  0.00    +0.000 A 
ATOM     22  C   UNL     1      45.321   5.066  10.868  0.00  0.00    +0.000 A 
ATOM     23  C   UNL     1      45.001   4.207  11.904  0.00  0.00    +0.000 A 
ATOM     24  F   UNL     1      44.241   3.129  11.677  0.00  0.00    +0.000 F 
ATOM     25  C   UNL     1      45.482   4.480  13.169  0.00  0.00    +0.000 A 
ATOM     26  N   UNL     1      46.269   5.544  13.463  0.00  0.00    +0.000 NA
ENDBRANCH  18  20
ENDBRANCH  15  18
ENDBRANCH   1  16
TORSDOF 4
ENDMDL
MODEL 9
REMARK VINA RESULT:    -4.656     12.046     13.504
REMARK INTER + INTRA:          -6.421
REMARK INTER:                  -5.848
REMARK INTRA:                  -0.574
REMARK UNBOUND:                -0.677
REMARK  Name = 
REMARK  6 active torsions:
REMARK  status: ('A' for Active; 'I' for Inactive)
REMARK    1  A    between atoms: C_1  and  C_2
REMARK    2  A    between atoms: C_2  and  C_3
REMARK    3  A    between atoms: C_2  and  C_4
REMARK    4  A    between atoms: C_2  and  C_19
REMARK    5  A    between atoms: C_5  and  C_6
REMARK    6  A    between atoms: C_9  and  C_10
REMARK                            x       y       z     vdW  Elec       q    Type
REMARK                         _______ _______ _______ _____ _____    ______ ____
ROOT
ATOM      1  C   UNL     1      40.784  -2.100  16.993  0.00  0.00    +0.000 C 
ATOM      2  C   UNL     1      40.112  -1.652  15.673  0.00  0.00    +0.000 C 
ATOM      3  N   UNL     1      38.685  -2.035  15.563  0.00  0.00    +0.000 NA
ATOM      4  C   UNL     1      37.964  -1.526  16.763  0.00  0.00    +0.000 C 
ATOM      5  C   UNL     1      38.639  -1.995  18.077  0.00  0.00    +0.000 C 
ATOM      6  O   UNL     1      40.042  -1.693  18.151  0.00  0.00    +0.000 OA
ATOM      7  H   UNL     1      38.640  -3.054  15.578  0.00  0.00    +0.000 HD
ENDROOT
BRANCH   4   8
ATOM      8  C   UNL     1      37.764  -0.010  16.717  0.00  0.00    +0.000 A 
ATOM      9  C   UNL     1      37.166   0.572  15.595  0.00  0.00    +0.000 A 
ATOM     10  C   UNL     1      37.054   1.960  15.531  0.00  0.00    +0.000 A 
ATOM     11  C   UNL     1      37.543   2.718  16.583  0.00  0.00    +0.000 A 
ATOM     12  F   UNL     1      37.470   4.055  16.544  0.00  0.00    +0.000 F 
ATOM     13  C   UNL     1      38.112   2.080  17.664  0.00  0.00    +0.000 A 
ATOM     14  N   UNL     1      38.226   0.735  17.754  0.00  0.00    +0.000 NA
ENDBRANCH   4   8
BRANCH   1  16
ATOM     15  C   UNL     1      41.921  -4.285  16.434  0.00  0.00    +0.000 C 
ATOM     16  C   UNL     1      40.978  -3.588  17.086  0.00  0.00    +0.000 C 
BRANCH  15  18
ATOM     17  C   UNL     1      41.332  -6.457  17.689  0.00  0.00    +0.000 C 
ATOM     18  C   UNL     1      42.254  -5.758  16.660  0.00  0.00    +0.000 C 
ATOM     19  C   UNL     1      42.057  -6.476  15.307  0.00  0.00    +0.000 C 
BRANCH  18  20
ATOM     20  C   UNL     1      43.705  -5.871  17.168  0.00  0.00    +0.000 A 
ATOM     21  C   UNL     1      44.193  -4.957  18.115  0.00  0.00    +0.000 A 
ATOM     22  C   UNL     1      45.499  -5.083  18.584  0.00  0.00    +0.000 A 
ATOM     23  C   UNL     1      46.286  -6.106  18.088  0.00  0.00    +0.000 A 
ATOM     24  F   UNL     1      47.543  -6.262  18.519  0.00  0.00    +0.000 F 
ATOM     25  C   UNL     1      45.752  -6.962  17.145  0.00  0.00    +0.000 A 
ATOM     26  N   UNL     1      44.482  -6.870  16.677  0.00  0.00    +0.000 NA
ENDBRANCH  18  20
ENDBRANCH  15  18
ENDBRANCH   1  16
TORSDOF 4
ENDMDL
