MODEL 1
REMARK VINA RESULT:    -9.041      0.000      0.000
REMARK INTER + INTRA:         -12.244
REMARK INTER:                 -11.420
REMARK INTRA:                  -0.825
REMARK UNBOUND:                -0.825
REMARK  Name = 
REMARK  5 active torsions:
REMARK  status: ('A' for Active; 'I' for Inactive)
REMARK    1  A    between atoms: C_2  and  C_4
REMARK    2  A    between atoms: N_8  and  C_9
REMARK    3  A    between atoms: C_9  and  C_10
REMARK    4  A    between atoms: C_14  and  N_15
REMARK    5  A    between atoms: C_18  and  O_19
REMARK                            x       y       z     vdW  Elec       q    Type
REMARK                         _______ _______ _______ _____ _____    ______ ____
ROOT
ATOM      1  C   UNL     1      43.398   4.586  11.116  0.00  0.00    +0.000 C 
ENDROOT
BRANCH   1   6
ATOM      2  C   UNL     1      46.392   2.305   7.694  0.00  0.00    +0.000 A 
ATOM      3  C   UNL     1      45.600   1.764   8.701  0.00  0.00    +0.000 A 
ATOM      4  C   UNL     1      44.741   2.602   9.412  0.00  0.00    +0.000 A 
ATOM      5  C   UNL     1      44.681   3.965   9.118  0.00  0.00    +0.000 A 
ATOM      6  N   UNL     1      43.794   4.825   9.745  0.00  0.00    +0.000 N 
ATOM      7  N   UNL     1      45.451   4.497   8.148  0.00  0.00    +0.000 NA
ATOM      8  C   UNL     1      46.292   3.668   7.466  0.00  0.00    +0.000 A 
ATOM      9  H   UNL     1      43.923   5.786   9.447  0.00  0.00    +0.000 HD
BRANCH   2  11
ATOM     10  N   UNL     1      48.490   2.073   6.497  0.00  0.00    +0.000 N 
ATOM     11  C   UNL     1      47.336   1.483   6.917  0.00  0.00    +0.000 C 
ATOM     12  O   UNL     1      47.099   0.297   6.670  0.00  0.00    +0.000 OA
ATOM     13  H   UNL     1      49.166   1.487   6.030  0.00  0.00    +0.000 HD
ATOM     14  H   UNL     1      48.821   2.957   6.875  0.00  0.00    +0.000 HD
ENDBRANCH   2  11
ENDBRANCH   1   6
BRANCH   1  15
ATOM     15  C   UNL     1      44.491   4.901  12.110  0.00  0.00    +0.000 A 
ATOM     16  C   UNL     1      45.258   3.865  12.656  0.00  0.00    +0.000 A 
ATOM     17  C   UNL     1      46.386   4.154  13.422  0.00  0.00    +0.000 A 
ATOM     18  C   UNL     1      46.766   5.474  13.620  0.00  0.00    +0.000 A 
ATOM     19  C   UNL     1      46.032   6.540  13.087  0.00  0.00    +0.000 A 
ATOM     20  C   UNL     1      44.855   6.228  12.381  0.00  0.00    +0.000 A 
BRANCH  19  21
ATOM     21  N   UNL     1      46.485   7.838  13.198  0.00  0.00    +0.000 N 
ATOM     22  C   UNL     1      47.894   8.096  13.461  0.00  0.00    +0.000 C 
ATOM     23  C   UNL     1      48.463   8.940  12.329  0.00  0.00    +0.000 C 
ATOM     24  C   UNL     1      47.633  10.200  12.090  0.00  0.00    +0.000 C 
ATOM     25  C   UNL     1      46.148   9.890  11.902  0.00  0.00    +0.000 C 
ATOM     26  C   UNL     1      45.601   8.986  13.002  0.00  0.00    +0.000 C 
BRANCH  24  27
ATOM     27  O   UNL     1      47.825  11.134  13.153  0.00  0.00    +0.000 OA
ATOM     28  H   UNL     1      48.770  11.161  13.382  0.00  0.00    +0.000 HD
ENDBRANCH  24  27
ENDBRANCH  19  21
ENDBRANCH   1  15
TORSDOF 5
ENDMDL
MODEL 2
REMARK VINA RESULT:    -8.620      0.835      1.328
REMARK INTER + INTRA:         -11.712
REMARK INTER:                 -10.805
REMARK INTRA:                  -0.908
REMARK UNBOUND:                -0.825
REMARK  Name = 
REMARK  5 active torsions:
REMARK  status: ('A' for Active; 'I' for Inactive)
REMARK    1  A    between atoms: C_2  and  C_4
REMARK    2  A    between atoms: N_8  and  C_9
REMARK    3  A    between atoms: C_9  and  C_10
REMARK    4  A    between atoms: C_14  and  N_15
REMARK    5  A    between atoms: C_18  and  O_19
REMARK                            x       y       z     vdW  Elec       q    Type
REMARK                         _______ _______ _______ _____ _____    ______ ____
ROOT
ATOM      1  C   UNL     1      43.459   4.668  11.122  0.00  0.00    +0.000 C 
ENDROOT
BRANCH   1   6
ATOM      2  C   UNL     1      46.385   2.309   7.693  0.00  0.00    +0.000 A 
ATOM      3  C   UNL     1      45.647   1.795   8.755  0.00  0.00    +0.000 A 
ATOM      4  C   UNL     1      44.793   2.643   9.459  0.00  0.00    +0.000 A 
ATOM      5  C   UNL     1      44.682   3.988   9.106  0.00  0.00    +0.000 A 
ATOM      6  N   UNL     1      43.796   4.852   9.727  0.00  0.00    +0.000 N 
ATOM      7  N   UNL     1      45.399   4.494   8.083  0.00  0.00    +0.000 NA
ATOM      8  C   UNL     1      46.237   3.656   7.407  0.00  0.00    +0.000 A 
ATOM      9  H   UNL     1      43.886   5.802   9.380  0.00  0.00    +0.000 HD
BRANCH   2  11
ATOM     10  N   UNL     1      48.435   2.079   6.417  0.00  0.00    +0.000 N 
ATOM     11  C   UNL     1      47.322   1.477   6.919  0.00  0.00    +0.000 C 
ATOM     12  O   UNL     1      47.114   0.272   6.745  0.00  0.00    +0.000 OA
ATOM     13  H   UNL     1      49.109   1.490   5.951  0.00  0.00    +0.000 HD
ATOM     14  H   UNL     1      48.752   2.992   6.733  0.00  0.00    +0.000 HD
ENDBRANCH   2  11
ENDBRANCH   1   6
BRANCH   1  15
ATOM     15  C   UNL     1      44.596   5.016  12.054  0.00  0.00    +0.000 A 
ATOM     16  C   UNL     1      45.098   4.049  12.933  0.00  0.00    +0.000 A 
ATOM     17  C   UNL     1      46.263   4.296  13.658  0.00  0.00    +0.000 A 
ATOM     18  C   UNL     1      46.942   5.494  13.486  0.00  0.00    +0.000 A 
ATOM     19  C   UNL     1      46.479   6.485  12.613  0.00  0.00    +0.000 A 
ATOM     20  C   UNL     1      45.261   6.245  11.948  0.00  0.00    +0.000 A 
BRANCH  19  21
ATOM     21  N   UNL     1      47.224   7.620  12.370  0.00  0.00    +0.000 N 
ATOM     22  C   UNL     1      46.854   8.881  12.998  0.00  0.00    +0.000 C 
ATOM     23  C   UNL     1      48.021   9.376  13.841  0.00  0.00    +0.000 C 
ATOM     24  C   UNL     1      49.316   9.439  13.034  0.00  0.00    +0.000 C 
ATOM     25  C   UNL     1      49.623   8.120  12.325  0.00  0.00    +0.000 C 
ATOM     26  C   UNL     1      48.426   7.593  11.539  0.00  0.00    +0.000 C 
BRANCH  24  27
ATOM     27  O   UNL     1      49.270  10.518  12.101  0.00  0.00    +0.000 OA
ATOM     28  H   UNL     1      49.950  11.171  12.340  0.00  0.00    +0.000 HD
ENDBRANCH  24  27
ENDBRANCH  19  21
ENDBRANCH   1  15
TORSDOF 5
ENDMDL
MODEL 3
REMARK VINA RESULT:    -8.481      2.302      3.386
REMARK INTER + INTRA:         -11.537
REMARK INTER:                 -10.674
REMARK INTRA:                  -0.863
REMARK UNBOUND:                -0.825
REMARK  Name = 
REMARK  5 active torsions:
REMARK  status: ('A' for Active; 'I' for Inactive)
REMARK    1  A    between atoms: C_2  and  C_4
REMARK    2  A    between atoms: N_8  and  C_9
REMARK    3  A    between atoms: C_9  and  C_10
REMARK    4  A    between atoms: C_14  and  N_15
REMARK    5  A    between atoms: C_18  and  O_19
REMARK                            x       y       z     vdW  Elec       q    Type
REMARK                         _______ _______ _______ _____ _____    ______ ____
ROOT
ATOM      1  C   UNL     1      43.654   5.188  10.938  0.00  0.00    +0.000 C 
ENDROOT
BRANCH   1   6
ATOM      2  C   UNL     1      46.196   1.972   7.924  0.00  0.00    +0.000 A 
ATOM      3  C   UNL     1      45.530   1.747   9.124  0.00  0.00    +0.000 A 
ATOM      4  C   UNL     1      44.768   2.775   9.680  0.00  0.00    +0.000 A 
ATOM      5  C   UNL     1      44.681   4.014   9.043  0.00  0.00    +0.000 A 
ATOM      6  N   UNL     1      43.882   5.041   9.517  0.00  0.00    +0.000 N 
ATOM      7  N   UNL     1      45.330   4.241   7.884  0.00  0.00    +0.000 NA
ATOM      8  C   UNL     1      46.077   3.230   7.354  0.00  0.00    +0.000 A 
ATOM      9  H   UNL     1      43.980   5.885   8.961  0.00  0.00    +0.000 HD
BRANCH   2  11
ATOM     10  N   UNL     1      46.776  -0.361   7.600  0.00  0.00    +0.000 N 
ATOM     11  C   UNL     1      47.034   0.940   7.291  0.00  0.00    +0.000 C 
ATOM     12  O   UNL     1      47.927   1.241   6.493  0.00  0.00    +0.000 OA
ATOM     13  H   UNL     1      47.303  -1.067   7.108  0.00  0.00    +0.000 HD
ATOM     14  H   UNL     1      45.916  -0.654   8.056  0.00  0.00    +0.000 HD
ENDBRANCH   2  11
ENDBRANCH   1   6
BRANCH   1  15
ATOM     15  C   UNL     1      44.706   6.031  11.620  0.00  0.00    +0.000 A 
ATOM     16  C   UNL     1      44.586   7.426  11.628  0.00  0.00    +0.000 A 
ATOM     17  C   UNL     1      45.440   8.200  12.412  0.00  0.00    +0.000 A 
ATOM     18  C   UNL     1      46.394   7.583  13.208  0.00  0.00    +0.000 A 
ATOM     19  C   UNL     1      46.544   6.192  13.235  0.00  0.00    +0.000 A 
ATOM     20  C   UNL     1      45.722   5.435  12.380  0.00  0.00    +0.000 A 
BRANCH  19  21
ATOM     21  N   UNL     1      47.421   5.591  14.116  0.00  0.00    +0.000 N 
ATOM     22  C   UNL     1      48.605   6.308  14.566  0.00  0.00    +0.000 C 
ATOM     23  C   UNL     1      48.565   6.429  16.082  0.00  0.00    +0.000 C 
ATOM     24  C   UNL     1      48.367   5.071  16.754  0.00  0.00    +0.000 C 
ATOM     25  C   UNL     1      47.161   4.317  16.193  0.00  0.00    +0.000 C 
ATOM     26  C   UNL     1      47.171   4.261  14.669  0.00  0.00    +0.000 C 
BRANCH  24  27
ATOM     27  O   UNL     1      49.553   4.283  16.646  0.00  0.00    +0.000 OA
ATOM     28  H   UNL     1      50.326   4.857  16.781  0.00  0.00    +0.000 HD
ENDBRANCH  24  27
ENDBRANCH  19  21
ENDBRANCH   1  15
TORSDOF 5
ENDMDL
MODEL 4
REMARK VINA RESULT:    -7.366      3.028      4.292
REMARK INTER + INTRA:         -10.129
REMARK INTER:                  -9.318
REMARK INTRA:                  -0.811
REMARK UNBOUND:                -0.825
REMARK  Name = 
REMARK  5 active torsions:
REMARK  status: ('A' for Active; 'I' for Inactive)
REMARK    1  A    between atoms: C_2  and  C_4
REMARK    2  A    between atoms: N_8  and  C_9
REMARK    3  A    between atoms: C_9  and  C_10
REMARK    4  A    between atoms: C_14  and  N_15
REMARK    5  A    between atoms: C_18  and  O_19
REMARK                            x       y       z     vdW  Elec       q    Type
REMARK                         _______ _______ _______ _____ _____    ______ ____
ROOT
ATOM      1  C   UNL     1      44.778   6.006  12.005  0.00  0.00    +0.000 C 
ENDROOT
BRANCH   1   6
ATOM      2  C   UNL     1      46.012   2.643   8.392  0.00  0.00    +0.000 A 
ATOM      3  C   UNL     1      45.398   2.456   9.626  0.00  0.00    +0.000 A 
ATOM      4  C   UNL     1      45.023   3.573  10.373  0.00  0.00    +0.000 A 
ATOM      5  C   UNL     1      45.264   4.860   9.890  0.00  0.00    +0.000 A 
ATOM      6  N   UNL     1      44.848   5.998  10.560  0.00  0.00    +0.000 N 
ATOM      7  N   UNL     1      45.865   5.048   8.699  0.00  0.00    +0.000 NA
ATOM      8  C   UNL     1      46.234   3.948   7.981  0.00  0.00    +0.000 A 
ATOM      9  H   UNL     1      45.153   6.846  10.093  0.00  0.00    +0.000 HD
BRANCH   2  11
ATOM     10  N   UNL     1      46.895   1.786   6.301  0.00  0.00    +0.000 N 
ATOM     11  C   UNL     1      46.453   1.511   7.560  0.00  0.00    +0.000 C 
ATOM     12  O   UNL     1      46.438   0.355   7.993  0.00  0.00    +0.000 OA
ATOM     13  H   UNL     1      47.264   1.017   5.762  0.00  0.00    +0.000 HD
ATOM     14  H   UNL     1      47.139   2.726   6.001  0.00  0.00    +0.000 HD
ENDBRANCH   2  11
ENDBRANCH   1   6
BRANCH   1  15
ATOM     15  C   UNL     1      46.137   6.085  12.660  0.00  0.00    +0.000 A 
ATOM     16  C   UNL     1      47.088   6.999  12.189  0.00  0.00    +0.000 A 
ATOM     17  C   UNL     1      48.267   7.215  12.899  0.00  0.00    +0.000 A 
ATOM     18  C   UNL     1      48.486   6.543  14.093  0.00  0.00    +0.000 A 
ATOM     19  C   UNL     1      47.560   5.626  14.604  0.00  0.00    +0.000 A 
ATOM     20  C   UNL     1      46.412   5.367  13.833  0.00  0.00    +0.000 A 
BRANCH  19  21
ATOM     21  N   UNL     1      47.742   5.052  15.845  0.00  0.00    +0.000 N 
ATOM     22  C   UNL     1      47.181   3.738  16.128  0.00  0.00    +0.000 C 
ATOM     23  C   UNL     1      48.307   2.790  16.513  0.00  0.00    +0.000 C 
ATOM     24  C   UNL     1      49.164   3.357  17.643  0.00  0.00    +0.000 C 
ATOM     25  C   UNL     1      49.664   4.769  17.340  0.00  0.00    +0.000 C 
ATOM     26  C   UNL     1      48.541   5.697  16.886  0.00  0.00    +0.000 C 
BRANCH  24  27
ATOM     27  O   UNL     1      48.446   3.327  18.877  0.00  0.00    +0.000 OA
ATOM     28  H   UNL     1      48.971   2.841  19.535  0.00  0.00    +0.000 HD
ENDBRANCH  24  27
ENDBRANCH  19  21
ENDBRANCH   1  15
TORSDOF 5
ENDMDL
MODEL 5
REMARK VINA RESULT:    -7.035      2.087      7.058
REMARK INTER + INTRA:          -9.710
REMARK INTER:                  -8.862
REMARK INTRA:                  -0.848
REMARK UNBOUND:                -0.825
REMARK  Name = 
REMARK  5 active torsions:
REMARK  status: ('A' for Active; 'I' for Inactive)
REMARK    1  A    between atoms: C_2  and  C_4
REMARK    2  A    between atoms: N_8  and  C_9
REMARK    3  A    between atoms: C_9  and  C_10
REMARK    4  A    between atoms: C_14  and  N_15
REMARK    5  A    between atoms: C_18  and  O_19
REMARK                            x       y       z     vdW  Elec       q    Type
REMARK                         _______ _______ _______ _____ _____    ______ ____
ROOT
ATOM      1  C   UNL     1      45.084   6.237  12.854  0.00  0.00    +0.000 C 
ENDROOT
BRANCH   1   6
ATOM      2  C   UNL     1      49.744   8.132  12.096  0.00  0.00    +0.000 A 
ATOM      3  C   UNL     1      48.499   8.620  11.713  0.00  0.00    +0.000 A 
ATOM      4  C   UNL     1      47.348   7.988  12.185  0.00  0.00    +0.000 A 
ATOM      5  C   UNL     1      47.446   6.879  13.026  0.00  0.00    +0.000 A 
ATOM      6  N   UNL     1      46.336   6.261  13.578  0.00  0.00    +0.000 N 
ATOM      7  N   UNL     1      48.649   6.397  13.395  0.00  0.00    +0.000 NA
ATOM      8  C   UNL     1      49.766   7.019  12.921  0.00  0.00    +0.000 A 
ATOM      9  H   UNL     1      46.589   5.442  14.121  0.00  0.00    +0.000 HD
BRANCH   2  11
ATOM     10  N   UNL     1      52.143   8.012  11.758  0.00  0.00    +0.000 N 
ATOM     11  C   UNL     1      50.999   8.737  11.619  0.00  0.00    +0.000 C 
ATOM     12  O   UNL     1      51.013   9.856  11.097  0.00  0.00    +0.000 OA
ATOM     13  H   UNL     1      52.988   8.398  11.365  0.00  0.00    +0.000 HD
ATOM     14  H   UNL     1      52.137   7.015  11.961  0.00  0.00    +0.000 HD
ENDBRANCH   2  11
ENDBRANCH   1   6
BRANCH   1  15
ATOM     15  C   UNL     1      44.764   4.878  12.275  0.00  0.00    +0.000 A 
ATOM     16  C   UNL     1      43.844   4.043  12.920  0.00  0.00    +0.000 A 
ATOM     17  C   UNL     1      43.400   2.877  12.300  0.00  0.00    +0.000 A 
ATOM     18  C   UNL     1      43.850   2.557  11.027  0.00  0.00    +0.000 A 
ATOM     19  C   UNL     1      44.765   3.366  10.344  0.00  0.00    +0.000 A 
ATOM     20  C   UNL     1      45.258   4.499  11.018  0.00  0.00    +0.000 A 
BRANCH  19  21
ATOM     21  N   UNL     1      45.115   3.093   9.037  0.00  0.00    +0.000 N 
ATOM     22  C   UNL     1      45.355   4.186   8.105  0.00  0.00    +0.000 C 
ATOM     23  C   UNL     1      46.776   4.077   7.570  0.00  0.00    +0.000 C 
ATOM     24  C   UNL     1      47.059   2.693   6.991  0.00  0.00    +0.000 C 
ATOM     25  C   UNL     1      46.715   1.572   7.973  0.00  0.00    +0.000 C 
ATOM     26  C   UNL     1      45.315   1.726   8.560  0.00  0.00    +0.000 C 
BRANCH  24  27
ATOM     27  O   UNL     1      46.364   2.516   5.756  0.00  0.00    +0.000 OA
ATOM     28  H   UNL     1      45.831   3.308   5.578  0.00  0.00    +0.000 HD
ENDBRANCH  24  27
ENDBRANCH  19  21
ENDBRANCH   1  15
TORSDOF 5
ENDMDL
MODEL 6
REMARK VINA RESULT:    -7.010      1.953      3.018
REMARK INTER + INTRA:          -9.679
REMARK INTER:                  -9.076
REMARK INTRA:                  -0.603
REMARK UNBOUND:                -0.825
REMARK  Name = 
REMARK  5 active torsions:
REMARK  status: ('A' for Active; 'I' for Inactive)
REMARK    1  A    between atoms: C_2  and  C_4
REMARK    2  A    between atoms: N_8  and  C_9
REMARK    3  A    between atoms: C_9  and  C_10
REMARK    4  A    between atoms: C_14  and  N_15
REMARK    5  A    between atoms: C_18  and  O_19
REMARK                            x       y       z     vdW  Elec       q    Type
REMARK                         _______ _______ _______ _____ _____    ______ ____
ROOT
ATOM      1  C   UNL     1      43.899   5.779  11.017  0.00  0.00    +0.000 C 
ENDROOT
BRANCH   1   6
ATOM      2  C   UNL     1      46.274   2.800   7.646  0.00  0.00    +0.000 A 
ATOM      3  C   UNL     1      46.272   4.184   7.782  0.00  0.00    +0.000 A 
ATOM      4  C   UNL     1      45.660   4.755   8.897  0.00  0.00    +0.000 A 
ATOM      5  C   UNL     1      45.054   3.948   9.862  0.00  0.00    +0.000 A 
ATOM      6  N   UNL     1      44.497   4.462  11.020  0.00  0.00    +0.000 N 
ATOM      7  N   UNL     1      45.046   2.607   9.733  0.00  0.00    +0.000 NA
ATOM      8  C   UNL     1      45.642   2.061   8.633  0.00  0.00    +0.000 A 
ATOM      9  H   UNL     1      44.056   3.740  11.581  0.00  0.00    +0.000 HD
BRANCH   2  11
ATOM     10  N   UNL     1      47.161   2.891   5.390  0.00  0.00    +0.000 N 
ATOM     11  C   UNL     1      46.884   2.130   6.484  0.00  0.00    +0.000 C 
ATOM     12  O   UNL     1      47.149   0.924   6.508  0.00  0.00    +0.000 OA
ATOM     13  H   UNL     1      47.646   2.444   4.626  0.00  0.00    +0.000 HD
ATOM     14  H   UNL     1      47.176   3.907   5.420  0.00  0.00    +0.000 HD
ENDBRANCH   2  11
ENDBRANCH   1   6
BRANCH   1  15
ATOM     15  C   UNL     1      44.866   6.867  11.420  0.00  0.00    +0.000 A 
ATOM     16  C   UNL     1      44.461   8.207  11.392  0.00  0.00    +0.000 A 
ATOM     17  C   UNL     1      45.274   9.198  11.939  0.00  0.00    +0.000 A 
ATOM     18  C   UNL     1      46.476   8.852  12.538  0.00  0.00    +0.000 A 
ATOM     19  C   UNL     1      46.917   7.524  12.593  0.00  0.00    +0.000 A 
ATOM     20  C   UNL     1      46.116   6.549  11.968  0.00  0.00    +0.000 A 
BRANCH  19  21
ATOM     21  N   UNL     1      48.059   7.185  13.290  0.00  0.00    +0.000 N 
ATOM     22  C   UNL     1      49.308   7.883  13.022  0.00  0.00    +0.000 C 
ATOM     23  C   UNL     1      49.794   8.539  14.307  0.00  0.00    +0.000 C 
ATOM     24  C   UNL     1      49.875   7.538  15.458  0.00  0.00    +0.000 C 
ATOM     25  C   UNL     1      48.568   6.768  15.650  0.00  0.00    +0.000 C 
ATOM     26  C   UNL     1      48.049   6.173  14.345  0.00  0.00    +0.000 C 
BRANCH  24  27
ATOM     27  O   UNL     1      50.968   6.641  15.264  0.00  0.00    +0.000 OA
ATOM     28  H   UNL     1      50.995   6.013  16.006  0.00  0.00    +0.000 HD
ENDBRANCH  24  27
ENDBRANCH  19  21
ENDBRANCH   1  15
TORSDOF 5
ENDMDL
MODEL 7
REMARK VINA RESULT:    -6.918      3.806      8.136
REMARK INTER + INTRA:          -9.562
REMARK INTER:                  -8.983
REMARK INTRA:                  -0.579
REMARK UNBOUND:                -0.825
REMARK  Name = 
REMARK  5 active torsions:
REMARK  status: ('A' for Active; 'I' for Inactive)
REMARK    1  A    between atoms: C_2  and  C_4
REMARK    2  A    between atoms: N_8  and  C_9
REMARK    3  A    between atoms: C_9  and  C_10
REMARK    4  A    between atoms: C_14  and  N_15
REMARK    5  A    between atoms: C_18  and  O_19
REMARK                            x       y       z     vdW  Elec       q    Type
REMARK                         _______ _______ _______ _____ _____    ______ ____
ROOT
ATOM      1  C   UNL     1      46.245   5.046  13.651  0.00  0.00    +0.000 C 
ENDROOT
BRANCH   1   6
ATOM      2  C   UNL     1      49.448   4.089  17.486  0.00  0.00    +0.000 A 
ATOM      3  C   UNL     1      48.947   5.296  17.009  0.00  0.00    +0.000 A 
ATOM      4  C   UNL     1      47.949   5.279  16.035  0.00  0.00    +0.000 A 
ATOM      5  C   UNL     1      47.463   4.067  15.543  0.00  0.00    +0.000 A 
ATOM      6  N   UNL     1      46.425   3.996  14.630  0.00  0.00    +0.000 N 
ATOM      7  N   UNL     1      47.948   2.894  15.995  0.00  0.00    +0.000 NA
ATOM      8  C   UNL     1      48.930   2.924  16.943  0.00  0.00    +0.000 A 
ATOM      9  H   UNL     1      46.236   3.041  14.343  0.00  0.00    +0.000 HD
BRANCH   2  11
ATOM     10  N   UNL     1      50.204   4.410  19.769  0.00  0.00    +0.000 N 
ATOM     11  C   UNL     1      50.516   4.032  18.499  0.00  0.00    +0.000 C 
ATOM     12  O   UNL     1      51.650   3.639  18.211  0.00  0.00    +0.000 OA
ATOM     13  H   UNL     1      50.917   4.300  20.474  0.00  0.00    +0.000 HD
ATOM     14  H   UNL     1      49.243   4.510  20.089  0.00  0.00    +0.000 HD
ENDBRANCH   2  11
ENDBRANCH   1   6
BRANCH   1  15
ATOM     15  C   UNL     1      45.154   4.740  12.651  0.00  0.00    +0.000 A 
ATOM     16  C   UNL     1      43.870   5.264  12.837  0.00  0.00    +0.000 A 
ATOM     17  C   UNL     1      42.912   5.149  11.831  0.00  0.00    +0.000 A 
ATOM     18  C   UNL     1      43.242   4.538  10.630  0.00  0.00    +0.000 A 
ATOM     19  C   UNL     1      44.516   4.006  10.400  0.00  0.00    +0.000 A 
ATOM     20  C   UNL     1      45.445   4.066  11.456  0.00  0.00    +0.000 A 
BRANCH  19  21
ATOM     21  N   UNL     1      44.861   3.503   9.162  0.00  0.00    +0.000 N 
ATOM     22  C   UNL     1      45.400   4.390   8.141  0.00  0.00    +0.000 C 
ATOM     23  C   UNL     1      46.781   3.898   7.734  0.00  0.00    +0.000 C 
ATOM     24  C   UNL     1      46.762   2.425   7.331  0.00  0.00    +0.000 C 
ATOM     25  C   UNL     1      46.113   1.540   8.396  0.00  0.00    +0.000 C 
ATOM     26  C   UNL     1      44.760   2.078   8.851  0.00  0.00    +0.000 C 
BRANCH  24  27
ATOM     27  O   UNL     1      46.111   2.261   6.071  0.00  0.00    +0.000 OA
ATOM     28  H   UNL     1      45.322   1.707   6.194  0.00  0.00    +0.000 HD
ENDBRANCH  24  27
ENDBRANCH  19  21
ENDBRANCH   1  15
TORSDOF 5
ENDMDL
MODEL 8
REMARK VINA RESULT:    -6.715      5.035      7.963
REMARK INTER + INTRA:          -9.306
REMARK INTER:                  -8.525
REMARK INTRA:                  -0.781
REMARK UNBOUND:                -0.825
REMARK  Name = 
REMARK  5 active torsions:
REMARK  status: ('A' for Active; 'I' for Inactive)
REMARK    1  A    between atoms: C_2  and  C_4
REMARK    2  A    between atoms: N_8  and  C_9
REMARK    3  A    between atoms: C_9  and  C_10
REMARK    4  A    between atoms: C_14  and  N_15
REMARK    5  A    between atoms: C_18  and  O_19
REMARK                            x       y       z     vdW  Elec       q    Type
REMARK                         _______ _______ _______ _____ _____    ______ ____
ROOT
ATOM      1  C   UNL     1      48.662   6.704  15.933  0.00  0.00    +0.000 C 
ENDROOT
BRANCH   1   6
ATOM      2  C   UNL     1      51.137   2.534  17.473  0.00  0.00    +0.000 A 
ATOM      3  C   UNL     1      51.513   3.873  17.513  0.00  0.00    +0.000 A 
ATOM      4  C   UNL     1      50.580   4.851  17.170  0.00  0.00    +0.000 A 
ATOM      5  C   UNL     1      49.287   4.490  16.787  0.00  0.00    +0.000 A 
ATOM      6  N   UNL     1      48.305   5.425  16.506  0.00  0.00    +0.000 N 
ATOM      7  N   UNL     1      48.918   3.195  16.739  0.00  0.00    +0.000 NA
ATOM      8  C   UNL     1      49.842   2.248  17.070  0.00  0.00    +0.000 A 
ATOM      9  H   UNL     1      47.443   4.987  16.195  0.00  0.00    +0.000 HD
BRANCH   2  11
ATOM     10  N   UNL     1      51.550   0.249  18.175  0.00  0.00    +0.000 N 
ATOM     11  C   UNL     1      52.076   1.449  17.803  0.00  0.00    +0.000 C 
ATOM     12  O   UNL     1      53.297   1.614  17.727  0.00  0.00    +0.000 OA
ATOM     13  H   UNL     1      52.194  -0.512  18.328  0.00  0.00    +0.000 HD
ATOM     14  H   UNL     1      50.573   0.009  18.022  0.00  0.00    +0.000 HD
ENDBRANCH   2  11
ENDBRANCH   1   6
BRANCH   1  15
ATOM     15  C   UNL     1      48.230   6.847  14.492  0.00  0.00    +0.000 A 
ATOM     16  C   UNL     1      49.060   7.506  13.577  0.00  0.00    +0.000 A 
ATOM     17  C   UNL     1      48.765   7.478  12.215  0.00  0.00    +0.000 A 
ATOM     18  C   UNL     1      47.660   6.771  11.763  0.00  0.00    +0.000 A 
ATOM     19  C   UNL     1      46.808   6.092  12.642  0.00  0.00    +0.000 A 
ATOM     20  C   UNL     1      47.082   6.197  14.019  0.00  0.00    +0.000 A 
BRANCH  19  21
ATOM     21  N   UNL     1      45.781   5.303  12.167  0.00  0.00    +0.000 N 
ATOM     22  C   UNL     1      45.297   4.184  12.962  0.00  0.00    +0.000 C 
ATOM     23  C   UNL     1      43.815   4.384  13.249  0.00  0.00    +0.000 C 
ATOM     24  C   UNL     1      43.019   4.628  11.968  0.00  0.00    +0.000 C 
ATOM     25  C   UNL     1      43.611   5.757  11.123  0.00  0.00    +0.000 C 
ATOM     26  C   UNL     1      45.111   5.587  10.899  0.00  0.00    +0.000 C 
BRANCH  24  27
ATOM     27  O   UNL     1      42.916   3.425  11.207  0.00  0.00    +0.000 OA
ATOM     28  H   UNL     1      42.678   3.651  10.292  0.00  0.00    +0.000 HD
ENDBRANCH  24  27
ENDBRANCH  19  21
ENDBRANCH   1  15
TORSDOF 5
ENDMDL
MODEL 9
REMARK VINA RESULT:    -6.541      4.035      6.380
REMARK INTER + INTRA:          -9.086
REMARK INTER:                  -8.270
REMARK INTRA:                  -0.816
REMARK UNBOUND:                -0.825
REMARK  Name = 
REMARK  5 active torsions:
REMARK  status: ('A' for Active; 'I' for Inactive)
REMARK    1  A    between atoms: C_2  and  C_4
REMARK    2  A    between atoms: N_8  and  C_9
REMARK    3  A    between atoms: C_9  and  C_10
REMARK    4  A    between atoms: C_14  and  N_15
REMARK    5  A    between atoms: C_18  and  O_19
REMARK                            x       y       z     vdW  Elec       q    Type
REMARK                         _______ _______ _______ _____ _____    ______ ____
ROOT
ATOM      1  C   UNL     1      48.823   7.437  13.089  0.00  0.00    +0.000 C 
ENDROOT
BRANCH   1   6
ATOM      2  C   UNL     1      45.029   4.294  11.819  0.00  0.00    +0.000 A 
ATOM      3  C   UNL     1      45.942   4.228  12.867  0.00  0.00    +0.000 A 
ATOM      4  C   UNL     1      46.794   5.310  13.092  0.00  0.00    +0.000 A 
ATOM      5  C   UNL     1      46.734   6.440  12.276  0.00  0.00    +0.000 A 
ATOM      6  N   UNL     1      47.507   7.566  12.502  0.00  0.00    +0.000 N 
ATOM      7  N   UNL     1      45.857   6.507  11.254  0.00  0.00    +0.000 NA
ATOM      8  C   UNL     1      45.034   5.440  11.039  0.00  0.00    +0.000 A 
ATOM      9  H   UNL     1      47.373   8.269  11.783  0.00  0.00    +0.000 HD
BRANCH   2  11
ATOM     10  N   UNL     1      43.713   2.388  12.540  0.00  0.00    +0.000 N 
ATOM     11  C   UNL     1      44.114   3.182  11.510  0.00  0.00    +0.000 C 
ATOM     12  O   UNL     1      43.710   2.987  10.359  0.00  0.00    +0.000 OA
ATOM     13  H   UNL     1      43.030   1.675  12.337  0.00  0.00    +0.000 HD
ATOM     14  H   UNL     1      43.832   2.655  13.514  0.00  0.00    +0.000 HD
ENDBRANCH   2  11
ENDBRANCH   1   6
BRANCH   1  15
ATOM     15  C   UNL     1      48.838   7.723  14.573  0.00  0.00    +0.000 A 
ATOM     16  C   UNL     1      48.576   9.018  15.036  0.00  0.00    +0.000 A 
ATOM     17  C   UNL     1      48.400   9.253  16.399  0.00  0.00    +0.000 A 
ATOM     18  C   UNL     1      48.456   8.195  17.295  0.00  0.00    +0.000 A 
ATOM     19  C   UNL     1      48.709   6.885  16.873  0.00  0.00    +0.000 A 
ATOM     20  C   UNL     1      48.959   6.682  15.503  0.00  0.00    +0.000 A 
BRANCH  19  21
ATOM     21  N   UNL     1      48.650   5.831  17.762  0.00  0.00    +0.000 N 
ATOM     22  C   UNL     1      47.364   5.242  18.108  0.00  0.00    +0.000 C 
ATOM     23  C   UNL     1      47.379   3.766  17.738  0.00  0.00    +0.000 C 
ATOM     24  C   UNL     1      48.579   3.042  18.347  0.00  0.00    +0.000 C 
ATOM     25  C   UNL     1      49.901   3.740  18.028  0.00  0.00    +0.000 C 
ATOM     26  C   UNL     1      49.856   5.234  18.335  0.00  0.00    +0.000 C 
BRANCH  24  27
ATOM     27  O   UNL     1      48.411   2.895  19.757  0.00  0.00    +0.000 OA
ATOM     28  H   UNL     1      49.273   3.010  20.191  0.00  0.00    +0.000 HD
ENDBRANCH  24  27
ENDBRANCH  19  21
ENDBRANCH   1  15
TORSDOF 5
ENDMDL
