MODEL 1
REMARK VINA RESULT:    -9.504      0.000      0.000
REMARK INTER + INTRA:         -13.246
REMARK INTER:                 -12.282
REMARK INTRA:                  -0.964
REMARK UNBOUND:                -0.964
REMARK  Name = 
REMARK  5 active torsions:
REMARK  status: ('A' for Active; 'I' for Inactive)
REMARK    1  A    between atoms: C_2  and  C_4
REMARK    2  A    between atoms: N_8  and  C_9
REMARK    3  A    between atoms: C_9  and  C_10
REMARK    4  A    between atoms: C_10  and  C_13
REMARK    5  A    between atoms: C_17  and  C_18
REMARK                            x       y       z     vdW  Elec       q    Type
REMARK                         _______ _______ _______ _____ _____    ______ ____
ROOT
ATOM      1  C   UNL     1      43.543   5.509  12.170  0.00  0.00    +0.000 C 
ATOM      2  F   UNL     1      43.312   6.731  11.591  0.00  0.00    +0.000 F 
ATOM      3  F   UNL     1      42.637   5.420  13.188  0.00  0.00    +0.000 F 
ENDROOT
BRANCH   1   4
ATOM      4  C   UNL     1      44.965   5.375  12.665  0.00  0.00    +0.000 A 
ATOM      5  C   UNL     1      45.419   4.145  13.158  0.00  0.00    +0.000 A 
ATOM      6  C   UNL     1      46.721   4.016  13.611  0.00  0.00    +0.000 A 
ATOM      7  C   UNL     1      47.587   5.106  13.556  0.00  0.00    +0.000 A 
ATOM      8  C   UNL     1      47.186   6.347  13.032  0.00  0.00    +0.000 A 
ATOM      9  C   UNL     1      45.845   6.475  12.632  0.00  0.00    +0.000 A 
BRANCH   8  10
ATOM     10  C   UNL     1      48.163   7.516  12.852  0.00  0.00    +0.000 C 
ATOM     11  C   UNL     1      49.420   7.384  13.739  0.00  0.00    +0.000 C 
ATOM     12  C   UNL     1      49.073   7.574  15.216  0.00  0.00    +0.000 C 
ATOM     13  C   UNL     1      48.266   8.850  15.475  0.00  0.00    +0.000 C 
ATOM     14  N   UNL     1      47.170   9.080  14.538  0.00  0.00    +0.000 NA
ATOM     15  C   UNL     1      47.571   8.920  13.135  0.00  0.00    +0.000 C 
ATOM     16  H   UNL     1      46.763  10.000  14.690  0.00  0.00    +0.000 HD
ENDBRANCH   8  10
ENDBRANCH   1   4
BRANCH   1  17
ATOM     17  C   UNL     1      43.234   4.418  11.118  0.00  0.00    +0.000 C 
BRANCH  17  22
ATOM     18  C   UNL     1      46.515   2.524   7.703  0.00  0.00    +0.000 A 
ATOM     19  C   UNL     1      45.664   1.859   8.578  0.00  0.00    +0.000 A 
ATOM     20  C   UNL     1      44.747   2.597   9.323  0.00  0.00    +0.000 A 
ATOM     21  C   UNL     1      44.704   3.981   9.185  0.00  0.00    +0.000 A 
ATOM     22  N   UNL     1      43.741   4.761   9.788  0.00  0.00    +0.000 N 
ATOM     23  N   UNL     1      45.557   4.640   8.377  0.00  0.00    +0.000 NA
ATOM     24  C   UNL     1      46.449   3.906   7.659  0.00  0.00    +0.000 A 
ATOM     25  H   UNL     1      43.971   5.745   9.641  0.00  0.00    +0.000 HD
BRANCH  18  27
ATOM     26  N   UNL     1      48.545   2.505   6.387  0.00  0.00    +0.000 N 
ATOM     27  C   UNL     1      47.458   1.811   6.828  0.00  0.00    +0.000 C 
ATOM     28  O   UNL     1      47.298   0.628   6.542  0.00  0.00    +0.000 OA
ATOM     29  H   UNL     1      49.253   1.971   5.889  0.00  0.00    +0.000 HD
ATOM     30  H   UNL     1      48.843   3.374   6.813  0.00  0.00    +0.000 HD
ENDBRANCH  18  27
ENDBRANCH  17  22
ENDBRANCH   1  17
TORSDOF 5
ENDMDL
MODEL 2
REMARK VINA RESULT:    -8.794      1.474      2.343
REMARK INTER + INTRA:         -12.328
REMARK INTER:                 -11.981
REMARK INTRA:                  -0.347
REMARK UNBOUND:                -0.964
REMARK  Name = 
REMARK  5 active torsions:
REMARK  status: ('A' for Active; 'I' for Inactive)
REMARK    1  A    between atoms: C_2  and  C_4
REMARK    2  A    between atoms: N_8  and  C_9
REMARK    3  A    between atoms: C_9  and  C_10
REMARK    4  A    between atoms: C_10  and  C_13
REMARK    5  A    between atoms: C_17  and  C_18
REMARK                            x       y       z     vdW  Elec       q    Type
REMARK                         _______ _______ _______ _____ _____    ______ ____
ROOT
ATOM      1  C   UNL     1      44.330   4.703  12.301  0.00  0.00    +0.000 C 
ATOM      2  F   UNL     1      43.722   4.432  13.500  0.00  0.00    +0.000 F 
ATOM      3  F   UNL     1      45.346   3.796  12.203  0.00  0.00    +0.000 F 
ENDROOT
BRANCH   1   4
ATOM      4  C   UNL     1      44.833   6.127  12.228  0.00  0.00    +0.000 A 
ATOM      5  C   UNL     1      44.097   7.092  11.528  0.00  0.00    +0.000 A 
ATOM      6  C   UNL     1      44.552   8.397  11.459  0.00  0.00    +0.000 A 
ATOM      7  C   UNL     1      45.733   8.756  12.106  0.00  0.00    +0.000 A 
ATOM      8  C   UNL     1      46.481   7.830  12.852  0.00  0.00    +0.000 A 
ATOM      9  C   UNL     1      46.035   6.498  12.862  0.00  0.00    +0.000 A 
BRANCH   8  10
ATOM     10  C   UNL     1      47.714   8.240  13.670  0.00  0.00    +0.000 C 
ATOM     11  C   UNL     1      48.513   9.384  13.009  0.00  0.00    +0.000 C 
ATOM     12  C   UNL     1      49.207   8.905  11.733  0.00  0.00    +0.000 C 
ATOM     13  C   UNL     1      50.022   7.627  11.947  0.00  0.00    +0.000 C 
ATOM     14  N   UNL     1      49.342   6.591  12.718  0.00  0.00    +0.000 NA
ATOM     15  C   UNL     1      48.727   7.101  13.950  0.00  0.00    +0.000 C 
ATOM     16  H   UNL     1      49.983   5.829  12.929  0.00  0.00    +0.000 HD
ENDBRANCH   8  10
ENDBRANCH   1   4
BRANCH   1  17
ATOM     17  C   UNL     1      43.302   4.437  11.176  0.00  0.00    +0.000 C 
BRANCH  17  22
ATOM     18  C   UNL     1      46.479   2.491   7.692  0.00  0.00    +0.000 A 
ATOM     19  C   UNL     1      45.605   1.841   8.556  0.00  0.00    +0.000 A 
ATOM     20  C   UNL     1      44.725   2.598   9.325  0.00  0.00    +0.000 A 
ATOM     21  C   UNL     1      44.741   3.986   9.222  0.00  0.00    +0.000 A 
ATOM     22  N   UNL     1      43.815   4.791   9.851  0.00  0.00    +0.000 N 
ATOM     23  N   UNL     1      45.616   4.628   8.425  0.00  0.00    +0.000 NA
ATOM     24  C   UNL     1      46.472   3.875   7.683  0.00  0.00    +0.000 A 
ATOM     25  H   UNL     1      44.086   5.768   9.727  0.00  0.00    +0.000 HD
BRANCH  18  27
ATOM     26  N   UNL     1      48.423   2.459   6.253  0.00  0.00    +0.000 N 
ATOM     27  C   UNL     1      47.385   1.760   6.793  0.00  0.00    +0.000 C 
ATOM     28  O   UNL     1      47.241   0.561   6.572  0.00  0.00    +0.000 OA
ATOM     29  H   UNL     1      49.114   1.920   5.736  0.00  0.00    +0.000 HD
ATOM     30  H   UNL     1      48.722   3.355   6.619  0.00  0.00    +0.000 HD
ENDBRANCH  18  27
ENDBRANCH  17  22
ENDBRANCH   1  17
TORSDOF 5
ENDMDL
MODEL 3
REMARK VINA RESULT:    -7.201      4.124      7.503
REMARK INTER + INTRA:         -10.270
REMARK INTER:                  -9.124
REMARK INTRA:                  -1.146
REMARK UNBOUND:                -0.964
REMARK  Name = 
REMARK  5 active torsions:
REMARK  status: ('A' for Active; 'I' for Inactive)
REMARK    1  A    between atoms: C_2  and  C_4
REMARK    2  A    between atoms: N_8  and  C_9
REMARK    3  A    between atoms: C_9  and  C_10
REMARK    4  A    between atoms: C_10  and  C_13
REMARK    5  A    between atoms: C_17  and  C_18
REMARK                            x       y       z     vdW  Elec       q    Type
REMARK                         _______ _______ _______ _____ _____    ______ ____
ROOT
ATOM      1  C   UNL     1      48.860   7.904  12.402  0.00  0.00    +0.000 C 
ATOM      2  F   UNL     1      49.511   8.830  11.628  0.00  0.00    +0.000 F 
ATOM      3  F   UNL     1      49.489   6.719  12.145  0.00  0.00    +0.000 F 
ENDROOT
BRANCH   1   4
ATOM      4  C   UNL     1      47.382   7.839  12.088  0.00  0.00    +0.000 A 
ATOM      5  C   UNL     1      46.609   9.007  12.125  0.00  0.00    +0.000 A 
ATOM      6  C   UNL     1      45.256   8.954  11.837  0.00  0.00    +0.000 A 
ATOM      7  C   UNL     1      44.668   7.740  11.488  0.00  0.00    +0.000 A 
ATOM      8  C   UNL     1      45.413   6.552  11.399  0.00  0.00    +0.000 A 
ATOM      9  C   UNL     1      46.771   6.615  11.751  0.00  0.00    +0.000 A 
BRANCH   8  10
ATOM     10  C   UNL     1      44.803   5.236  10.897  0.00  0.00    +0.000 C 
ATOM     11  C   UNL     1      43.259   5.255  10.903  0.00  0.00    +0.000 C 
ATOM     12  C   UNL     1      42.715   5.253  12.332  0.00  0.00    +0.000 C 
ATOM     13  C   UNL     1      43.322   4.143  13.195  0.00  0.00    +0.000 C 
ATOM     14  N   UNL     1      44.770   3.999  13.074  0.00  0.00    +0.000 NA
ATOM     15  C   UNL     1      45.230   3.970  11.681  0.00  0.00    +0.000 C 
ATOM     16  H   UNL     1      45.085   3.169  13.571  0.00  0.00    +0.000 HD
ENDBRANCH   8  10
ENDBRANCH   1   4
BRANCH   1  17
ATOM     17  C   UNL     1      49.079   8.285  13.885  0.00  0.00    +0.000 C 
BRANCH  17  22
ATOM     18  C   UNL     1      48.123   4.370  17.012  0.00  0.00    +0.000 A 
ATOM     19  C   UNL     1      47.392   4.835  15.925  0.00  0.00    +0.000 A 
ATOM     20  C   UNL     1      47.931   5.841  15.127  0.00  0.00    +0.000 A 
ATOM     21  C   UNL     1      49.183   6.367  15.435  0.00  0.00    +0.000 A 
ATOM     22  N   UNL     1      49.834   7.268  14.620  0.00  0.00    +0.000 N 
ATOM     23  N   UNL     1      49.877   5.959  16.514  0.00  0.00    +0.000 NA
ATOM     24  C   UNL     1      49.336   4.978  17.286  0.00  0.00    +0.000 A 
ATOM     25  H   UNL     1      50.675   7.598  15.096  0.00  0.00    +0.000 HD
BRANCH  18  27
ATOM     26  N   UNL     1      48.284   3.082  19.054  0.00  0.00    +0.000 N 
ATOM     27  C   UNL     1      47.657   3.260  17.857  0.00  0.00    +0.000 C 
ATOM     28  O   UNL     1      46.713   2.550  17.520  0.00  0.00    +0.000 OA
ATOM     29  H   UNL     1      47.875   2.396  19.684  0.00  0.00    +0.000 HD
ATOM     30  H   UNL     1      48.867   3.798  19.472  0.00  0.00    +0.000 HD
ENDBRANCH  18  27
ENDBRANCH  17  22
ENDBRANCH   1  17
TORSDOF 5
ENDMDL
MODEL 4
REMARK VINA RESULT:    -7.126      3.327      5.278
REMARK INTER + INTRA:         -10.173
REMARK INTER:                  -9.141
REMARK INTRA:                  -1.032
REMARK UNBOUND:                -0.964
REMARK  Name = 
REMARK  5 active torsions:
REMARK  status: ('A' for Active; 'I' for Inactive)
REMARK    1  A    between atoms: C_2  and  C_4
REMARK    2  A    between atoms: N_8  and  C_9
REMARK    3  A    between atoms: C_9  and  C_10
REMARK    4  A    between atoms: C_10  and  C_13
REMARK    5  A    between atoms: C_17  and  C_18
REMARK                            x       y       z     vdW  Elec       q    Type
REMARK                         _______ _______ _______ _____ _____    ______ ____
ROOT
ATOM      1  C   UNL     1      48.567   7.945  13.078  0.00  0.00    +0.000 C 
ATOM      2  F   UNL     1      48.725   7.135  11.982  0.00  0.00    +0.000 F 
ATOM      3  F   UNL     1      49.183   9.118  12.746  0.00  0.00    +0.000 F 
ENDROOT
BRANCH   1   4
ATOM      4  C   UNL     1      49.156   7.330  14.327  0.00  0.00    +0.000 A 
ATOM      5  C   UNL     1      50.440   7.701  14.749  0.00  0.00    +0.000 A 
ATOM      6  C   UNL     1      50.984   7.143  15.893  0.00  0.00    +0.000 A 
ATOM      7  C   UNL     1      50.243   6.228  16.638  0.00  0.00    +0.000 A 
ATOM      8  C   UNL     1      48.937   5.858  16.275  0.00  0.00    +0.000 A 
ATOM      9  C   UNL     1      48.425   6.390  15.079  0.00  0.00    +0.000 A 
BRANCH   8  10
ATOM     10  C   UNL     1      48.067   4.947  17.152  0.00  0.00    +0.000 C 
ATOM     11  C   UNL     1      48.900   4.096  18.134  0.00  0.00    +0.000 C 
ATOM     12  C   UNL     1      49.706   3.030  17.392  0.00  0.00    +0.000 C 
ATOM     13  C   UNL     1      48.849   2.201  16.431  0.00  0.00    +0.000 C 
ATOM     14  N   UNL     1      47.929   2.981  15.607  0.00  0.00    +0.000 NA
ATOM     15  C   UNL     1      47.156   3.961  16.379  0.00  0.00    +0.000 C 
ATOM     16  H   UNL     1      47.307   2.363  15.091  0.00  0.00    +0.000 HD
ENDBRANCH   8  10
ENDBRANCH   1   4
BRANCH   1  17
ATOM     17  C   UNL     1      47.053   8.201  13.265  0.00  0.00    +0.000 C 
BRANCH  17  22
ATOM     18  C   UNL     1      44.643   4.128  11.364  0.00  0.00    +0.000 A 
ATOM     19  C   UNL     1      44.784   4.538  12.685  0.00  0.00    +0.000 A 
ATOM     20  C   UNL     1      45.369   5.773  12.952  0.00  0.00    +0.000 A 
ATOM     21  C   UNL     1      45.807   6.569  11.897  0.00  0.00    +0.000 A 
ATOM     22  N   UNL     1      46.273   7.854  12.076  0.00  0.00    +0.000 N 
ATOM     23  N   UNL     1      45.720   6.160  10.617  0.00  0.00    +0.000 NA
ATOM     24  C   UNL     1      45.150   4.950  10.372  0.00  0.00    +0.000 A 
ATOM     25  H   UNL     1      46.640   8.200  11.188  0.00  0.00    +0.000 HD
BRANCH  18  27
ATOM     26  N   UNL     1      44.498   2.163   9.961  0.00  0.00    +0.000 N 
ATOM     27  C   UNL     1      43.970   2.873  10.998  0.00  0.00    +0.000 C 
ATOM     28  O   UNL     1      43.000   2.458  11.625  0.00  0.00    +0.000 OA
ATOM     29  H   UNL     1      44.105   1.239   9.796  0.00  0.00    +0.000 HD
ATOM     30  H   UNL     1      45.432   2.332   9.608  0.00  0.00    +0.000 HD
ENDBRANCH  18  27
ENDBRANCH  17  22
ENDBRANCH   1  17
TORSDOF 5
ENDMDL
MODEL 5
REMARK VINA RESULT:    -7.008      4.751      6.526
REMARK INTER + INTRA:         -10.021
REMARK INTER:                  -9.442
REMARK INTRA:                  -0.578
REMARK UNBOUND:                -0.964
REMARK  Name = 
REMARK  5 active torsions:
REMARK  status: ('A' for Active; 'I' for Inactive)
REMARK    1  A    between atoms: C_2  and  C_4
REMARK    2  A    between atoms: N_8  and  C_9
REMARK    3  A    between atoms: C_9  and  C_10
REMARK    4  A    between atoms: C_10  and  C_13
REMARK    5  A    between atoms: C_17  and  C_18
REMARK                            x       y       z     vdW  Elec       q    Type
REMARK                         _______ _______ _______ _____ _____    ______ ____
ROOT
ATOM      1  C   UNL     1      48.111   2.871  16.874  0.00  0.00    +0.000 C 
ATOM      2  F   UNL     1      47.054   2.325  17.555  0.00  0.00    +0.000 F 
ATOM      3  F   UNL     1      48.670   1.829  16.190  0.00  0.00    +0.000 F 
ENDROOT
BRANCH   1   4
ATOM      4  C   UNL     1      49.102   3.536  17.802  0.00  0.00    +0.000 A 
ATOM      5  C   UNL     1      50.476   3.433  17.545  0.00  0.00    +0.000 A 
ATOM      6  C   UNL     1      51.388   4.041  18.391  0.00  0.00    +0.000 A 
ATOM      7  C   UNL     1      50.937   4.776  19.485  0.00  0.00    +0.000 A 
ATOM      8  C   UNL     1      49.568   4.939  19.757  0.00  0.00    +0.000 A 
ATOM      9  C   UNL     1      48.660   4.266  18.922  0.00  0.00    +0.000 A 
BRANCH   8  10
ATOM     10  C   UNL     1      49.057   5.846  20.885  0.00  0.00    +0.000 C 
ATOM     11  C   UNL     1      47.605   6.319  20.658  0.00  0.00    +0.000 C 
ATOM     12  C   UNL     1      47.524   7.303  19.491  0.00  0.00    +0.000 C 
ATOM     13  C   UNL     1      48.534   8.448  19.610  0.00  0.00    +0.000 C 
ATOM     14  N   UNL     1      49.882   8.035  19.991  0.00  0.00    +0.000 NA
ATOM     15  C   UNL     1      49.900   7.121  21.139  0.00  0.00    +0.000 C 
ATOM     16  H   UNL     1      50.461   8.851  20.175  0.00  0.00    +0.000 HD
ENDBRANCH   8  10
ENDBRANCH   1   4
BRANCH   1  17
ATOM     17  C   UNL     1      47.547   3.897  15.863  0.00  0.00    +0.000 C 
BRANCH  17  22
ATOM     18  C   UNL     1      44.595   4.733  11.788  0.00  0.00    +0.000 A 
ATOM     19  C   UNL     1      45.161   5.642  12.674  0.00  0.00    +0.000 A 
ATOM     20  C   UNL     1      46.057   5.183  13.636  0.00  0.00    +0.000 A 
ATOM     21  C   UNL     1      46.362   3.826  13.700  0.00  0.00    +0.000 A 
ATOM     22  N   UNL     1      47.334   3.318  14.535  0.00  0.00    +0.000 N 
ATOM     23  N   UNL     1      45.782   2.930  12.879  0.00  0.00    +0.000 NA
ATOM     24  C   UNL     1      44.906   3.393  11.947  0.00  0.00    +0.000 A 
ATOM     25  H   UNL     1      47.306   2.298  14.495  0.00  0.00    +0.000 HD
BRANCH  18  27
ATOM     26  N   UNL     1      44.025   4.746   9.437  0.00  0.00    +0.000 N 
ATOM     27  C   UNL     1      43.700   5.149  10.698  0.00  0.00    +0.000 C 
ATOM     28  O   UNL     1      42.679   5.796  10.917  0.00  0.00    +0.000 OA
ATOM     29  H   UNL     1      43.337   4.930   8.710  0.00  0.00    +0.000 HD
ATOM     30  H   UNL     1      44.690   4.003   9.260  0.00  0.00    +0.000 HD
ENDBRANCH  18  27
ENDBRANCH  17  22
ENDBRANCH   1  17
TORSDOF 5
ENDMDL
MODEL 6
REMARK VINA RESULT:    -6.750      4.086      5.913
REMARK INTER + INTRA:          -9.686
REMARK INTER:                  -9.100
REMARK INTRA:                  -0.587
REMARK UNBOUND:                -0.964
REMARK  Name = 
REMARK  5 active torsions:
REMARK  status: ('A' for Active; 'I' for Inactive)
REMARK    1  A    between atoms: C_2  and  C_4
REMARK    2  A    between atoms: N_8  and  C_9
REMARK    3  A    between atoms: C_9  and  C_10
REMARK    4  A    between atoms: C_10  and  C_13
REMARK    5  A    between atoms: C_17  and  C_18
REMARK                            x       y       z     vdW  Elec       q    Type
REMARK                         _______ _______ _______ _____ _____    ______ ____
ROOT
ATOM      1  C   UNL     1      48.344   2.920  16.777  0.00  0.00    +0.000 C 
ATOM      2  F   UNL     1      47.587   2.563  17.863  0.00  0.00    +0.000 F 
ATOM      3  F   UNL     1      48.596   1.750  16.119  0.00  0.00    +0.000 F 
ENDROOT
BRANCH   1   4
ATOM      4  C   UNL     1      49.617   3.628  17.181  0.00  0.00    +0.000 A 
ATOM      5  C   UNL     1      50.754   2.882  17.518  0.00  0.00    +0.000 A 
ATOM      6  C   UNL     1      51.923   3.525  17.886  0.00  0.00    +0.000 A 
ATOM      7  C   UNL     1      51.975   4.917  17.900  0.00  0.00    +0.000 A 
ATOM      8  C   UNL     1      50.872   5.705  17.531  0.00  0.00    +0.000 A 
ATOM      9  C   UNL     1      49.677   5.035  17.217  0.00  0.00    +0.000 A 
BRANCH   8  10
ATOM     10  C   UNL     1      50.953   7.234  17.424  0.00  0.00    +0.000 C 
ATOM     11  C   UNL     1      49.654   7.862  16.876  0.00  0.00    +0.000 C 
ATOM     12  C   UNL     1      49.457   7.519  15.399  0.00  0.00    +0.000 C 
ATOM     13  C   UNL     1      50.695   7.823  14.551  0.00  0.00    +0.000 C 
ATOM     14  N   UNL     1      51.959   7.383  15.135  0.00  0.00    +0.000 NA
ATOM     15  C   UNL     1      52.108   7.772  16.542  0.00  0.00    +0.000 C 
ATOM     16  H   UNL     1      52.741   7.728  14.585  0.00  0.00    +0.000 HD
ENDBRANCH   8  10
ENDBRANCH   1   4
BRANCH   1  17
ATOM     17  C   UNL     1      47.482   3.834  15.875  0.00  0.00    +0.000 C 
BRANCH  17  22
ATOM     18  C   UNL     1      44.583   4.705  11.769  0.00  0.00    +0.000 A 
ATOM     19  C   UNL     1      45.096   5.603  12.699  0.00  0.00    +0.000 A 
ATOM     20  C   UNL     1      45.989   5.142  13.663  0.00  0.00    +0.000 A 
ATOM     21  C   UNL     1      46.345   3.797  13.685  0.00  0.00    +0.000 A 
ATOM     22  N   UNL     1      47.318   3.296  14.523  0.00  0.00    +0.000 N 
ATOM     23  N   UNL     1      45.817   2.910  12.820  0.00  0.00    +0.000 NA
ATOM     24  C   UNL     1      44.943   3.374  11.887  0.00  0.00    +0.000 A 
ATOM     25  H   UNL     1      47.331   2.278  14.447  0.00  0.00    +0.000 HD
BRANCH  18  27
ATOM     26  N   UNL     1      44.029   4.731   9.415  0.00  0.00    +0.000 N 
ATOM     27  C   UNL     1      43.695   5.127  10.676  0.00  0.00    +0.000 C 
ATOM     28  O   UNL     1      42.672   5.771  10.892  0.00  0.00    +0.000 OA
ATOM     29  H   UNL     1      43.347   4.918   8.684  0.00  0.00    +0.000 HD
ATOM     30  H   UNL     1      44.697   3.990   9.238  0.00  0.00    +0.000 HD
ENDBRANCH  18  27
ENDBRANCH  17  22
ENDBRANCH   1  17
TORSDOF 5
ENDMDL
MODEL 7
REMARK VINA RESULT:    -6.568      4.600      6.740
REMARK INTER + INTRA:          -9.451
REMARK INTER:                  -8.385
REMARK INTRA:                  -1.066
REMARK UNBOUND:                -0.964
REMARK  Name = 
REMARK  5 active torsions:
REMARK  status: ('A' for Active; 'I' for Inactive)
REMARK    1  A    between atoms: C_2  and  C_4
REMARK    2  A    between atoms: N_8  and  C_9
REMARK    3  A    between atoms: C_9  and  C_10
REMARK    4  A    between atoms: C_10  and  C_13
REMARK    5  A    between atoms: C_17  and  C_18
REMARK                            x       y       z     vdW  Elec       q    Type
REMARK                         _______ _______ _______ _____ _____    ______ ____
ROOT
ATOM      1  C   UNL     1      50.378   8.297  14.685  0.00  0.00    +0.000 C 
ATOM      2  F   UNL     1      51.224   7.219  14.721  0.00  0.00    +0.000 F 
ATOM      3  F   UNL     1      51.192   9.383  14.531  0.00  0.00    +0.000 F 
ENDROOT
BRANCH   1   4
ATOM      4  C   UNL     1      49.532   8.397  15.934  0.00  0.00    +0.000 A 
ATOM      5  C   UNL     1      48.674   9.490  16.110  0.00  0.00    +0.000 A 
ATOM      6  C   UNL     1      47.895   9.586  17.250  0.00  0.00    +0.000 A 
ATOM      7  C   UNL     1      47.950   8.581  18.214  0.00  0.00    +0.000 A 
ATOM      8  C   UNL     1      48.765   7.447  18.060  0.00  0.00    +0.000 A 
ATOM      9  C   UNL     1      49.591   7.397  16.924  0.00  0.00    +0.000 A 
BRANCH   8  10
ATOM     10  C   UNL     1      48.742   6.277  19.053  0.00  0.00    +0.000 C 
ATOM     11  C   UNL     1      49.496   5.036  18.529  0.00  0.00    +0.000 C 
ATOM     12  C   UNL     1      48.748   4.389  17.363  0.00  0.00    +0.000 C 
ATOM     13  C   UNL     1      47.273   4.126  17.679  0.00  0.00    +0.000 C 
ATOM     14  N   UNL     1      46.581   5.235  18.331  0.00  0.00    +0.000 NA
ATOM     15  C   UNL     1      47.329   5.791  19.465  0.00  0.00    +0.000 C 
ATOM     16  H   UNL     1      45.651   4.946  18.625  0.00  0.00    +0.000 HD
ENDBRANCH   8  10
ENDBRANCH   1   4
BRANCH   1  17
ATOM     17  C   UNL     1      49.479   8.155  13.434  0.00  0.00    +0.000 C 
BRANCH  17  22
ATOM     18  C   UNL     1      45.230   5.339  13.239  0.00  0.00    +0.000 A 
ATOM     19  C   UNL     1      45.431   6.667  12.878  0.00  0.00    +0.000 A 
ATOM     20  C   UNL     1      46.725   7.181  12.885  0.00  0.00    +0.000 A 
ATOM     21  C   UNL     1      47.789   6.365  13.261  0.00  0.00    +0.000 A 
ATOM     22  N   UNL     1      49.105   6.765  13.167  0.00  0.00    +0.000 N 
ATOM     23  N   UNL     1      47.599   5.093  13.660  0.00  0.00    +0.000 NA
ATOM     24  C   UNL     1      46.329   4.606  13.651  0.00  0.00    +0.000 A 
ATOM     25  H   UNL     1      49.698   6.055  13.599  0.00  0.00    +0.000 HD
BRANCH  18  27
ATOM     26  N   UNL     1      42.822   5.523  13.101  0.00  0.00    +0.000 N 
ATOM     27  C   UNL     1      43.906   4.701  13.185  0.00  0.00    +0.000 C 
ATOM     28  O   UNL     1      43.783   3.480  13.172  0.00  0.00    +0.000 OA
ATOM     29  H   UNL     1      41.924   5.075  12.937  0.00  0.00    +0.000 HD
ATOM     30  H   UNL     1      42.900   6.499  12.841  0.00  0.00    +0.000 HD
ENDBRANCH  18  27
ENDBRANCH  17  22
ENDBRANCH   1  17
TORSDOF 5
ENDMDL
MODEL 8
REMARK VINA RESULT:    -6.525      5.267      7.086
REMARK INTER + INTRA:          -9.396
REMARK INTER:                  -8.815
REMARK INTRA:                  -0.581
REMARK UNBOUND:                -0.964
REMARK  Name = 
REMARK  5 active torsions:
REMARK  status: ('A' for Active; 'I' for Inactive)
REMARK    1  A    between atoms: C_2  and  C_4
REMARK    2  A    between atoms: N_8  and  C_9
REMARK    3  A    between atoms: C_9  and  C_10
REMARK    4  A    between atoms: C_10  and  C_13
REMARK    5  A    between atoms: C_17  and  C_18
REMARK                            x       y       z     vdW  Elec       q    Type
REMARK                         _______ _______ _______ _____ _____    ______ ____
ROOT
ATOM      1  C   UNL     1      48.132   3.120  16.921  0.00  0.00    +0.000 C 
ATOM      2  F   UNL     1      47.045   2.453  17.425  0.00  0.00    +0.000 F 
ATOM      3  F   UNL     1      48.862   2.170  16.267  0.00  0.00    +0.000 F 
ENDROOT
BRANCH   1   4
ATOM      4  C   UNL     1      48.933   3.802  18.006  0.00  0.00    +0.000 A 
ATOM      5  C   UNL     1      48.350   4.045  19.257  0.00  0.00    +0.000 A 
ATOM      6  C   UNL     1      49.080   4.667  20.255  0.00  0.00    +0.000 A 
ATOM      7  C   UNL     1      50.404   5.033  20.021  0.00  0.00    +0.000 A 
ATOM      8  C   UNL     1      51.041   4.773  18.796  0.00  0.00    +0.000 A 
ATOM      9  C   UNL     1      50.267   4.194  17.777  0.00  0.00    +0.000 A 
BRANCH   8  10
ATOM     10  C   UNL     1      52.532   5.059  18.569  0.00  0.00    +0.000 C 
ATOM     11  C   UNL     1      53.201   4.026  17.637  0.00  0.00    +0.000 C 
ATOM     12  C   UNL     1      53.310   2.661  18.317  0.00  0.00    +0.000 C 
ATOM     13  C   UNL     1      53.947   2.742  19.707  0.00  0.00    +0.000 C 
ATOM     14  N   UNL     1      53.443   3.824  20.548  0.00  0.00    +0.000 NA
ATOM     15  C   UNL     1      53.396   5.116  19.854  0.00  0.00    +0.000 C 
ATOM     16  H   UNL     1      53.996   3.896  21.399  0.00  0.00    +0.000 HD
ENDBRANCH   8  10
ENDBRANCH   1   4
BRANCH   1  17
ATOM     17  C   UNL     1      47.618   4.160  15.897  0.00  0.00    +0.000 C 
BRANCH  17  22
ATOM     18  C   UNL     1      44.472   4.983  11.967  0.00  0.00    +0.000 A 
ATOM     19  C   UNL     1      45.097   5.896  12.809  0.00  0.00    +0.000 A 
ATOM     20  C   UNL     1      46.034   5.436  13.730  0.00  0.00    +0.000 A 
ATOM     21  C   UNL     1      46.322   4.076  13.799  0.00  0.00    +0.000 A 
ATOM     22  N   UNL     1      47.328   3.565  14.590  0.00  0.00    +0.000 N 
ATOM     23  N   UNL     1      45.686   3.177  13.023  0.00  0.00    +0.000 NA
ATOM     24  C   UNL     1      44.771   3.641  12.130  0.00  0.00    +0.000 A 
ATOM     25  H   UNL     1      47.282   2.545  14.568  0.00  0.00    +0.000 HD
BRANCH  18  27
ATOM     26  N   UNL     1      42.748   6.486  11.178  0.00  0.00    +0.000 N 
ATOM     27  C   UNL     1      43.528   5.398  10.919  0.00  0.00    +0.000 C 
ATOM     28  O   UNL     1      43.473   4.817   9.838  0.00  0.00    +0.000 OA
ATOM     29  H   UNL     1      42.192   6.840  10.404  0.00  0.00    +0.000 HD
ATOM     30  H   UNL     1      42.955   7.135  11.928  0.00  0.00    +0.000 HD
ENDBRANCH  18  27
ENDBRANCH  17  22
ENDBRANCH   1  17
TORSDOF 5
ENDMDL
