MODEL 1
REMARK VINA RESULT:    -7.998      0.000      0.000
REMARK INTER + INTRA:         -11.242
REMARK INTER:                 -10.570
REMARK INTRA:                  -0.672
REMARK UNBOUND:                -0.672
REMARK  Name = 
REMARK  6 active torsions:
REMARK  status: ('A' for Active; 'I' for Inactive)
REMARK    1  A    between atoms: N_1  and  C_2
REMARK    2  A    between atoms: C_2  and  C_3
REMARK    3  A    between atoms: C_6  and  O_7
REMARK    4  A    between atoms: O_7  and  C_8
REMARK    5  A    between atoms: C_8  and  C_9
REMARK    6  A    between atoms: C_13  and  C_14
REMARK                            x       y       z     vdW  Elec       q    Type
REMARK                         _______ _______ _______ _____ _____    ______ ____
ROOT
ATOM      1  C   UNL     1      43.462   4.144  11.141  0.00  0.00    +0.000 C 
ENDROOT
BRANCH   1   2
ATOM      2  C   UNL     1      44.540   4.911  11.856  0.00  0.00    +0.000 A 
ATOM      3  C   UNL     1      44.746   6.268  11.641  0.00  0.00    +0.000 A 
ATOM      4  N   UNL     1      45.653   7.012  12.315  0.00  0.00    +0.000 NA
ATOM      5  C   UNL     1      46.386   6.372  13.261  0.00  0.00    +0.000 A 
ATOM      6  C   UNL     1      46.256   5.026  13.571  0.00  0.00    +0.000 A 
ATOM      7  C   UNL     1      45.308   4.292  12.851  0.00  0.00    +0.000 A 
BRANCH   6   8
ATOM      8  C   UNL     1      47.051   4.343  14.621  0.00  0.00    +0.000 C 
ATOM      9  N   UNL     1      47.396   5.032  15.749  0.00  0.00    +0.000 N 
ATOM     10  O   UNL     1      47.393   3.172  14.490  0.00  0.00    +0.000 OA
ATOM     11  H   UNL     1      47.170   5.993  15.953  0.00  0.00    +0.000 HD
ATOM     12  H   UNL     1      47.940   4.526  16.438  0.00  0.00    +0.000 HD
ENDBRANCH   6   8
ENDBRANCH   1   2
BRANCH   1  13
ATOM     13  O   UNL     1      43.549   4.338   9.725  0.00  0.00    +0.000 OA
BRANCH  13  17
ATOM     14  C   UNL     1      46.551   2.297   7.654  0.00  0.00    +0.000 A 
ATOM     15  C   UNL     1      46.383   3.685   7.545  0.00  0.00    +0.000 A 
ATOM     16  C   UNL     1      45.385   4.341   8.272  0.00  0.00    +0.000 A 
ATOM     17  C   UNL     1      44.533   3.615   9.106  0.00  0.00    +0.000 A 
ATOM     18  C   UNL     1      44.727   2.243   9.260  0.00  0.00    +0.000 A 
ATOM     19  C   UNL     1      45.721   1.588   8.530  0.00  0.00    +0.000 A 
BRANCH  14  20
ATOM     20  C   UNL     1      47.585   1.574   6.832  0.00  0.00    +0.000 C 
BRANCH  20  21
ATOM     21  N   UNL     1      48.598   2.485   6.320  0.00  0.00    +0.000 NA
ATOM     22  H   UNL     1      49.347   2.567   7.005  0.00  0.00    +0.000 HD
ATOM     23  H   UNL     1      48.189   3.414   6.228  0.00  0.00    +0.000 HD
ENDBRANCH  20  21
ENDBRANCH  14  20
ENDBRANCH  13  17
ENDBRANCH   1  13
TORSDOF 6
ENDMDL
MODEL 2
REMARK VINA RESULT:    -7.570      1.686      2.321
REMARK INTER + INTRA:         -10.676
REMARK INTER:                 -10.150
REMARK INTRA:                  -0.526
REMARK UNBOUND:                -0.672
REMARK  Name = 
REMARK  6 active torsions:
REMARK  status: ('A' for Active; 'I' for Inactive)
REMARK    1  A    between atoms: N_1  and  C_2
REMARK    2  A    between atoms: C_2  and  C_3
REMARK    3  A    between atoms: C_6  and  O_7
REMARK    4  A    between atoms: O_7  and  C_8
REMARK    5  A    between atoms: C_8  and  C_9
REMARK    6  A    between atoms: C_13  and  C_14
REMARK                            x       y       z     vdW  Elec       q    Type
REMARK                         _______ _______ _______ _____ _____    ______ ____
ROOT
ATOM      1  C   UNL     1      43.818   4.510  10.424  0.00  0.00    +0.000 C 
ENDROOT
BRANCH   1   2
ATOM      2  C   UNL     1      44.828   4.507  11.538  0.00  0.00    +0.000 A 
ATOM      3  C   UNL     1      45.070   3.378  12.312  0.00  0.00    +0.000 A 
ATOM      4  N   UNL     1      46.018   3.309  13.274  0.00  0.00    +0.000 NA
ATOM      5  C   UNL     1      46.773   4.419  13.469  0.00  0.00    +0.000 A 
ATOM      6  C   UNL     1      46.631   5.595  12.748  0.00  0.00    +0.000 A 
ATOM      7  C   UNL     1      45.639   5.627  11.762  0.00  0.00    +0.000 A 
BRANCH   6   8
ATOM      8  C   UNL     1      47.477   6.797  12.957  0.00  0.00    +0.000 C 
ATOM      9  N   UNL     1      47.497   7.391  14.187  0.00  0.00    +0.000 N 
ATOM     10  O   UNL     1      48.157   7.254  12.045  0.00  0.00    +0.000 OA
ATOM     11  H   UNL     1      46.974   7.100  14.999  0.00  0.00    +0.000 HD
ATOM     12  H   UNL     1      48.086   8.209  14.283  0.00  0.00    +0.000 HD
ENDBRANCH   6   8
ENDBRANCH   1   2
BRANCH   1  13
ATOM     13  O   UNL     1      43.802   3.250   9.744  0.00  0.00    +0.000 OA
BRANCH  13  17
ATOM     14  C   UNL     1      47.066   2.446   7.261  0.00  0.00    +0.000 A 
ATOM     15  C   UNL     1      46.426   1.440   7.998  0.00  0.00    +0.000 A 
ATOM     16  C   UNL     1      45.320   1.738   8.799  0.00  0.00    +0.000 A 
ATOM     17  C   UNL     1      44.849   3.049   8.884  0.00  0.00    +0.000 A 
ATOM     18  C   UNL     1      45.447   4.046   8.114  0.00  0.00    +0.000 A 
ATOM     19  C   UNL     1      46.555   3.748   7.317  0.00  0.00    +0.000 A 
BRANCH  14  20
ATOM     20  C   UNL     1      48.292   2.146   6.440  0.00  0.00    +0.000 C 
BRANCH  20  21
ATOM     21  N   UNL     1      48.136   2.583   5.060  0.00  0.00    +0.000 NA
ATOM     22  H   UNL     1      49.034   2.912   4.712  0.00  0.00    +0.000 HD
ATOM     23  H   UNL     1      47.507   3.385   5.039  0.00  0.00    +0.000 HD
ENDBRANCH  20  21
ENDBRANCH  14  20
ENDBRANCH  13  17
ENDBRANCH   1  13
TORSDOF 6
ENDMDL
MODEL 3
REMARK VINA RESULT:    -7.395      1.897      2.710
REMARK INTER + INTRA:         -10.444
REMARK INTER:                  -9.811
REMARK INTRA:                  -0.634
REMARK UNBOUND:                -0.672
REMARK  Name = 
REMARK  6 active torsions:
REMARK  status: ('A' for Active; 'I' for Inactive)
REMARK    1  A    between atoms: N_1  and  C_2
REMARK    2  A    between atoms: C_2  and  C_3
REMARK    3  A    between atoms: C_6  and  O_7
REMARK    4  A    between atoms: O_7  and  C_8
REMARK    5  A    between atoms: C_8  and  C_9
REMARK    6  A    between atoms: C_13  and  C_14
REMARK                            x       y       z     vdW  Elec       q    Type
REMARK                         _______ _______ _______ _____ _____    ______ ____
ROOT
ATOM      1  C   UNL     1      43.575   4.245  11.446  0.00  0.00    +0.000 C 
ENDROOT
BRANCH   1   2
ATOM      2  C   UNL     1      44.713   4.848  12.222  0.00  0.00    +0.000 A 
ATOM      3  C   UNL     1      45.696   4.066  12.817  0.00  0.00    +0.000 A 
ATOM      4  N   UNL     1      46.774   4.567  13.461  0.00  0.00    +0.000 NA
ATOM      5  C   UNL     1      46.885   5.919  13.507  0.00  0.00    +0.000 A 
ATOM      6  C   UNL     1      45.975   6.796  12.937  0.00  0.00    +0.000 A 
ATOM      7  C   UNL     1      44.873   6.238  12.280  0.00  0.00    +0.000 A 
BRANCH   6   8
ATOM      8  C   UNL     1      46.119   8.272  12.976  0.00  0.00    +0.000 C 
ATOM      9  N   UNL     1      46.706   8.856  14.063  0.00  0.00    +0.000 N 
ATOM     10  O   UNL     1      45.723   8.968  12.046  0.00  0.00    +0.000 OA
ATOM     11  H   UNL     1      47.059   8.379  14.878  0.00  0.00    +0.000 HD
ATOM     12  H   UNL     1      46.781   9.866  14.047  0.00  0.00    +0.000 HD
ENDBRANCH   6   8
ENDBRANCH   1   2
BRANCH   1  13
ATOM     13  O   UNL     1      43.643   4.616  10.065  0.00  0.00    +0.000 OA
BRANCH  13  17
ATOM     14  C   UNL     1      46.210   2.106   7.925  0.00  0.00    +0.000 A 
ATOM     15  C   UNL     1      45.267   1.606   8.834  0.00  0.00    +0.000 A 
ATOM     16  C   UNL     1      44.405   2.472   9.515  0.00  0.00    +0.000 A 
ATOM     17  C   UNL     1      44.485   3.849   9.305  0.00  0.00    +0.000 A 
ATOM     18  C   UNL     1      45.384   4.350   8.364  0.00  0.00    +0.000 A 
ATOM     19  C   UNL     1      46.247   3.485   7.687  0.00  0.00    +0.000 A 
BRANCH  14  20
ATOM     20  C   UNL     1      47.180   1.188   7.230  0.00  0.00    +0.000 C 
BRANCH  20  21
ATOM     21  N   UNL     1      47.107  -0.168   7.755  0.00  0.00    +0.000 NA
ATOM     22  H   UNL     1      47.829  -0.289   8.462  0.00  0.00    +0.000 HD
ATOM     23  H   UNL     1      47.326  -0.823   7.005  0.00  0.00    +0.000 HD
ENDBRANCH  20  21
ENDBRANCH  14  20
ENDBRANCH  13  17
ENDBRANCH   1  13
TORSDOF 6
ENDMDL
MODEL 4
REMARK VINA RESULT:    -7.294      2.224      6.005
REMARK INTER + INTRA:         -10.311
REMARK INTER:                  -9.939
REMARK INTRA:                  -0.372
REMARK UNBOUND:                -0.672
REMARK  Name = 
REMARK  6 active torsions:
REMARK  status: ('A' for Active; 'I' for Inactive)
REMARK    1  A    between atoms: N_1  and  C_2
REMARK    2  A    between atoms: C_2  and  C_3
REMARK    3  A    between atoms: C_6  and  O_7
REMARK    4  A    between atoms: O_7  and  C_8
REMARK    5  A    between atoms: C_8  and  C_9
REMARK    6  A    between atoms: C_13  and  C_14
REMARK                            x       y       z     vdW  Elec       q    Type
REMARK                         _______ _______ _______ _____ _____    ______ ____
ROOT
ATOM      1  C   UNL     1      43.949   2.851  10.746  0.00  0.00    +0.000 C 
ENDROOT
BRANCH   1   2
ATOM      2  C   UNL     1      44.740   3.018   9.478  0.00  0.00    +0.000 A 
ATOM      3  C   UNL     1      44.837   4.240   8.824  0.00  0.00    +0.000 A 
ATOM      4  N   UNL     1      45.595   4.452   7.724  0.00  0.00    +0.000 NA
ATOM      5  C   UNL     1      46.302   3.393   7.256  0.00  0.00    +0.000 A 
ATOM      6  C   UNL     1      46.294   2.132   7.834  0.00  0.00    +0.000 A 
ATOM      7  C   UNL     1      45.497   1.954   8.970  0.00  0.00    +0.000 A 
BRANCH   6   8
ATOM      8  C   UNL     1      47.088   0.987   7.325  0.00  0.00    +0.000 C 
ATOM      9  N   UNL     1      46.723  -0.283   7.670  0.00  0.00    +0.000 N 
ATOM     10  O   UNL     1      48.058   1.169   6.596  0.00  0.00    +0.000 OA
ATOM     11  H   UNL     1      45.949  -0.541   8.263  0.00  0.00    +0.000 HD
ATOM     12  H   UNL     1      47.295  -1.033   7.301  0.00  0.00    +0.000 HD
ENDBRANCH   6   8
ENDBRANCH   1   2
BRANCH   1  13
ATOM     13  O   UNL     1      43.696   4.119  11.362  0.00  0.00    +0.000 OA
BRANCH  13  17
ATOM     14  C   UNL     1      46.901   5.850  13.412  0.00  0.00    +0.000 A 
ATOM     15  C   UNL     1      45.974   6.618  12.693  0.00  0.00    +0.000 A 
ATOM     16  C   UNL     1      44.898   6.010  12.040  0.00  0.00    +0.000 A 
ATOM     17  C   UNL     1      44.743   4.624  12.085  0.00  0.00    +0.000 A 
ATOM     18  C   UNL     1      45.630   3.858  12.841  0.00  0.00    +0.000 A 
ATOM     19  C   UNL     1      46.707   4.465  13.490  0.00  0.00    +0.000 A 
BRANCH  14  20
ATOM     20  C   UNL     1      48.094   6.488  14.071  0.00  0.00    +0.000 C 
BRANCH  20  21
ATOM     21  N   UNL     1      49.214   6.616  13.149  0.00  0.00    +0.000 NA
ATOM     22  H   UNL     1      48.911   7.139  12.330  0.00  0.00    +0.000 HD
ATOM     23  H   UNL     1      49.474   5.687  12.818  0.00  0.00    +0.000 HD
ENDBRANCH  20  21
ENDBRANCH  14  20
ENDBRANCH  13  17
ENDBRANCH   1  13
TORSDOF 6
ENDMDL
MODEL 5
REMARK VINA RESULT:    -7.060      2.111      6.384
REMARK INTER + INTRA:         -10.002
REMARK INTER:                  -9.382
REMARK INTRA:                  -0.620
REMARK UNBOUND:                -0.672
REMARK  Name = 
REMARK  6 active torsions:
REMARK  status: ('A' for Active; 'I' for Inactive)
REMARK    1  A    between atoms: N_1  and  C_2
REMARK    2  A    between atoms: C_2  and  C_3
REMARK    3  A    between atoms: C_6  and  O_7
REMARK    4  A    between atoms: O_7  and  C_8
REMARK    5  A    between atoms: C_8  and  C_9
REMARK    6  A    between atoms: C_13  and  C_14
REMARK                            x       y       z     vdW  Elec       q    Type
REMARK                         _______ _______ _______ _____ _____    ______ ____
ROOT
ATOM      1  C   UNL     1      44.079   4.523   9.202  0.00  0.00    +0.000 C 
ENDROOT
BRANCH   1   2
ATOM      2  C   UNL     1      44.924   3.365   8.749  0.00  0.00    +0.000 A 
ATOM      3  C   UNL     1      44.743   2.080   9.245  0.00  0.00    +0.000 A 
ATOM      4  N   UNL     1      45.430   0.998   8.813  0.00  0.00    +0.000 NA
ATOM      5  C   UNL     1      46.338   1.205   7.827  0.00  0.00    +0.000 A 
ATOM      6  C   UNL     1      46.593   2.438   7.246  0.00  0.00    +0.000 A 
ATOM      7  C   UNL     1      45.862   3.533   7.721  0.00  0.00    +0.000 A 
BRANCH   6   8
ATOM      8  C   UNL     1      47.575   2.648   6.154  0.00  0.00    +0.000 C 
ATOM      9  N   UNL     1      48.904   2.468   6.410  0.00  0.00    +0.000 N 
ATOM     10  O   UNL     1      47.206   2.973   5.030  0.00  0.00    +0.000 OA
ATOM     11  H   UNL     1      49.311   2.206   7.294  0.00  0.00    +0.000 HD
ATOM     12  H   UNL     1      49.538   2.623   5.635  0.00  0.00    +0.000 HD
ENDBRANCH   6   8
ENDBRANCH   1   2
BRANCH   1  13
ATOM     13  O   UNL     1      43.932   4.524  10.626  0.00  0.00    +0.000 OA
BRANCH  13  17
ATOM     14  C   UNL     1      47.106   5.976  12.926  0.00  0.00    +0.000 A 
ATOM     15  C   UNL     1      46.409   4.810  13.272  0.00  0.00    +0.000 A 
ATOM     16  C   UNL     1      45.369   4.337  12.467  0.00  0.00    +0.000 A 
ATOM     17  C   UNL     1      45.003   5.031  11.313  0.00  0.00    +0.000 A 
ATOM     18  C   UNL     1      45.726   6.162  10.934  0.00  0.00    +0.000 A 
ATOM     19  C   UNL     1      46.762   6.637  11.741  0.00  0.00    +0.000 A 
BRANCH  14  20
ATOM     20  C   UNL     1      48.189   6.526  13.816  0.00  0.00    +0.000 C 
BRANCH  20  21
ATOM     21  N   UNL     1      49.440   6.704  13.093  0.00  0.00    +0.000 NA
ATOM     22  H   UNL     1      49.884   7.565  13.405  0.00  0.00    +0.000 HD
ATOM     23  H   UNL     1      49.233   6.829  12.103  0.00  0.00    +0.000 HD
ENDBRANCH  20  21
ENDBRANCH  14  20
ENDBRANCH  13  17
ENDBRANCH   1  13
TORSDOF 6
ENDMDL
MODEL 6
REMARK VINA RESULT:    -6.082      2.392      6.271
REMARK INTER + INTRA:          -8.709
REMARK INTER:                  -8.030
REMARK INTRA:                  -0.679
REMARK UNBOUND:                -0.672
REMARK  Name = 
REMARK  6 active torsions:
REMARK  status: ('A' for Active; 'I' for Inactive)
REMARK    1  A    between atoms: N_1  and  C_2
REMARK    2  A    between atoms: C_2  and  C_3
REMARK    3  A    between atoms: C_6  and  O_7
REMARK    4  A    between atoms: O_7  and  C_8
REMARK    5  A    between atoms: C_8  and  C_9
REMARK    6  A    between atoms: C_13  and  C_14
REMARK                            x       y       z     vdW  Elec       q    Type
REMARK                         _______ _______ _______ _____ _____    ______ ____
ROOT
ATOM      1  C   UNL     1      43.905   5.809  11.207  0.00  0.00    +0.000 C 
ENDROOT
BRANCH   1   2
ATOM      2  C   UNL     1      44.248   4.519  10.513  0.00  0.00    +0.000 A 
ATOM      3  C   UNL     1      43.648   3.314  10.858  0.00  0.00    +0.000 A 
ATOM      4  N   UNL     1      43.871   2.146  10.213  0.00  0.00    +0.000 NA
ATOM      5  C   UNL     1      44.729   2.182   9.163  0.00  0.00    +0.000 A 
ATOM      6  C   UNL     1      45.373   3.327   8.721  0.00  0.00    +0.000 A 
ATOM      7  C   UNL     1      45.116   4.515   9.414  0.00  0.00    +0.000 A 
BRANCH   6   8
ATOM      8  C   UNL     1      46.294   3.357   7.558  0.00  0.00    +0.000 C 
ATOM      9  N   UNL     1      47.019   2.240   7.253  0.00  0.00    +0.000 N 
ATOM     10  O   UNL     1      46.405   4.366   6.869  0.00  0.00    +0.000 OA
ATOM     11  H   UNL     1      47.006   1.366   7.755  0.00  0.00    +0.000 HD
ATOM     12  H   UNL     1      47.636   2.307   6.453  0.00  0.00    +0.000 HD
ENDBRANCH   6   8
ENDBRANCH   1   2
BRANCH   1  13
ATOM     13  O   UNL     1      44.418   5.823  12.544  0.00  0.00    +0.000 OA
BRANCH  13  17
ATOM     14  C   UNL     1      48.361   7.084  13.121  0.00  0.00    +0.000 A 
ATOM     15  C   UNL     1      47.832   5.967  13.783  0.00  0.00    +0.000 A 
ATOM     16  C   UNL     1      46.517   5.556  13.547  0.00  0.00    +0.000 A 
ATOM     17  C   UNL     1      45.709   6.266  12.658  0.00  0.00    +0.000 A 
ATOM     18  C   UNL     1      46.244   7.346  11.956  0.00  0.00    +0.000 A 
ATOM     19  C   UNL     1      47.556   7.759  12.195  0.00  0.00    +0.000 A 
BRANCH  14  20
ATOM     20  C   UNL     1      49.757   7.569  13.410  0.00  0.00    +0.000 C 
BRANCH  20  21
ATOM     21  N   UNL     1      50.268   7.022  14.659  0.00  0.00    +0.000 NA
ATOM     22  H   UNL     1      49.496   6.914  15.314  0.00  0.00    +0.000 HD
ATOM     23  H   UNL     1      50.907   7.698  15.077  0.00  0.00    +0.000 HD
ENDBRANCH  20  21
ENDBRANCH  14  20
ENDBRANCH  13  17
ENDBRANCH   1  13
TORSDOF 6
ENDMDL
MODEL 7
REMARK VINA RESULT:    -5.932      3.088      7.679
REMARK INTER + INTRA:          -8.511
REMARK INTER:                  -8.084
REMARK INTRA:                  -0.427
REMARK UNBOUND:                -0.672
REMARK  Name = 
REMARK  6 active torsions:
REMARK  status: ('A' for Active; 'I' for Inactive)
REMARK    1  A    between atoms: N_1  and  C_2
REMARK    2  A    between atoms: C_2  and  C_3
REMARK    3  A    between atoms: C_6  and  O_7
REMARK    4  A    between atoms: O_7  and  C_8
REMARK    5  A    between atoms: C_8  and  C_9
REMARK    6  A    between atoms: C_13  and  C_14
REMARK                            x       y       z     vdW  Elec       q    Type
REMARK                         _______ _______ _______ _____ _____    ______ ____
ROOT
ATOM      1  C   UNL     1      47.146   5.278  13.932  0.00  0.00    +0.000 C 
ENDROOT
BRANCH   1   2
ATOM      2  C   UNL     1      45.945   5.296  13.027  0.00  0.00    +0.000 A 
ATOM      3  C   UNL     1      45.365   6.482  12.594  0.00  0.00    +0.000 A 
ATOM      4  N   UNL     1      44.332   6.546  11.723  0.00  0.00    +0.000 NA
ATOM      5  C   UNL     1      43.858   5.366  11.250  0.00  0.00    +0.000 A 
ATOM      6  C   UNL     1      44.367   4.124  11.600  0.00  0.00    +0.000 A 
ATOM      7  C   UNL     1      45.435   4.101  12.503  0.00  0.00    +0.000 A 
BRANCH   6   8
ATOM      8  C   UNL     1      43.853   2.841  11.060  0.00  0.00    +0.000 C 
ATOM      9  N   UNL     1      44.424   2.315   9.936  0.00  0.00    +0.000 N 
ATOM     10  O   UNL     1      42.930   2.251  11.612  0.00  0.00    +0.000 OA
ATOM     11  H   UNL     1      45.180   2.720   9.406  0.00  0.00    +0.000 HD
ATOM     12  H   UNL     1      44.039   1.440   9.602  0.00  0.00    +0.000 HD
ENDBRANCH   6   8
ENDBRANCH   1   2
BRANCH   1  13
ATOM     13  O   UNL     1      47.279   4.010  14.583  0.00  0.00    +0.000 OA
BRANCH  13  17
ATOM     14  C   UNL     1      48.664   4.411  18.505  0.00  0.00    +0.000 A 
ATOM     15  C   UNL     1      48.458   5.519  17.672  0.00  0.00    +0.000 A 
ATOM     16  C   UNL     1      47.969   5.352  16.373  0.00  0.00    +0.000 A 
ATOM     17  C   UNL     1      47.693   4.074  15.886  0.00  0.00    +0.000 A 
ATOM     18  C   UNL     1      47.845   2.971  16.727  0.00  0.00    +0.000 A 
ATOM     19  C   UNL     1      48.338   3.138  18.023  0.00  0.00    +0.000 A 
BRANCH  14  20
ATOM     20  C   UNL     1      49.244   4.575  19.885  0.00  0.00    +0.000 C 
BRANCH  20  21
ATOM     21  N   UNL     1      48.379   3.999  20.904  0.00  0.00    +0.000 NA
ATOM     22  H   UNL     1      47.420   4.293  20.731  0.00  0.00    +0.000 HD
ATOM     23  H   UNL     1      48.639   4.383  21.812  0.00  0.00    +0.000 HD
ENDBRANCH  20  21
ENDBRANCH  14  20
ENDBRANCH  13  17
ENDBRANCH   1  13
TORSDOF 6
ENDMDL
MODEL 8
REMARK VINA RESULT:    -5.699      3.171      5.927
REMARK INTER + INTRA:          -8.203
REMARK INTER:                  -7.622
REMARK INTRA:                  -0.580
REMARK UNBOUND:                -0.672
REMARK  Name = 
REMARK  6 active torsions:
REMARK  status: ('A' for Active; 'I' for Inactive)
REMARK    1  A    between atoms: N_1  and  C_2
REMARK    2  A    between atoms: C_2  and  C_3
REMARK    3  A    between atoms: C_6  and  O_7
REMARK    4  A    between atoms: O_7  and  C_8
REMARK    5  A    between atoms: C_8  and  C_9
REMARK    6  A    between atoms: C_13  and  C_14
REMARK                            x       y       z     vdW  Elec       q    Type
REMARK                         _______ _______ _______ _____ _____    ______ ____
ROOT
ATOM      1  C   UNL     1      44.706   7.021  11.945  0.00  0.00    +0.000 C 
ENDROOT
BRANCH   1   2
ATOM      2  C   UNL     1      44.455   5.543  11.833  0.00  0.00    +0.000 A 
ATOM      3  C   UNL     1      43.944   4.799  12.889  0.00  0.00    +0.000 A 
ATOM      4  N   UNL     1      43.635   3.484  12.809  0.00  0.00    +0.000 NA
ATOM      5  C   UNL     1      43.837   2.881  11.611  0.00  0.00    +0.000 A 
ATOM      6  C   UNL     1      44.327   3.526  10.485  0.00  0.00    +0.000 A 
ATOM      7  C   UNL     1      44.635   4.885  10.609  0.00  0.00    +0.000 A 
BRANCH   6   8
ATOM      8  C   UNL     1      44.523   2.859   9.174  0.00  0.00    +0.000 C 
ATOM      9  N   UNL     1      44.446   3.602   8.031  0.00  0.00    +0.000 N 
ATOM     10  O   UNL     1      44.759   1.657   9.109  0.00  0.00    +0.000 OA
ATOM     11  H   UNL     1      44.254   4.590   7.974  0.00  0.00    +0.000 HD
ATOM     12  H   UNL     1      44.585   3.105   7.159  0.00  0.00    +0.000 HD
ENDBRANCH   6   8
ENDBRANCH   1   2
BRANCH   1  13
ATOM     13  O   UNL     1      45.539   7.316  13.072  0.00  0.00    +0.000 OA
BRANCH  13  17
ATOM     14  C   UNL     1      49.475   8.195  11.976  0.00  0.00    +0.000 A 
ATOM     15  C   UNL     1      48.444   9.138  11.869  0.00  0.00    +0.000 A 
ATOM     16  C   UNL     1      47.143   8.821  12.269  0.00  0.00    +0.000 A 
ATOM     17  C   UNL     1      46.853   7.550  12.768  0.00  0.00    +0.000 A 
ATOM     18  C   UNL     1      47.883   6.623  12.926  0.00  0.00    +0.000 A 
ATOM     19  C   UNL     1      49.182   6.940  12.523  0.00  0.00    +0.000 A 
BRANCH  14  20
ATOM     20  C   UNL     1      50.867   8.508  11.495  0.00  0.00    +0.000 C 
BRANCH  20  21
ATOM     21  N   UNL     1      51.550   7.316  11.011  0.00  0.00    +0.000 NA
ATOM     22  H   UNL     1      52.084   7.555  10.178  0.00  0.00    +0.000 HD
ATOM     23  H   UNL     1      50.851   6.633  10.720  0.00  0.00    +0.000 HD
ENDBRANCH  20  21
ENDBRANCH  14  20
ENDBRANCH  13  17
ENDBRANCH   1  13
TORSDOF 6
ENDMDL
MODEL 9
REMARK VINA RESULT:    -5.566      4.250      5.854
REMARK INTER + INTRA:          -8.028
REMARK INTER:                  -7.550
REMARK INTRA:                  -0.477
REMARK UNBOUND:                -0.672
REMARK  Name = 
REMARK  6 active torsions:
REMARK  status: ('A' for Active; 'I' for Inactive)
REMARK    1  A    between atoms: N_1  and  C_2
REMARK    2  A    between atoms: C_2  and  C_3
REMARK    3  A    between atoms: C_6  and  O_7
REMARK    4  A    between atoms: O_7  and  C_8
REMARK    5  A    between atoms: C_8  and  C_9
REMARK    6  A    between atoms: C_13  and  C_14
REMARK                            x       y       z     vdW  Elec       q    Type
REMARK                         _______ _______ _______ _____ _____    ______ ____
ROOT
ATOM      1  C   UNL     1      48.406   6.952  14.406  0.00  0.00    +0.000 C 
ENDROOT
BRANCH   1   2
ATOM      2  C   UNL     1      48.909   6.270  15.649  0.00  0.00    +0.000 A 
ATOM      3  C   UNL     1      50.040   6.709  16.325  0.00  0.00    +0.000 A 
ATOM      4  N   UNL     1      50.484   6.173  17.485  0.00  0.00    +0.000 NA
ATOM      5  C   UNL     1      49.758   5.151  18.003  0.00  0.00    +0.000 A 
ATOM      6  C   UNL     1      48.606   4.640  17.424  0.00  0.00    +0.000 A 
ATOM      7  C   UNL     1      48.179   5.222  16.226  0.00  0.00    +0.000 A 
BRANCH   6   8
ATOM      8  C   UNL     1      47.809   3.535  18.012  0.00  0.00    +0.000 C 
ATOM      9  N   UNL     1      48.211   2.979  19.194  0.00  0.00    +0.000 N 
ATOM     10  O   UNL     1      46.798   3.123  17.454  0.00  0.00    +0.000 OA
ATOM     11  H   UNL     1      49.025   3.240  19.729  0.00  0.00    +0.000 HD
ATOM     12  H   UNL     1      47.638   2.227  19.556  0.00  0.00    +0.000 HD
ENDBRANCH   6   8
ENDBRANCH   1   2
BRANCH   1  13
ATOM     13  O   UNL     1      48.250   6.015  13.335  0.00  0.00    +0.000 OA
BRANCH  13  17
ATOM     14  C   UNL     1      44.374   5.458  11.872  0.00  0.00    +0.000 A 
ATOM     15  C   UNL     1      44.943   4.596  12.820  0.00  0.00    +0.000 A 
ATOM     16  C   UNL     1      46.232   4.826  13.309  0.00  0.00    +0.000 A 
ATOM     17  C   UNL     1      46.975   5.912  12.845  0.00  0.00    +0.000 A 
ATOM     18  C   UNL     1      46.397   6.804  11.941  0.00  0.00    +0.000 A 
ATOM     19  C   UNL     1      45.111   6.572  11.450  0.00  0.00    +0.000 A 
BRANCH  14  20
ATOM     20  C   UNL     1      43.009   5.188  11.298  0.00  0.00    +0.000 C 
BRANCH  20  21
ATOM     21  N   UNL     1      42.047   6.207  11.694  0.00  0.00    +0.000 NA
ATOM     22  H   UNL     1      42.492   6.846  12.350  0.00  0.00    +0.000 HD
ATOM     23  H   UNL     1      41.284   5.759  12.201  0.00  0.00    +0.000 HD
ENDBRANCH  20  21
ENDBRANCH  14  20
ENDBRANCH  13  17
ENDBRANCH   1  13
TORSDOF 6
ENDMDL
