MODEL 1
REMARK VINA RESULT:    -7.730      0.000      0.000
REMARK INTER + INTRA:         -12.807
REMARK INTER:                 -11.345
REMARK INTRA:                  -1.462
REMARK UNBOUND:                -1.462
REMARK  Name = 
REMARK  9 active torsions:
REMARK  status: ('A' for Active; 'I' for Inactive)
REMARK    1  A    between atoms: C_1  and  O_2
REMARK    2  A    between atoms: O_2  and  C_3
REMARK    3  A    between atoms: C_5  and  C_6
REMARK    4  A    between atoms: C_11  and  O_12
REMARK    5  A    between atoms: O_12  and  C_13
REMARK    6  A    between atoms: C_13  and  C_14
REMARK    7  A    between atoms: C_19  and  C_20
REMARK    8  A    between atoms: C_24  and  O_25
REMARK    9  A    between atoms: O_25  and  C_26
REMARK                            x       y       z     vdW  Elec       q    Type
REMARK                         _______ _______ _______ _____ _____    ______ ____
ROOT
ATOM      1  C   UNL     1      47.327   7.113  13.155  0.00  0.00    +0.000 A 
ATOM      2  C   UNL     1      46.615   8.310  13.221  0.00  0.00    +0.000 A 
ATOM      3  C   UNL     1      45.416   8.440  12.524  0.00  0.00    +0.000 A 
ATOM      4  C   UNL     1      44.922   7.385  11.741  0.00  0.00    +0.000 A 
ATOM      5 CL   UNL     1      43.350   7.647  11.056  0.00  0.00    +0.000 Cl
ATOM      6  C   UNL     1      45.652   6.183  11.586  0.00  0.00    +0.000 A 
ATOM      7  C   UNL     1      46.845   6.078  12.334  0.00  0.00    +0.000 A 
ENDROOT
BRANCH   6   8
ATOM      8  C   UNL     1      45.277   5.062  10.678  0.00  0.00    +0.000 A 
ATOM      9  C   UNL     1      44.521   3.961  11.123  0.00  0.00    +0.000 A 
ATOM     10  C   UNL     1      44.217   2.888  10.277  0.00  0.00    +0.000 A 
ATOM     11  C   UNL     1      44.634   2.899   8.947  0.00  0.00    +0.000 A 
ATOM     12  C   UNL     1      45.396   3.965   8.479  0.00  0.00    +0.000 A 
ATOM     13  C   UNL     1      45.726   5.012   9.348  0.00  0.00    +0.000 A 
BRANCH  12  14
ATOM     14  O   UNL     1      45.855   4.130   7.205  0.00  0.00    +0.000 OA
BRANCH  14  15
ATOM     15  C   UNL     1      46.489   3.012   6.617  0.00  0.00    +0.000 C 
ATOM     16  F   UNL     1      46.879   3.332   5.360  0.00  0.00    +0.000 F 
ATOM     17  F   UNL     1      47.621   2.775   7.328  0.00  0.00    +0.000 F 
ENDBRANCH  14  15
ENDBRANCH  12  14
ENDBRANCH   6   8
BRANCH   1  18
ATOM     18  C   UNL     1      48.590   6.906  13.959  0.00  0.00    +0.000 C 
BRANCH  18  19
ATOM     19  O   UNL     1      48.510   5.675  14.665  0.00  0.00    +0.000 OA
BRANCH  19  25
ATOM     20  C   UNL     1      47.630   4.738  16.814  0.00  0.00    +0.000 A 
ATOM     21  C   UNL     1      47.439   4.997  18.177  0.00  0.00    +0.000 A 
ATOM     22  C   UNL     1      47.829   6.214  18.761  0.00  0.00    +0.000 A 
ATOM     23  C   UNL     1      48.438   7.181  17.960  0.00  0.00    +0.000 A 
ATOM     24  C   UNL     1      48.637   6.925  16.598  0.00  0.00    +0.000 A 
ATOM     25  C   UNL     1      48.240   5.718  16.010  0.00  0.00    +0.000 A 
BRANCH  22  26
ATOM     26  C   UNL     1      47.563   6.384  20.218  0.00  0.00    +0.000 C 
ATOM     27  N   UNL     1      47.427   5.274  20.999  0.00  0.00    +0.000 N 
ATOM     28  O   UNL     1      47.475   7.500  20.726  0.00  0.00    +0.000 OA
ATOM     29  H   UNL     1      47.484   4.322  20.679  0.00  0.00    +0.000 HD
ATOM     30  H   UNL     1      47.251   5.435  21.984  0.00  0.00    +0.000 HD
ENDBRANCH  22  26
BRANCH  20  32
ATOM     31  C   UNL     1      48.243   2.476  16.356  0.00  0.00    +0.000 C 
ATOM     32  O   UNL     1      47.295   3.532  16.254  0.00  0.00    +0.000 OA
ENDBRANCH  20  32
ENDBRANCH  19  25
ENDBRANCH  18  19
ENDBRANCH   1  18
TORSDOF 8
ENDMDL
MODEL 2
REMARK VINA RESULT:    -7.289      5.053      8.217
REMARK INTER + INTRA:         -12.161
REMARK INTER:                 -11.551
REMARK INTRA:                  -0.609
REMARK UNBOUND:                -1.462
REMARK  Name = 
REMARK  9 active torsions:
REMARK  status: ('A' for Active; 'I' for Inactive)
REMARK    1  A    between atoms: C_1  and  O_2
REMARK    2  A    between atoms: O_2  and  C_3
REMARK    3  A    between atoms: C_5  and  C_6
REMARK    4  A    between atoms: C_11  and  O_12
REMARK    5  A    between atoms: O_12  and  C_13
REMARK    6  A    between atoms: C_13  and  C_14
REMARK    7  A    between atoms: C_19  and  C_20
REMARK    8  A    between atoms: C_24  and  O_25
REMARK    9  A    between atoms: O_25  and  C_26
REMARK                            x       y       z     vdW  Elec       q    Type
REMARK                         _______ _______ _______ _____ _____    ______ ____
ROOT
ATOM      1  C   UNL     1      45.265   6.054  11.609  0.00  0.00    +0.000 A 
ATOM      2  C   UNL     1      45.287   5.174  12.690  0.00  0.00    +0.000 A 
ATOM      3  C   UNL     1      46.312   5.261  13.630  0.00  0.00    +0.000 A 
ATOM      4  C   UNL     1      47.334   6.212  13.493  0.00  0.00    +0.000 A 
ATOM      5 CL   UNL     1      48.452   6.290  14.818  0.00  0.00    +0.000 Cl
ATOM      6  C   UNL     1      47.391   7.070  12.370  0.00  0.00    +0.000 A 
ATOM      7  C   UNL     1      46.317   6.975  11.458  0.00  0.00    +0.000 A 
ENDROOT
BRANCH   6   8
ATOM      8  C   UNL     1      48.501   8.019  12.071  0.00  0.00    +0.000 A 
ATOM      9  C   UNL     1      48.317   9.415  12.093  0.00  0.00    +0.000 A 
ATOM     10  C   UNL     1      49.351  10.298  11.759  0.00  0.00    +0.000 A 
ATOM     11  C   UNL     1      50.613   9.810  11.424  0.00  0.00    +0.000 A 
ATOM     12  C   UNL     1      50.824   8.436  11.378  0.00  0.00    +0.000 A 
ATOM     13  C   UNL     1      49.770   7.564  11.675  0.00  0.00    +0.000 A 
BRANCH  12  14
ATOM     14  O   UNL     1      52.003   7.809  11.093  0.00  0.00    +0.000 OA
BRANCH  14  15
ATOM     15  C   UNL     1      52.050   7.084   9.881  0.00  0.00    +0.000 C 
ATOM     16  F   UNL     1      52.696   7.822   8.947  0.00  0.00    +0.000 F 
ATOM     17  F   UNL     1      52.811   5.982  10.104  0.00  0.00    +0.000 F 
ENDBRANCH  14  15
ENDBRANCH  12  14
ENDBRANCH   6   8
BRANCH   1  18
ATOM     18  C   UNL     1      44.128   6.044  10.613  0.00  0.00    +0.000 C 
BRANCH  18  19
ATOM     19  O   UNL     1      43.712   4.705  10.376  0.00  0.00    +0.000 OA
BRANCH  19  25
ATOM     20  C   UNL     1      44.614   2.498   9.610  0.00  0.00    +0.000 A 
ATOM     21  C   UNL     1      45.533   1.875   8.756  0.00  0.00    +0.000 A 
ATOM     22  C   UNL     1      46.381   2.616   7.915  0.00  0.00    +0.000 A 
ATOM     23  C   UNL     1      46.288   4.009   7.923  0.00  0.00    +0.000 A 
ATOM     24  C   UNL     1      45.367   4.636   8.771  0.00  0.00    +0.000 A 
ATOM     25  C   UNL     1      44.528   3.902   9.618  0.00  0.00    +0.000 A 
BRANCH  22  26
ATOM     26  C   UNL     1      47.329   1.848   7.060  0.00  0.00    +0.000 C 
ATOM     27  N   UNL     1      48.383   2.501   6.490  0.00  0.00    +0.000 N 
ATOM     28  O   UNL     1      47.184   0.643   6.867  0.00  0.00    +0.000 OA
ATOM     29  H   UNL     1      48.587   3.480   6.588  0.00  0.00    +0.000 HD
ATOM     30  H   UNL     1      49.004   1.940   5.919  0.00  0.00    +0.000 HD
ENDBRANCH  22  26
BRANCH  20  32
ATOM     31  C   UNL     1      43.399   2.322  11.659  0.00  0.00    +0.000 C 
ATOM     32  O   UNL     1      43.752   1.774  10.394  0.00  0.00    +0.000 OA
ENDBRANCH  20  32
ENDBRANCH  19  25
ENDBRANCH  18  19
ENDBRANCH   1  18
TORSDOF 8
ENDMDL
MODEL 3
REMARK VINA RESULT:    -7.102      2.120      2.267
REMARK INTER + INTRA:         -11.885
REMARK INTER:                 -10.587
REMARK INTRA:                  -1.298
REMARK UNBOUND:                -1.462
REMARK  Name = 
REMARK  9 active torsions:
REMARK  status: ('A' for Active; 'I' for Inactive)
REMARK    1  A    between atoms: C_1  and  O_2
REMARK    2  A    between atoms: O_2  and  C_3
REMARK    3  A    between atoms: C_5  and  C_6
REMARK    4  A    between atoms: C_11  and  O_12
REMARK    5  A    between atoms: O_12  and  C_13
REMARK    6  A    between atoms: C_13  and  C_14
REMARK    7  A    between atoms: C_19  and  C_20
REMARK    8  A    between atoms: C_24  and  O_25
REMARK    9  A    between atoms: O_25  and  C_26
REMARK                            x       y       z     vdW  Elec       q    Type
REMARK                         _______ _______ _______ _____ _____    ______ ____
ROOT
ATOM      1  C   UNL     1      47.299   7.293  12.866  0.00  0.00    +0.000 A 
ATOM      2  C   UNL     1      46.513   8.439  12.974  0.00  0.00    +0.000 A 
ATOM      3  C   UNL     1      45.260   8.477  12.365  0.00  0.00    +0.000 A 
ATOM      4  C   UNL     1      44.786   7.380  11.628  0.00  0.00    +0.000 A 
ATOM      5 CL   UNL     1      43.154   7.526  11.057  0.00  0.00    +0.000 Cl
ATOM      6  C   UNL     1      45.585   6.230  11.430  0.00  0.00    +0.000 A 
ATOM      7  C   UNL     1      46.833   6.217  12.090  0.00  0.00    +0.000 A 
ENDROOT
BRANCH   6   8
ATOM      8  C   UNL     1      45.224   5.075  10.560  0.00  0.00    +0.000 A 
ATOM      9  C   UNL     1      44.479   3.982  11.040  0.00  0.00    +0.000 A 
ATOM     10  C   UNL     1      44.189   2.877  10.231  0.00  0.00    +0.000 A 
ATOM     11  C   UNL     1      44.610   2.847   8.902  0.00  0.00    +0.000 A 
ATOM     12  C   UNL     1      45.362   3.904   8.400  0.00  0.00    +0.000 A 
ATOM     13  C   UNL     1      45.678   4.984   9.233  0.00  0.00    +0.000 A 
BRANCH  12  14
ATOM     14  O   UNL     1      45.823   4.031   7.122  0.00  0.00    +0.000 OA
BRANCH  14  15
ATOM     15  C   UNL     1      46.548   2.933   6.606  0.00  0.00    +0.000 C 
ATOM     16  F   UNL     1      46.830   3.161   5.301  0.00  0.00    +0.000 F 
ATOM     17  F   UNL     1      47.736   2.894   7.262  0.00  0.00    +0.000 F 
ENDBRANCH  14  15
ENDBRANCH  12  14
ENDBRANCH   6   8
BRANCH   1  18
ATOM     18  C   UNL     1      48.628   7.184  13.579  0.00  0.00    +0.000 C 
BRANCH  18  19
ATOM     19  O   UNL     1      48.429   7.305  14.981  0.00  0.00    +0.000 OA
BRANCH  19  25
ATOM     20  C   UNL     1      48.859   5.450  16.607  0.00  0.00    +0.000 A 
ATOM     21  C   UNL     1      49.835   4.829  17.398  0.00  0.00    +0.000 A 
ATOM     22  C   UNL     1      51.163   5.286  17.428  0.00  0.00    +0.000 A 
ATOM     23  C   UNL     1      51.518   6.377  16.633  0.00  0.00    +0.000 A 
ATOM     24  C   UNL     1      50.549   6.998  15.837  0.00  0.00    +0.000 A 
ATOM     25  C   UNL     1      49.221   6.553  15.812  0.00  0.00    +0.000 A 
BRANCH  22  26
ATOM     26  C   UNL     1      52.112   4.557  18.316  0.00  0.00    +0.000 C 
ATOM     27  N   UNL     1      53.276   4.077  17.789  0.00  0.00    +0.000 N 
ATOM     28  O   UNL     1      51.871   4.389  19.509  0.00  0.00    +0.000 OA
ATOM     29  H   UNL     1      53.563   4.164  16.829  0.00  0.00    +0.000 HD
ATOM     30  H   UNL     1      53.893   3.591  18.429  0.00  0.00    +0.000 HD
ENDBRANCH  22  26
BRANCH  20  32
ATOM     31  C   UNL     1      47.263   4.075  15.483  0.00  0.00    +0.000 C 
ATOM     32  O   UNL     1      47.575   4.975  16.540  0.00  0.00    +0.000 OA
ENDBRANCH  20  32
ENDBRANCH  19  25
ENDBRANCH  18  19
ENDBRANCH   1  18
TORSDOF 8
ENDMDL
MODEL 4
REMARK VINA RESULT:    -6.897      4.974      8.167
REMARK INTER + INTRA:         -11.585
REMARK INTER:                 -10.698
REMARK INTRA:                  -0.887
REMARK UNBOUND:                -1.462
REMARK  Name = 
REMARK  9 active torsions:
REMARK  status: ('A' for Active; 'I' for Inactive)
REMARK    1  A    between atoms: C_1  and  O_2
REMARK    2  A    between atoms: O_2  and  C_3
REMARK    3  A    between atoms: C_5  and  C_6
REMARK    4  A    between atoms: C_11  and  O_12
REMARK    5  A    between atoms: O_12  and  C_13
REMARK    6  A    between atoms: C_13  and  C_14
REMARK    7  A    between atoms: C_19  and  C_20
REMARK    8  A    between atoms: C_24  and  O_25
REMARK    9  A    between atoms: O_25  and  C_26
REMARK                            x       y       z     vdW  Elec       q    Type
REMARK                         _______ _______ _______ _____ _____    ______ ____
ROOT
ATOM      1  C   UNL     1      45.017   6.760  11.625  0.00  0.00    +0.000 A 
ATOM      2  C   UNL     1      44.256   7.916  11.459  0.00  0.00    +0.000 A 
ATOM      3  C   UNL     1      44.866   9.164  11.560  0.00  0.00    +0.000 A 
ATOM      4  C   UNL     1      46.236   9.274  11.844  0.00  0.00    +0.000 A 
ATOM      5 CL   UNL     1      46.874  10.887  11.792  0.00  0.00    +0.000 Cl
ATOM      6  C   UNL     1      47.027   8.128  12.095  0.00  0.00    +0.000 A 
ATOM      7  C   UNL     1      46.380   6.881  11.951  0.00  0.00    +0.000 A 
ENDROOT
BRANCH   6   8
ATOM      8  C   UNL     1      48.452   8.148  12.530  0.00  0.00    +0.000 A 
ATOM      9  C   UNL     1      48.834   7.855  13.853  0.00  0.00    +0.000 A 
ATOM     10  C   UNL     1      50.169   7.926  14.266  0.00  0.00    +0.000 A 
ATOM     11  C   UNL     1      51.171   8.262  13.356  0.00  0.00    +0.000 A 
ATOM     12  C   UNL     1      50.827   8.572  12.045  0.00  0.00    +0.000 A 
ATOM     13  C   UNL     1      49.482   8.535  11.656  0.00  0.00    +0.000 A 
BRANCH  12  14
ATOM     14  O   UNL     1      51.691   8.892  11.038  0.00  0.00    +0.000 OA
BRANCH  14  15
ATOM     15  C   UNL     1      52.419   7.821  10.473  0.00  0.00    +0.000 C 
ATOM     16  F   UNL     1      51.565   7.004   9.811  0.00  0.00    +0.000 F 
ATOM     17  F   UNL     1      53.252   8.351   9.541  0.00  0.00    +0.000 F 
ENDBRANCH  14  15
ENDBRANCH  12  14
ENDBRANCH   6   8
BRANCH   1  18
ATOM     18  C   UNL     1      44.409   5.387  11.444  0.00  0.00    +0.000 C 
BRANCH  18  19
ATOM     19  O   UNL     1      44.158   5.155  10.064  0.00  0.00    +0.000 OA
BRANCH  19  25
ATOM     20  C   UNL     1      44.508   2.703   9.692  0.00  0.00    +0.000 A 
ATOM     21  C   UNL     1      45.250   1.752   8.980  0.00  0.00    +0.000 A 
ATOM     22  C   UNL     1      46.245   2.127   8.061  0.00  0.00    +0.000 A 
ATOM     23  C   UNL     1      46.484   3.485   7.844  0.00  0.00    +0.000 A 
ATOM     24  C   UNL     1      45.741   4.439   8.548  0.00  0.00    +0.000 A 
ATOM     25  C   UNL     1      44.756   4.070   9.473  0.00  0.00    +0.000 A 
BRANCH  22  26
ATOM     26  C   UNL     1      46.981   1.029   7.372  0.00  0.00    +0.000 C 
ATOM     27  N   UNL     1      46.691  -0.265   7.694  0.00  0.00    +0.000 N 
ATOM     28  O   UNL     1      47.832   1.267   6.518  0.00  0.00    +0.000 OA
ATOM     29  H   UNL     1      46.014  -0.561   8.376  0.00  0.00    +0.000 HD
ATOM     30  H   UNL     1      47.212  -0.979   7.200  0.00  0.00    +0.000 HD
ENDBRANCH  22  26
BRANCH  20  32
ATOM     31  C   UNL     1      43.802   2.328  11.942  0.00  0.00    +0.000 C 
ATOM     32  O   UNL     1      43.503   2.340  10.551  0.00  0.00    +0.000 OA
ENDBRANCH  20  32
ENDBRANCH  19  25
ENDBRANCH  18  19
ENDBRANCH   1  18
TORSDOF 8
ENDMDL
MODEL 5
REMARK VINA RESULT:    -6.823      3.449      4.684
REMARK INTER + INTRA:         -11.476
REMARK INTER:                 -10.169
REMARK INTRA:                  -1.307
REMARK UNBOUND:                -1.462
REMARK  Name = 
REMARK  9 active torsions:
REMARK  status: ('A' for Active; 'I' for Inactive)
REMARK    1  A    between atoms: C_1  and  O_2
REMARK    2  A    between atoms: O_2  and  C_3
REMARK    3  A    between atoms: C_5  and  C_6
REMARK    4  A    between atoms: C_11  and  O_12
REMARK    5  A    between atoms: O_12  and  C_13
REMARK    6  A    between atoms: C_13  and  C_14
REMARK    7  A    between atoms: C_19  and  C_20
REMARK    8  A    between atoms: C_24  and  O_25
REMARK    9  A    between atoms: O_25  and  C_26
REMARK                            x       y       z     vdW  Elec       q    Type
REMARK                         _______ _______ _______ _____ _____    ______ ____
ROOT
ATOM      1  C   UNL     1      47.844   5.044  15.650  0.00  0.00    +0.000 A 
ATOM      2  C   UNL     1      48.653   6.131  15.319  0.00  0.00    +0.000 A 
ATOM      3  C   UNL     1      48.337   6.914  14.212  0.00  0.00    +0.000 A 
ATOM      4  C   UNL     1      47.222   6.614  13.413  0.00  0.00    +0.000 A 
ATOM      5 CL   UNL     1      46.879   7.766  12.162  0.00  0.00    +0.000 Cl
ATOM      6  C   UNL     1      46.423   5.476  13.670  0.00  0.00    +0.000 A 
ATOM      7  C   UNL     1      46.756   4.727  14.819  0.00  0.00    +0.000 A 
ENDROOT
BRANCH   6   8
ATOM      8  C   UNL     1      45.302   5.002  12.807  0.00  0.00    +0.000 A 
ATOM      9  C   UNL     1      43.992   5.497  12.946  0.00  0.00    +0.000 A 
ATOM     10  C   UNL     1      42.936   5.009  12.167  0.00  0.00    +0.000 A 
ATOM     11  C   UNL     1      43.167   4.032  11.200  0.00  0.00    +0.000 A 
ATOM     12  C   UNL     1      44.447   3.510  11.048  0.00  0.00    +0.000 A 
ATOM     13  C   UNL     1      45.486   3.979  11.861  0.00  0.00    +0.000 A 
BRANCH  12  14
ATOM     14  O   UNL     1      44.833   2.573  10.134  0.00  0.00    +0.000 OA
BRANCH  14  15
ATOM     15  C   UNL     1      44.755   2.953   8.776  0.00  0.00    +0.000 C 
ATOM     16  F   UNL     1      45.175   4.235   8.649  0.00  0.00    +0.000 F 
ATOM     17  F   UNL     1      45.641   2.183   8.093  0.00  0.00    +0.000 F 
ENDBRANCH  14  15
ENDBRANCH  12  14
ENDBRANCH   6   8
BRANCH   1  18
ATOM     18  C   UNL     1      48.108   4.219  16.889  0.00  0.00    +0.000 C 
BRANCH  18  19
ATOM     19  O   UNL     1      49.295   4.677  17.524  0.00  0.00    +0.000 OA
BRANCH  19  25
ATOM     20  C   UNL     1      51.679   4.077  18.002  0.00  0.00    +0.000 A 
ATOM     21  C   UNL     1      52.609   3.030  18.024  0.00  0.00    +0.000 A 
ATOM     22  C   UNL     1      52.255   1.718  17.664  0.00  0.00    +0.000 A 
ATOM     23  C   UNL     1      50.936   1.454  17.293  0.00  0.00    +0.000 A 
ATOM     24  C   UNL     1      50.000   2.496  17.275  0.00  0.00    +0.000 A 
ATOM     25  C   UNL     1      50.351   3.807  17.622  0.00  0.00    +0.000 A 
BRANCH  22  26
ATOM     26  C   UNL     1      53.331   0.688  17.711  0.00  0.00    +0.000 C 
ATOM     27  N   UNL     1      53.092  -0.489  18.359  0.00  0.00    +0.000 N 
ATOM     28  O   UNL     1      54.419   0.874  17.171  0.00  0.00    +0.000 OA
ATOM     29  H   UNL     1      52.238  -0.735  18.829  0.00  0.00    +0.000 HD
ATOM     30  H   UNL     1      53.849  -1.162  18.364  0.00  0.00    +0.000 HD
ENDBRANCH  22  26
BRANCH  20  32
ATOM     31  C   UNL     1      51.814   5.677  19.770  0.00  0.00    +0.000 C 
ATOM     32  O   UNL     1      52.011   5.346  18.400  0.00  0.00    +0.000 OA
ENDBRANCH  20  32
ENDBRANCH  19  25
ENDBRANCH  18  19
ENDBRANCH   1  18
TORSDOF 8
ENDMDL
MODEL 6
REMARK VINA RESULT:    -6.566      4.286      8.381
REMARK INTER + INTRA:         -11.099
REMARK INTER:                  -9.465
REMARK INTRA:                  -1.634
REMARK UNBOUND:                -1.462
REMARK  Name = 
REMARK  9 active torsions:
REMARK  status: ('A' for Active; 'I' for Inactive)
REMARK    1  A    between atoms: C_1  and  O_2
REMARK    2  A    between atoms: O_2  and  C_3
REMARK    3  A    between atoms: C_5  and  C_6
REMARK    4  A    between atoms: C_11  and  O_12
REMARK    5  A    between atoms: O_12  and  C_13
REMARK    6  A    between atoms: C_13  and  C_14
REMARK    7  A    between atoms: C_19  and  C_20
REMARK    8  A    between atoms: C_24  and  O_25
REMARK    9  A    between atoms: O_25  and  C_26
REMARK                            x       y       z     vdW  Elec       q    Type
REMARK                         _______ _______ _______ _____ _____    ______ ____
ROOT
ATOM      1  C   UNL     1      48.274   7.757  13.318  0.00  0.00    +0.000 A 
ATOM      2  C   UNL     1      49.491   8.323  12.941  0.00  0.00    +0.000 A 
ATOM      3  C   UNL     1      50.604   8.180  13.767  0.00  0.00    +0.000 A 
ATOM      4  C   UNL     1      50.512   7.486  14.983  0.00  0.00    +0.000 A 
ATOM      5 CL   UNL     1      52.015   7.270  15.824  0.00  0.00    +0.000 Cl
ATOM      6  C   UNL     1      49.279   6.964  15.438  0.00  0.00    +0.000 A 
ATOM      7  C   UNL     1      48.183   7.101  14.558  0.00  0.00    +0.000 A 
ENDROOT
BRANCH   6   8
ATOM      8  C   UNL     1      49.054   6.330  16.768  0.00  0.00    +0.000 A 
ATOM      9  C   UNL     1      48.793   7.090  17.923  0.00  0.00    +0.000 A 
ATOM     10  C   UNL     1      48.634   6.489  19.178  0.00  0.00    +0.000 A 
ATOM     11  C   UNL     1      48.699   5.102  19.308  0.00  0.00    +0.000 A 
ATOM     12  C   UNL     1      48.970   4.323  18.188  0.00  0.00    +0.000 A 
ATOM     13  C   UNL     1      49.166   4.941  16.948  0.00  0.00    +0.000 A 
BRANCH  12  14
ATOM     14  O   UNL     1      49.039   2.960  18.151  0.00  0.00    +0.000 OA
BRANCH  14  15
ATOM     15  C   UNL     1      49.811   2.401  17.108  0.00  0.00    +0.000 C 
ATOM     16  F   UNL     1      50.654   1.475  17.626  0.00  0.00    +0.000 F 
ATOM     17  F   UNL     1      48.956   1.737  16.289  0.00  0.00    +0.000 F 
ENDBRANCH  14  15
ENDBRANCH  12  14
ENDBRANCH   6   8
BRANCH   1  18
ATOM     18  C   UNL     1      47.065   7.821  12.412  0.00  0.00    +0.000 C 
BRANCH  18  19
ATOM     19  O   UNL     1      46.085   6.892  12.858  0.00  0.00    +0.000 OA
BRANCH  19  25
ATOM     20  C   UNL     1      45.556   4.498  12.347  0.00  0.00    +0.000 A 
ATOM     21  C   UNL     1      45.233   3.594  11.327  0.00  0.00    +0.000 A 
ATOM     22  C   UNL     1      45.116   4.001   9.987  0.00  0.00    +0.000 A 
ATOM     23  C   UNL     1      45.311   5.347   9.673  0.00  0.00    +0.000 A 
ATOM     24  C   UNL     1      45.628   6.256  10.689  0.00  0.00    +0.000 A 
ATOM     25  C   UNL     1      45.756   5.853  12.024  0.00  0.00    +0.000 A 
BRANCH  22  26
ATOM     26  C   UNL     1      44.783   2.950   8.985  0.00  0.00    +0.000 C 
ATOM     27  N   UNL     1      44.525   1.682   9.418  0.00  0.00    +0.000 N 
ATOM     28  O   UNL     1      44.728   3.205   7.784  0.00  0.00    +0.000 OA
ATOM     29  H   UNL     1      44.544   1.375  10.375  0.00  0.00    +0.000 HD
ATOM     30  H   UNL     1      44.300   1.000   8.703  0.00  0.00    +0.000 HD
ENDBRANCH  22  26
BRANCH  20  32
ATOM     31  C   UNL     1      46.897   3.744  14.173  0.00  0.00    +0.000 C 
ATOM     32  O   UNL     1      45.622   4.111  13.661  0.00  0.00    +0.000 OA
ENDBRANCH  20  32
ENDBRANCH  19  25
ENDBRANCH  18  19
ENDBRANCH   1  18
TORSDOF 8
ENDMDL
MODEL 7
REMARK VINA RESULT:    -6.555      4.999      8.602
REMARK INTER + INTRA:         -11.083
REMARK INTER:                  -9.857
REMARK INTRA:                  -1.226
REMARK UNBOUND:                -1.462
REMARK  Name = 
REMARK  9 active torsions:
REMARK  status: ('A' for Active; 'I' for Inactive)
REMARK    1  A    between atoms: C_1  and  O_2
REMARK    2  A    between atoms: O_2  and  C_3
REMARK    3  A    between atoms: C_5  and  C_6
REMARK    4  A    between atoms: C_11  and  O_12
REMARK    5  A    between atoms: O_12  and  C_13
REMARK    6  A    between atoms: C_13  and  C_14
REMARK    7  A    between atoms: C_19  and  C_20
REMARK    8  A    between atoms: C_24  and  O_25
REMARK    9  A    between atoms: O_25  and  C_26
REMARK                            x       y       z     vdW  Elec       q    Type
REMARK                         _______ _______ _______ _____ _____    ______ ____
ROOT
ATOM      1  C   UNL     1      45.418   7.092  12.070  0.00  0.00    +0.000 A 
ATOM      2  C   UNL     1      44.672   8.250  11.861  0.00  0.00    +0.000 A 
ATOM      3  C   UNL     1      45.318   9.482  11.780  0.00  0.00    +0.000 A 
ATOM      4  C   UNL     1      46.711   9.574  11.921  0.00  0.00    +0.000 A 
ATOM      5 CL   UNL     1      47.378  11.153  11.648  0.00  0.00    +0.000 Cl
ATOM      6  C   UNL     1      47.495   8.433  12.211  0.00  0.00    +0.000 A 
ATOM      7  C   UNL     1      46.808   7.200  12.253  0.00  0.00    +0.000 A 
ENDROOT
BRANCH   6   8
ATOM      8  C   UNL     1      48.956   8.448  12.506  0.00  0.00    +0.000 A 
ATOM      9  C   UNL     1      49.918   8.690  11.508  0.00  0.00    +0.000 A 
ATOM     10  C   UNL     1      51.290   8.651  11.783  0.00  0.00    +0.000 A 
ATOM     11  C   UNL     1      51.741   8.400  13.078  0.00  0.00    +0.000 A 
ATOM     12  C   UNL     1      50.817   8.142  14.086  0.00  0.00    +0.000 A 
ATOM     13  C   UNL     1      49.450   8.145  13.787  0.00  0.00    +0.000 A 
BRANCH  12  14
ATOM     14  O   UNL     1      51.101   7.905  15.400  0.00  0.00    +0.000 OA
BRANCH  14  15
ATOM     15  C   UNL     1      50.466   6.787  15.986  0.00  0.00    +0.000 C 
ATOM     16  F   UNL     1      51.409   5.928  16.441  0.00  0.00    +0.000 F 
ATOM     17  F   UNL     1      49.789   7.236  17.074  0.00  0.00    +0.000 F 
ENDBRANCH  14  15
ENDBRANCH  12  14
ENDBRANCH   6   8
BRANCH   1  18
ATOM     18  C   UNL     1      44.764   5.729  12.085  0.00  0.00    +0.000 C 
BRANCH  18  19
ATOM     19  O   UNL     1      44.141   5.485  10.830  0.00  0.00    +0.000 OA
BRANCH  19  25
ATOM     20  C   UNL     1      44.305   3.102  10.076  0.00  0.00    +0.000 A 
ATOM     21  C   UNL     1      44.947   2.228   9.190  0.00  0.00    +0.000 A 
ATOM     22  C   UNL     1      45.924   2.677   8.285  0.00  0.00    +0.000 A 
ATOM     23  C   UNL     1      46.246   4.035   8.261  0.00  0.00    +0.000 A 
ATOM     24  C   UNL     1      45.603   4.914   9.140  0.00  0.00    +0.000 A 
ATOM     25  C   UNL     1      44.636   4.469  10.052  0.00  0.00    +0.000 A 
BRANCH  22  26
ATOM     26  C   UNL     1      46.551   1.654   7.400  0.00  0.00    +0.000 C 
ATOM     27  N   UNL     1      46.910   2.009   6.133  0.00  0.00    +0.000 N 
ATOM     28  O   UNL     1      46.756   0.508   7.793  0.00  0.00    +0.000 OA
ATOM     29  H   UNL     1      46.785   2.917   5.721  0.00  0.00    +0.000 HD
ATOM     30  H   UNL     1      47.336   1.284   5.567  0.00  0.00    +0.000 HD
ENDBRANCH  22  26
BRANCH  20  32
ATOM     31  C   UNL     1      43.656   2.508  12.296  0.00  0.00    +0.000 C 
ATOM     32  O   UNL     1      43.316   2.673  10.925  0.00  0.00    +0.000 OA
ENDBRANCH  20  32
ENDBRANCH  19  25
ENDBRANCH  18  19
ENDBRANCH   1  18
TORSDOF 8
ENDMDL
MODEL 8
REMARK VINA RESULT:    -6.390      1.869      2.797
REMARK INTER + INTRA:         -10.841
REMARK INTER:                  -9.427
REMARK INTRA:                  -1.413
REMARK UNBOUND:                -1.462
REMARK  Name = 
REMARK  9 active torsions:
REMARK  status: ('A' for Active; 'I' for Inactive)
REMARK    1  A    between atoms: C_1  and  O_2
REMARK    2  A    between atoms: O_2  and  C_3
REMARK    3  A    between atoms: C_5  and  C_6
REMARK    4  A    between atoms: C_11  and  O_12
REMARK    5  A    between atoms: O_12  and  C_13
REMARK    6  A    between atoms: C_13  and  C_14
REMARK    7  A    between atoms: C_19  and  C_20
REMARK    8  A    between atoms: C_24  and  O_25
REMARK    9  A    between atoms: O_25  and  C_26
REMARK                            x       y       z     vdW  Elec       q    Type
REMARK                         _______ _______ _______ _____ _____    ______ ____
ROOT
ATOM      1  C   UNL     1      48.075   7.878  13.272  0.00  0.00    +0.000 A 
ATOM      2  C   UNL     1      47.816   9.175  12.831  0.00  0.00    +0.000 A 
ATOM      3  C   UNL     1      46.616   9.457  12.182  0.00  0.00    +0.000 A 
ATOM      4  C   UNL     1      45.669   8.448  11.951  0.00  0.00    +0.000 A 
ATOM      5 CL   UNL     1      44.169   8.986  11.266  0.00  0.00    +0.000 Cl
ATOM      6  C   UNL     1      45.927   7.105  12.313  0.00  0.00    +0.000 A 
ATOM      7  C   UNL     1      47.138   6.865  12.997  0.00  0.00    +0.000 A 
ENDROOT
BRANCH   6   8
ATOM      8  C   UNL     1      45.045   5.946  11.993  0.00  0.00    +0.000 A 
ATOM      9  C   UNL     1      44.324   5.259  12.988  0.00  0.00    +0.000 A 
ATOM     10  C   UNL     1      43.539   4.140  12.687  0.00  0.00    +0.000 A 
ATOM     11  C   UNL     1      43.426   3.692  11.372  0.00  0.00    +0.000 A 
ATOM     12  C   UNL     1      44.137   4.339  10.367  0.00  0.00    +0.000 A 
ATOM     13  C   UNL     1      44.949   5.433  10.689  0.00  0.00    +0.000 A 
BRANCH  12  14
ATOM     14  O   UNL     1      44.110   4.036   9.036  0.00  0.00    +0.000 OA
BRANCH  14  15
ATOM     15  C   UNL     1      45.079   3.112   8.584  0.00  0.00    +0.000 C 
ATOM     16  F   UNL     1      44.616   1.853   8.776  0.00  0.00    +0.000 F 
ATOM     17  F   UNL     1      45.200   3.283   7.243  0.00  0.00    +0.000 F 
ENDBRANCH  14  15
ENDBRANCH  12  14
ENDBRANCH   6   8
BRANCH   1  18
ATOM     18  C   UNL     1      49.329   7.548  14.049  0.00  0.00    +0.000 C 
BRANCH  18  19
ATOM     19  O   UNL     1      49.315   8.240  15.291  0.00  0.00    +0.000 OA
BRANCH  19  25
ATOM     20  C   UNL     1      48.581   7.992  17.673  0.00  0.00    +0.000 A 
ATOM     21  C   UNL     1      48.364   7.076  18.710  0.00  0.00    +0.000 A 
ATOM     22  C   UNL     1      48.598   5.701  18.543  0.00  0.00    +0.000 A 
ATOM     23  C   UNL     1      49.042   5.238  17.303  0.00  0.00    +0.000 A 
ATOM     24  C   UNL     1      49.255   6.149  16.262  0.00  0.00    +0.000 A 
ATOM     25  C   UNL     1      49.033   7.522  16.427  0.00  0.00    +0.000 A 
BRANCH  22  26
ATOM     26  C   UNL     1      48.346   4.821  19.720  0.00  0.00    +0.000 C 
ATOM     27  N   UNL     1      48.560   3.479  19.600  0.00  0.00    +0.000 N 
ATOM     28  O   UNL     1      47.962   5.283  20.793  0.00  0.00    +0.000 OA
ATOM     29  H   UNL     1      48.874   3.008  18.769  0.00  0.00    +0.000 HD
ATOM     30  H   UNL     1      48.379   2.920  20.426  0.00  0.00    +0.000 HD
ENDBRANCH  22  26
BRANCH  20  32
ATOM     31  C   UNL     1      49.174  10.089  18.650  0.00  0.00    +0.000 C 
ATOM     32  O   UNL     1      48.305   9.327  17.819  0.00  0.00    +0.000 OA
ENDBRANCH  20  32
ENDBRANCH  19  25
ENDBRANCH  18  19
ENDBRANCH   1  18
TORSDOF 8
ENDMDL
MODEL 9
REMARK VINA RESULT:    -6.157      5.113      8.104
REMARK INTER + INTRA:         -10.499
REMARK INTER:                  -8.747
REMARK INTRA:                  -1.752
REMARK UNBOUND:                -1.462
REMARK  Name = 
REMARK  9 active torsions:
REMARK  status: ('A' for Active; 'I' for Inactive)
REMARK    1  A    between atoms: C_1  and  O_2
REMARK    2  A    between atoms: O_2  and  C_3
REMARK    3  A    between atoms: C_5  and  C_6
REMARK    4  A    between atoms: C_11  and  O_12
REMARK    5  A    between atoms: O_12  and  C_13
REMARK    6  A    between atoms: C_13  and  C_14
REMARK    7  A    between atoms: C_19  and  C_20
REMARK    8  A    between atoms: C_24  and  O_25
REMARK    9  A    between atoms: O_25  and  C_26
REMARK                            x       y       z     vdW  Elec       q    Type
REMARK                         _______ _______ _______ _____ _____    ______ ____
ROOT
ATOM      1  C   UNL     1      49.041   8.723  14.680  0.00  0.00    +0.000 A 
ATOM      2  C   UNL     1      48.906   9.832  15.513  0.00  0.00    +0.000 A 
ATOM      3  C   UNL     1      49.445   9.800  16.798  0.00  0.00    +0.000 A 
ATOM      4  C   UNL     1      50.110   8.658  17.270  0.00  0.00    +0.000 A 
ATOM      5 CL   UNL     1      50.850   8.828  18.830  0.00  0.00    +0.000 Cl
ATOM      6  C   UNL     1      50.200   7.486  16.484  0.00  0.00    +0.000 A 
ATOM      7  C   UNL     1      49.671   7.569  15.178  0.00  0.00    +0.000 A 
ENDROOT
BRANCH   6   8
ATOM      8  C   UNL     1      50.768   6.186  16.944  0.00  0.00    +0.000 A 
ATOM      9  C   UNL     1      52.153   5.988  17.096  0.00  0.00    +0.000 A 
ATOM     10  C   UNL     1      52.681   4.749  17.478  0.00  0.00    +0.000 A 
ATOM     11  C   UNL     1      51.834   3.677  17.752  0.00  0.00    +0.000 A 
ATOM     12  C   UNL     1      50.461   3.834  17.597  0.00  0.00    +0.000 A 
ATOM     13  C   UNL     1      49.950   5.067  17.175  0.00  0.00    +0.000 A 
BRANCH  12  14
ATOM     14  O   UNL     1      49.507   2.891  17.848  0.00  0.00    +0.000 OA
BRANCH  14  15
ATOM     15  C   UNL     1      48.259   3.370  18.309  0.00  0.00    +0.000 C 
ATOM     16  F   UNL     1      47.292   2.482  17.975  0.00  0.00    +0.000 F 
ATOM     17  F   UNL     1      48.316   3.393  19.665  0.00  0.00    +0.000 F 
ENDBRANCH  14  15
ENDBRANCH  12  14
ENDBRANCH   6   8
BRANCH   1  18
ATOM     18  C   UNL     1      48.540   8.748  13.253  0.00  0.00    +0.000 C 
BRANCH  18  19
ATOM     19  O   UNL     1      48.394   7.417  12.776  0.00  0.00    +0.000 OA
BRANCH  19  25
ATOM     20  C   UNL     1      46.753   5.635  13.409  0.00  0.00    +0.000 A 
ATOM     21  C   UNL     1      45.413   5.236  13.326  0.00  0.00    +0.000 A 
ATOM     22  C   UNL     1      44.451   6.012  12.657  0.00  0.00    +0.000 A 
ATOM     23  C   UNL     1      44.844   7.219  12.077  0.00  0.00    +0.000 A 
ATOM     24  C   UNL     1      46.181   7.625  12.163  0.00  0.00    +0.000 A 
ATOM     25  C   UNL     1      47.145   6.849  12.819  0.00  0.00    +0.000 A 
BRANCH  22  26
ATOM     26  C   UNL     1      43.058   5.482  12.619  0.00  0.00    +0.000 C 
ATOM     27  N   UNL     1      42.153   6.062  11.779  0.00  0.00    +0.000 N 
ATOM     28  O   UNL     1      42.716   4.533  13.320  0.00  0.00    +0.000 OA
ATOM     29  H   UNL     1      42.336   6.839  11.168  0.00  0.00    +0.000 HD
ATOM     30  H   UNL     1      41.219   5.669  11.783  0.00  0.00    +0.000 HD
ENDBRANCH  22  26
BRANCH  20  32
ATOM     31  C   UNL     1      47.208   3.807  14.878  0.00  0.00    +0.000 C 
ATOM     32  O   UNL     1      47.682   4.903  14.104  0.00  0.00    +0.000 OA
ENDBRANCH  20  32
ENDBRANCH  19  25
ENDBRANCH  18  19
ENDBRANCH   1  18
TORSDOF 8
ENDMDL
