MODEL 1
REMARK VINA RESULT:    -7.970      0.000      0.000
REMARK INTER + INTRA:         -11.625
REMARK INTER:                 -10.766
REMARK INTRA:                  -0.859
REMARK UNBOUND:                -0.859
REMARK  Name = 
REMARK  7 active torsions:
REMARK  status: ('A' for Active; 'I' for Inactive)
REMARK    1  A    between atoms: C_1  and  C_2
REMARK    2  A    between atoms: C_2  and  C_3
REMARK    3  A    between atoms: C_2  and  C_14
REMARK    4  A    between atoms: C_3  and  N_4
REMARK    5  A    between atoms: N_4  and  C_5
REMARK    6  A    between atoms: C_8  and  C_9
REMARK    7  A    between atoms: C_18  and  C_19
REMARK                            x       y       z     vdW  Elec       q    Type
REMARK                         _______ _______ _______ _____ _____    ______ ____
ROOT
ATOM      1  N   UNL     1      43.764   4.939   9.880  0.00  0.00    +0.000 N 
ATOM      2  H   UNL     1      42.825   4.981   9.484  0.00  0.00    +0.000 HD
ENDROOT
BRANCH   1   3
ATOM      3  C   UNL     1      44.584   4.046   9.178  0.00  0.00    +0.000 A 
ATOM      4  C   UNL     1      44.562   2.657   9.364  0.00  0.00    +0.000 A 
ATOM      5  C   UNL     1      45.447   1.815   8.681  0.00  0.00    +0.000 A 
ATOM      6  C   UNL     1      46.402   2.346   7.812  0.00  0.00    +0.000 A 
ATOM      7  C   UNL     1      46.468   3.733   7.644  0.00  0.00    +0.000 A 
ATOM      8  C   UNL     1      45.572   4.566   8.326  0.00  0.00    +0.000 A 
BRANCH   6   9
ATOM      9  C   UNL     1      47.333   1.404   7.137  0.00  0.00    +0.000 C 
ATOM     10  N   UNL     1      48.339   1.943   6.382  0.00  0.00    +0.000 N 
ATOM     11  O   UNL     1      47.194   0.193   7.219  0.00  0.00    +0.000 OA
ATOM     12  H   UNL     1      48.369   2.915   6.114  0.00  0.00    +0.000 HD
ATOM     13  H   UNL     1      48.897   1.286   5.851  0.00  0.00    +0.000 HD
ENDBRANCH   6   9
ENDBRANCH   1   3
BRANCH   1  14
ATOM     14  C   UNL     1      43.787   4.924  11.333  0.00  0.00    +0.000 C 
BRANCH  14  16
ATOM     15  C   UNL     1      45.718   3.969  12.765  0.00  0.00    +0.000 C 
ATOM     16  C   UNL     1      45.200   5.030  11.841  0.00  0.00    +0.000 C 
BRANCH  16  17
ATOM     17  C   UNL     1      45.787   6.385  11.907  0.00  0.00    +0.000 A 
ATOM     18  C   UNL     1      47.171   6.574  12.027  0.00  0.00    +0.000 A 
ATOM     19  C   UNL     1      47.712   7.857  12.149  0.00  0.00    +0.000 A 
ATOM     20  C   UNL     1      46.875   8.971  12.139  0.00  0.00    +0.000 A 
ATOM     21  C   UNL     1      45.495   8.802  11.998  0.00  0.00    +0.000 A 
ATOM     22  C   UNL     1      44.956   7.513  11.886  0.00  0.00    +0.000 A 
BRANCH  21  23
ATOM     23  C   UNL     1      44.630   9.944  11.973  0.00  0.00    +0.000 C 
ATOM     24  N   UNL     1      43.927  10.869  11.948  0.00  0.00    +0.000 NA
ENDBRANCH  21  23
ENDBRANCH  16  17
ENDBRANCH  14  16
ENDBRANCH   1  14
TORSDOF 6
ENDMDL
MODEL 2
REMARK VINA RESULT:    -7.830      1.562      2.118
REMARK INTER + INTRA:         -11.435
REMARK INTER:                 -10.472
REMARK INTRA:                  -0.963
REMARK UNBOUND:                -0.859
REMARK  Name = 
REMARK  7 active torsions:
REMARK  status: ('A' for Active; 'I' for Inactive)
REMARK    1  A    between atoms: C_1  and  C_2
REMARK    2  A    between atoms: C_2  and  C_3
REMARK    3  A    between atoms: C_2  and  C_14
REMARK    4  A    between atoms: C_3  and  N_4
REMARK    5  A    between atoms: N_4  and  C_5
REMARK    6  A    between atoms: C_8  and  C_9
REMARK    7  A    between atoms: C_18  and  C_19
REMARK                            x       y       z     vdW  Elec       q    Type
REMARK                         _______ _______ _______ _____ _____    ______ ____
ROOT
ATOM      1  N   UNL     1      43.809   4.692  10.147  0.00  0.00    +0.000 N 
ATOM      2  H   UNL     1      42.851   4.716   9.799  0.00  0.00    +0.000 HD
ENDROOT
BRANCH   1   3
ATOM      3  C   UNL     1      44.642   3.923   9.324  0.00  0.00    +0.000 A 
ATOM      4  C   UNL     1      44.750   2.529   9.409  0.00  0.00    +0.000 A 
ATOM      5  C   UNL     1      45.644   1.813   8.604  0.00  0.00    +0.000 A 
ATOM      6  C   UNL     1      46.480   2.483   7.708  0.00  0.00    +0.000 A 
ATOM      7  C   UNL     1      46.418   3.878   7.636  0.00  0.00    +0.000 A 
ATOM      8  C   UNL     1      45.513   4.583   8.441  0.00  0.00    +0.000 A 
BRANCH   6   9
ATOM      9  C   UNL     1      47.429   1.673   6.900  0.00  0.00    +0.000 C 
ATOM     10  N   UNL     1      48.541   2.303   6.412  0.00  0.00    +0.000 N 
ATOM     11  O   UNL     1      47.216   0.496   6.646  0.00  0.00    +0.000 OA
ATOM     12  H   UNL     1      48.653   3.306   6.415  0.00  0.00    +0.000 HD
ATOM     13  H   UNL     1      49.119   1.762   5.782  0.00  0.00    +0.000 HD
ENDBRANCH   6   9
ENDBRANCH   1   3
BRANCH   1  14
ATOM     14  C   UNL     1      43.905   4.537  11.589  0.00  0.00    +0.000 C 
BRANCH  14  16
ATOM     15  C   UNL     1      45.959   3.587  12.843  0.00  0.00    +0.000 C 
ATOM     16  C   UNL     1      45.332   4.690  12.044  0.00  0.00    +0.000 C 
BRANCH  16  17
ATOM     17  C   UNL     1      45.837   6.070  12.209  0.00  0.00    +0.000 A 
ATOM     18  C   UNL     1      44.997   7.107  12.638  0.00  0.00    +0.000 A 
ATOM     19  C   UNL     1      45.467   8.419  12.733  0.00  0.00    +0.000 A 
ATOM     20  C   UNL     1      46.792   8.710  12.412  0.00  0.00    +0.000 A 
ATOM     21  C   UNL     1      47.650   7.685  12.005  0.00  0.00    +0.000 A 
ATOM     22  C   UNL     1      47.170   6.372  11.901  0.00  0.00    +0.000 A 
BRANCH  21  23
ATOM     23  C   UNL     1      49.017   7.975  11.687  0.00  0.00    +0.000 C 
ATOM     24  N   UNL     1      50.125   8.207  11.427  0.00  0.00    +0.000 NA
ENDBRANCH  21  23
ENDBRANCH  16  17
ENDBRANCH  14  16
ENDBRANCH   1  14
TORSDOF 6
ENDMDL
MODEL 3
REMARK VINA RESULT:    -7.788      2.164      2.873
REMARK INTER + INTRA:         -11.379
REMARK INTER:                 -10.401
REMARK INTRA:                  -0.977
REMARK UNBOUND:                -0.859
REMARK  Name = 
REMARK  7 active torsions:
REMARK  status: ('A' for Active; 'I' for Inactive)
REMARK    1  A    between atoms: C_1  and  C_2
REMARK    2  A    between atoms: C_2  and  C_3
REMARK    3  A    between atoms: C_2  and  C_14
REMARK    4  A    between atoms: C_3  and  N_4
REMARK    5  A    between atoms: N_4  and  C_5
REMARK    6  A    between atoms: C_8  and  C_9
REMARK    7  A    between atoms: C_18  and  C_19
REMARK                            x       y       z     vdW  Elec       q    Type
REMARK                         _______ _______ _______ _____ _____    ______ ____
ROOT
ATOM      1  N   UNL     1      43.681   4.667  10.076  0.00  0.00    +0.000 N 
ATOM      2  H   UNL     1      42.965   4.039  10.438  0.00  0.00    +0.000 HD
ENDROOT
BRANCH   1   3
ATOM      3  C   UNL     1      44.648   3.979   9.331  0.00  0.00    +0.000 A 
ATOM      4  C   UNL     1      45.509   4.596   8.413  0.00  0.00    +0.000 A 
ATOM      5  C   UNL     1      46.415   3.853   7.648  0.00  0.00    +0.000 A 
ATOM      6  C   UNL     1      46.463   2.463   7.761  0.00  0.00    +0.000 A 
ATOM      7  C   UNL     1      45.584   1.823   8.641  0.00  0.00    +0.000 A 
ATOM      8  C   UNL     1      44.687   2.578   9.409  0.00  0.00    +0.000 A 
BRANCH   6   9
ATOM      9  C   UNL     1      47.427   1.724   6.903  0.00  0.00    +0.000 C 
ATOM     10  N   UNL     1      48.524   2.407   6.452  0.00  0.00    +0.000 N 
ATOM     11  O   UNL     1      47.238   0.561   6.579  0.00  0.00    +0.000 OA
ATOM     12  H   UNL     1      48.614   3.410   6.516  0.00  0.00    +0.000 HD
ATOM     13  H   UNL     1      49.111   1.917   5.790  0.00  0.00    +0.000 HD
ENDBRANCH   6   9
ENDBRANCH   1   3
BRANCH   1  14
ATOM     14  C   UNL     1      44.113   5.675  11.031  0.00  0.00    +0.000 C 
BRANCH  14  16
ATOM     15  C   UNL     1      44.449   4.131  13.079  0.00  0.00    +0.000 C 
ATOM     16  C   UNL     1      45.026   5.070  12.063  0.00  0.00    +0.000 C 
BRANCH  16  17
ATOM     17  C   UNL     1      46.247   5.831  12.404  0.00  0.00    +0.000 A 
ATOM     18  C   UNL     1      46.841   6.707  11.484  0.00  0.00    +0.000 A 
ATOM     19  C   UNL     1      48.028   7.376  11.793  0.00  0.00    +0.000 A 
ATOM     20  C   UNL     1      48.631   7.187  13.035  0.00  0.00    +0.000 A 
ATOM     21  C   UNL     1      48.042   6.335  13.973  0.00  0.00    +0.000 A 
ATOM     22  C   UNL     1      46.857   5.659  13.654  0.00  0.00    +0.000 A 
BRANCH  21  23
ATOM     23  C   UNL     1      48.650   6.148  15.257  0.00  0.00    +0.000 C 
ATOM     24  N   UNL     1      49.141   6.001  16.299  0.00  0.00    +0.000 NA
ENDBRANCH  21  23
ENDBRANCH  16  17
ENDBRANCH  14  16
ENDBRANCH   1  14
TORSDOF 6
ENDMDL
MODEL 4
REMARK VINA RESULT:    -7.546      3.075      6.639
REMARK INTER + INTRA:         -11.051
REMARK INTER:                  -9.952
REMARK INTRA:                  -1.100
REMARK UNBOUND:                -0.859
REMARK  Name = 
REMARK  7 active torsions:
REMARK  status: ('A' for Active; 'I' for Inactive)
REMARK    1  A    between atoms: C_1  and  C_2
REMARK    2  A    between atoms: C_2  and  C_3
REMARK    3  A    between atoms: C_2  and  C_14
REMARK    4  A    between atoms: C_3  and  N_4
REMARK    5  A    between atoms: N_4  and  C_5
REMARK    6  A    between atoms: C_8  and  C_9
REMARK    7  A    between atoms: C_18  and  C_19
REMARK                            x       y       z     vdW  Elec       q    Type
REMARK                         _______ _______ _______ _____ _____    ______ ____
ROOT
ATOM      1  N   UNL     1      43.525   5.298  12.695  0.00  0.00    +0.000 N 
ATOM      2  H   UNL     1      42.843   5.825  13.240  0.00  0.00    +0.000 HD
ENDROOT
BRANCH   1   3
ATOM      3  C   UNL     1      44.831   5.751  12.918  0.00  0.00    +0.000 A 
ATOM      4  C   UNL     1      45.317   6.983  12.460  0.00  0.00    +0.000 A 
ATOM      5  C   UNL     1      46.650   7.362  12.657  0.00  0.00    +0.000 A 
ATOM      6  C   UNL     1      47.544   6.499  13.294  0.00  0.00    +0.000 A 
ATOM      7  C   UNL     1      47.090   5.247  13.721  0.00  0.00    +0.000 A 
ATOM      8  C   UNL     1      45.751   4.882  13.527  0.00  0.00    +0.000 A 
BRANCH   6   9
ATOM      9  C   UNL     1      48.954   6.943  13.449  0.00  0.00    +0.000 C 
ATOM     10  N   UNL     1      49.722   7.017  12.319  0.00  0.00    +0.000 N 
ATOM     11  O   UNL     1      49.429   7.203  14.545  0.00  0.00    +0.000 OA
ATOM     12  H   UNL     1      49.444   6.618  11.435  0.00  0.00    +0.000 HD
ATOM     13  H   UNL     1      50.703   7.223  12.460  0.00  0.00    +0.000 HD
ENDBRANCH   6   9
ENDBRANCH   1   3
BRANCH   1  14
ATOM     14  C   UNL     1      43.098   5.019  11.334  0.00  0.00    +0.000 C 
BRANCH  14  16
ATOM     15  C   UNL     1      43.401   2.514  11.903  0.00  0.00    +0.000 C 
ATOM     16  C   UNL     1      43.524   3.637  10.917  0.00  0.00    +0.000 C 
BRANCH  16  17
ATOM     17  C   UNL     1      44.545   3.545   9.852  0.00  0.00    +0.000 A 
ATOM     18  C   UNL     1      45.049   4.693   9.224  0.00  0.00    +0.000 A 
ATOM     19  C   UNL     1      45.968   4.593   8.176  0.00  0.00    +0.000 A 
ATOM     20  C   UNL     1      46.408   3.341   7.751  0.00  0.00    +0.000 A 
ATOM     21  C   UNL     1      45.933   2.187   8.380  0.00  0.00    +0.000 A 
ATOM     22  C   UNL     1      45.003   2.292   9.423  0.00  0.00    +0.000 A 
BRANCH  21  23
ATOM     23  C   UNL     1      46.392   0.897   7.957  0.00  0.00    +0.000 C 
ATOM     24  N   UNL     1      46.766  -0.149   7.617  0.00  0.00    +0.000 NA
ENDBRANCH  21  23
ENDBRANCH  16  17
ENDBRANCH  14  16
ENDBRANCH   1  14
TORSDOF 6
ENDMDL
MODEL 5
REMARK VINA RESULT:    -7.444      1.739      2.626
REMARK INTER + INTRA:         -10.914
REMARK INTER:                 -10.007
REMARK INTRA:                  -0.907
REMARK UNBOUND:                -0.859
REMARK  Name = 
REMARK  7 active torsions:
REMARK  status: ('A' for Active; 'I' for Inactive)
REMARK    1  A    between atoms: C_1  and  C_2
REMARK    2  A    between atoms: C_2  and  C_3
REMARK    3  A    between atoms: C_2  and  C_14
REMARK    4  A    between atoms: C_3  and  N_4
REMARK    5  A    between atoms: N_4  and  C_5
REMARK    6  A    between atoms: C_8  and  C_9
REMARK    7  A    between atoms: C_18  and  C_19
REMARK                            x       y       z     vdW  Elec       q    Type
REMARK                         _______ _______ _______ _____ _____    ______ ____
ROOT
ATOM      1  N   UNL     1      43.545   4.624   9.698  0.00  0.00    +0.000 N 
ATOM      2  H   UNL     1      42.680   4.537   9.166  0.00  0.00    +0.000 HD
ENDROOT
BRANCH   1   3
ATOM      3  C   UNL     1      44.605   3.949   9.080  0.00  0.00    +0.000 A 
ATOM      4  C   UNL     1      45.540   4.569   8.240  0.00  0.00    +0.000 A 
ATOM      5  C   UNL     1      46.544   3.837   7.597  0.00  0.00    +0.000 A 
ATOM      6  C   UNL     1      46.622   2.452   7.756  0.00  0.00    +0.000 A 
ATOM      7  C   UNL     1      45.674   1.807   8.557  0.00  0.00    +0.000 A 
ATOM      8  C   UNL     1      44.678   2.552   9.203  0.00  0.00    +0.000 A 
BRANCH   6   9
ATOM      9  C   UNL     1      47.693   1.723   7.026  0.00  0.00    +0.000 C 
ATOM     10  N   UNL     1      48.582   2.467   6.300  0.00  0.00    +0.000 N 
ATOM     11  O   UNL     1      47.764   0.503   7.040  0.00  0.00    +0.000 OA
ATOM     12  H   UNL     1      48.441   3.444   6.088  0.00  0.00    +0.000 HD
ATOM     13  H   UNL     1      49.238   1.947   5.732  0.00  0.00    +0.000 HD
ENDBRANCH   6   9
ENDBRANCH   1   3
BRANCH   1  14
ATOM     14  C   UNL     1      43.367   4.490  11.134  0.00  0.00    +0.000 C 
BRANCH  14  16
ATOM     15  C   UNL     1      43.176   7.048  11.474  0.00  0.00    +0.000 C 
ATOM     16  C   UNL     1      43.813   5.742  11.842  0.00  0.00    +0.000 C 
BRANCH  16  17
ATOM     17  C   UNL     1      45.185   5.745  12.393  0.00  0.00    +0.000 A 
ATOM     18  C   UNL     1      45.537   4.931  13.479  0.00  0.00    +0.000 A 
ATOM     19  C   UNL     1      46.819   4.985  14.031  0.00  0.00    +0.000 A 
ATOM     20  C   UNL     1      47.773   5.847  13.495  0.00  0.00    +0.000 A 
ATOM     21  C   UNL     1      47.447   6.649  12.398  0.00  0.00    +0.000 A 
ATOM     22  C   UNL     1      46.157   6.599  11.854  0.00  0.00    +0.000 A 
BRANCH  21  23
ATOM     23  C   UNL     1      48.429   7.527  11.832  0.00  0.00    +0.000 C 
ATOM     24  N   UNL     1      49.222   8.239  11.370  0.00  0.00    +0.000 NA
ENDBRANCH  21  23
ENDBRANCH  16  17
ENDBRANCH  14  16
ENDBRANCH   1  14
TORSDOF 6
ENDMDL
MODEL 6
REMARK VINA RESULT:    -6.350      2.896      7.009
REMARK INTER + INTRA:          -9.437
REMARK INTER:                  -8.571
REMARK INTRA:                  -0.866
REMARK UNBOUND:                -0.859
REMARK  Name = 
REMARK  7 active torsions:
REMARK  status: ('A' for Active; 'I' for Inactive)
REMARK    1  A    between atoms: C_1  and  C_2
REMARK    2  A    between atoms: C_2  and  C_3
REMARK    3  A    between atoms: C_2  and  C_14
REMARK    4  A    between atoms: C_3  and  N_4
REMARK    5  A    between atoms: N_4  and  C_5
REMARK    6  A    between atoms: C_8  and  C_9
REMARK    7  A    between atoms: C_18  and  C_19
REMARK                            x       y       z     vdW  Elec       q    Type
REMARK                         _______ _______ _______ _____ _____    ______ ____
ROOT
ATOM      1  N   UNL     1      44.937   5.475  12.955  0.00  0.00    +0.000 N 
ATOM      2  H   UNL     1      43.966   5.743  12.795  0.00  0.00    +0.000 HD
ENDROOT
BRANCH   1   3
ATOM      3  C   UNL     1      45.824   6.502  12.609  0.00  0.00    +0.000 A 
ATOM      4  C   UNL     1      47.144   6.285  12.194  0.00  0.00    +0.000 A 
ATOM      5  C   UNL     1      48.009   7.350  11.918  0.00  0.00    +0.000 A 
ATOM      6  C   UNL     1      47.581   8.669  12.082  0.00  0.00    +0.000 A 
ATOM      7  C   UNL     1      46.280   8.908  12.535  0.00  0.00    +0.000 A 
ATOM      8  C   UNL     1      45.420   7.834  12.799  0.00  0.00    +0.000 A 
BRANCH   6   9
ATOM      9  C   UNL     1      48.553   9.759  11.801  0.00  0.00    +0.000 C 
ATOM     10  N   UNL     1      48.085  10.873  11.160  0.00  0.00    +0.000 N 
ATOM     11  O   UNL     1      49.734   9.659  12.099  0.00  0.00    +0.000 OA
ATOM     12  H   UNL     1      47.181  10.914  10.712  0.00  0.00    +0.000 HD
ATOM     13  H   UNL     1      48.781  11.556  10.890  0.00  0.00    +0.000 HD
ENDBRANCH   6   9
ENDBRANCH   1   3
BRANCH   1  14
ATOM     14  C   UNL     1      45.243   4.113  12.550  0.00  0.00    +0.000 C 
BRANCH  14  16
ATOM     15  C   UNL     1      43.151   2.914  11.612  0.00  0.00    +0.000 C 
ATOM     16  C   UNL     1      44.399   3.709  11.371  0.00  0.00    +0.000 C 
BRANCH  16  17
ATOM     17  C   UNL     1      45.088   3.582  10.068  0.00  0.00    +0.000 A 
ATOM     18  C   UNL     1      45.338   4.704   9.265  0.00  0.00    +0.000 A 
ATOM     19  C   UNL     1      45.934   4.567   8.008  0.00  0.00    +0.000 A 
ATOM     20  C   UNL     1      46.302   3.306   7.544  0.00  0.00    +0.000 A 
ATOM     21  C   UNL     1      46.080   2.180   8.341  0.00  0.00    +0.000 A 
ATOM     22  C   UNL     1      45.473   2.320   9.596  0.00  0.00    +0.000 A 
BRANCH  21  23
ATOM     23  C   UNL     1      46.469   0.881   7.876  0.00  0.00    +0.000 C 
ATOM     24  N   UNL     1      46.787  -0.172   7.502  0.00  0.00    +0.000 NA
ENDBRANCH  21  23
ENDBRANCH  16  17
ENDBRANCH  14  16
ENDBRANCH   1  14
TORSDOF 6
ENDMDL
MODEL 7
REMARK VINA RESULT:    -6.216      3.642      6.909
REMARK INTER + INTRA:          -9.255
REMARK INTER:                  -8.472
REMARK INTRA:                  -0.784
REMARK UNBOUND:                -0.859
REMARK  Name = 
REMARK  7 active torsions:
REMARK  status: ('A' for Active; 'I' for Inactive)
REMARK    1  A    between atoms: C_1  and  C_2
REMARK    2  A    between atoms: C_2  and  C_3
REMARK    3  A    between atoms: C_2  and  C_14
REMARK    4  A    between atoms: C_3  and  N_4
REMARK    5  A    between atoms: N_4  and  C_5
REMARK    6  A    between atoms: C_8  and  C_9
REMARK    7  A    between atoms: C_18  and  C_19
REMARK                            x       y       z     vdW  Elec       q    Type
REMARK                         _______ _______ _______ _____ _____    ______ ____
ROOT
ATOM      1  N   UNL     1      46.729   6.811  12.780  0.00  0.00    +0.000 N 
ATOM      2  H   UNL     1      47.163   7.705  13.008  0.00  0.00    +0.000 HD
ENDROOT
BRANCH   1   3
ATOM      3  C   UNL     1      47.107   5.806  13.680  0.00  0.00    +0.000 A 
ATOM      4  C   UNL     1      46.743   4.460  13.543  0.00  0.00    +0.000 A 
ATOM      5  C   UNL     1      47.095   3.506  14.504  0.00  0.00    +0.000 A 
ATOM      6  C   UNL     1      47.801   3.882  15.649  0.00  0.00    +0.000 A 
ATOM      7  C   UNL     1      48.139   5.227  15.826  0.00  0.00    +0.000 A 
ATOM      8  C   UNL     1      47.788   6.173  14.852  0.00  0.00    +0.000 A 
BRANCH   6   9
ATOM      9  C   UNL     1      48.123   2.829  16.648  0.00  0.00    +0.000 C 
ATOM     10  N   UNL     1      47.445   2.857  17.837  0.00  0.00    +0.000 N 
ATOM     11  O   UNL     1      48.983   1.986  16.439  0.00  0.00    +0.000 OA
ATOM     12  H   UNL     1      46.888   3.644  18.136  0.00  0.00    +0.000 HD
ATOM     13  H   UNL     1      47.751   2.196  18.539  0.00  0.00    +0.000 HD
ENDBRANCH   6   9
ENDBRANCH   1   3
BRANCH   1  14
ATOM     14  C   UNL     1      46.712   6.513  11.357  0.00  0.00    +0.000 C 
BRANCH  14  16
ATOM     15  C   UNL     1      44.158   6.824  11.633  0.00  0.00    +0.000 C 
ATOM     16  C   UNL     1      45.311   6.209  10.898  0.00  0.00    +0.000 C 
BRANCH  16  17
ATOM     17  C   UNL     1      45.104   4.931  10.184  0.00  0.00    +0.000 A 
ATOM     18  C   UNL     1      44.352   3.893  10.752  0.00  0.00    +0.000 A 
ATOM     19  C   UNL     1      44.212   2.667  10.097  0.00  0.00    +0.000 A 
ATOM     20  C   UNL     1      44.812   2.467   8.855  0.00  0.00    +0.000 A 
ATOM     21  C   UNL     1      45.546   3.499   8.264  0.00  0.00    +0.000 A 
ATOM     22  C   UNL     1      45.692   4.723   8.929  0.00  0.00    +0.000 A 
BRANCH  21  23
ATOM     23  C   UNL     1      46.154   3.305   6.980  0.00  0.00    +0.000 C 
ATOM     24  N   UNL     1      46.650   3.147   5.942  0.00  0.00    +0.000 NA
ENDBRANCH  21  23
ENDBRANCH  16  17
ENDBRANCH  14  16
ENDBRANCH   1  14
TORSDOF 6
ENDMDL
MODEL 8
REMARK VINA RESULT:    -6.183      4.222      7.142
REMARK INTER + INTRA:          -9.210
REMARK INTER:                  -8.353
REMARK INTRA:                  -0.857
REMARK UNBOUND:                -0.859
REMARK  Name = 
REMARK  7 active torsions:
REMARK  status: ('A' for Active; 'I' for Inactive)
REMARK    1  A    between atoms: C_1  and  C_2
REMARK    2  A    between atoms: C_2  and  C_3
REMARK    3  A    between atoms: C_2  and  C_14
REMARK    4  A    between atoms: C_3  and  N_4
REMARK    5  A    between atoms: N_4  and  C_5
REMARK    6  A    between atoms: C_8  and  C_9
REMARK    7  A    between atoms: C_18  and  C_19
REMARK                            x       y       z     vdW  Elec       q    Type
REMARK                         _______ _______ _______ _____ _____    ______ ____
ROOT
ATOM      1  N   UNL     1      47.897   7.165  13.387  0.00  0.00    +0.000 N 
ATOM      2  H   UNL     1      48.771   7.688  13.394  0.00  0.00    +0.000 HD
ENDROOT
BRANCH   1   3
ATOM      3  C   UNL     1      47.884   6.162  14.366  0.00  0.00    +0.000 A 
ATOM      4  C   UNL     1      47.146   4.976  14.256  0.00  0.00    +0.000 A 
ATOM      5  C   UNL     1      47.119   4.034  15.290  0.00  0.00    +0.000 A 
ATOM      6  C   UNL     1      47.809   4.270  16.481  0.00  0.00    +0.000 A 
ATOM      7  C   UNL     1      48.519   5.466  16.627  0.00  0.00    +0.000 A 
ATOM      8  C   UNL     1      48.546   6.398  15.582  0.00  0.00    +0.000 A 
BRANCH   6   9
ATOM      9  C   UNL     1      47.721   3.246  17.555  0.00  0.00    +0.000 C 
ATOM     10  N   UNL     1      48.824   3.058  18.342  0.00  0.00    +0.000 N 
ATOM     11  O   UNL     1      46.716   2.568  17.716  0.00  0.00    +0.000 OA
ATOM     12  H   UNL     1      49.733   3.435  18.118  0.00  0.00    +0.000 HD
ATOM     13  H   UNL     1      48.777   2.289  18.998  0.00  0.00    +0.000 HD
ENDBRANCH   6   9
ENDBRANCH   1   3
BRANCH   1  14
ATOM     14  C   UNL     1      47.410   6.854  12.053  0.00  0.00    +0.000 C 
BRANCH  14  16
ATOM     15  C   UNL     1      45.446   8.481  12.484  0.00  0.00    +0.000 C 
ATOM     16  C   UNL     1      45.945   7.178  11.936  0.00  0.00    +0.000 C 
BRANCH  16  17
ATOM     17  C   UNL     1      45.012   6.035  11.847  0.00  0.00    +0.000 A 
ATOM     18  C   UNL     1      43.917   5.919  12.715  0.00  0.00    +0.000 A 
ATOM     19  C   UNL     1      43.076   4.804  12.665  0.00  0.00    +0.000 A 
ATOM     20  C   UNL     1      43.310   3.796  11.732  0.00  0.00    +0.000 A 
ATOM     21  C   UNL     1      44.383   3.906  10.844  0.00  0.00    +0.000 A 
ATOM     22  C   UNL     1      45.230   5.020  10.906  0.00  0.00    +0.000 A 
BRANCH  21  23
ATOM     23  C   UNL     1      44.621   2.879   9.873  0.00  0.00    +0.000 C 
ATOM     24  N   UNL     1      44.812   2.044   9.088  0.00  0.00    +0.000 NA
ENDBRANCH  21  23
ENDBRANCH  16  17
ENDBRANCH  14  16
ENDBRANCH   1  14
TORSDOF 6
ENDMDL
MODEL 9
REMARK VINA RESULT:    -6.020      3.815      5.538
REMARK INTER + INTRA:          -8.991
REMARK INTER:                  -8.089
REMARK INTRA:                  -0.902
REMARK UNBOUND:                -0.859
REMARK  Name = 
REMARK  7 active torsions:
REMARK  status: ('A' for Active; 'I' for Inactive)
REMARK    1  A    between atoms: C_1  and  C_2
REMARK    2  A    between atoms: C_2  and  C_3
REMARK    3  A    between atoms: C_2  and  C_14
REMARK    4  A    between atoms: C_3  and  N_4
REMARK    5  A    between atoms: N_4  and  C_5
REMARK    6  A    between atoms: C_8  and  C_9
REMARK    7  A    between atoms: C_18  and  C_19
REMARK                            x       y       z     vdW  Elec       q    Type
REMARK                         _______ _______ _______ _____ _____    ______ ____
ROOT
ATOM      1  N   UNL     1      46.658   7.795  12.233  0.00  0.00    +0.000 N 
ATOM      2  H   UNL     1      46.231   8.619  11.811  0.00  0.00    +0.000 HD
ENDROOT
BRANCH   1   3
ATOM      3  C   UNL     1      45.935   6.630  11.947  0.00  0.00    +0.000 A 
ATOM      4  C   UNL     1      45.345   5.819  12.925  0.00  0.00    +0.000 A 
ATOM      5  C   UNL     1      44.685   4.631  12.590  0.00  0.00    +0.000 A 
ATOM      6  C   UNL     1      44.623   4.207  11.261  0.00  0.00    +0.000 A 
ATOM      7  C   UNL     1      45.241   4.981  10.273  0.00  0.00    +0.000 A 
ATOM      8  C   UNL     1      45.891   6.173  10.619  0.00  0.00    +0.000 A 
BRANCH   6   9
ATOM      9  C   UNL     1      43.934   2.923  10.968  0.00  0.00    +0.000 C 
ATOM     10  N   UNL     1      44.457   2.136   9.979  0.00  0.00    +0.000 N 
ATOM     11  O   UNL     1      42.917   2.590  11.560  0.00  0.00    +0.000 OA
ATOM     12  H   UNL     1      45.157   2.459   9.329  0.00  0.00    +0.000 HD
ATOM     13  H   UNL     1      43.916   1.318   9.728  0.00  0.00    +0.000 HD
ENDBRANCH   6   9
ENDBRANCH   1   3
BRANCH   1  14
ATOM     14  C   UNL     1      47.137   8.012  13.588  0.00  0.00    +0.000 C 
BRANCH  14  16
ATOM     15  C   UNL     1      49.370   7.290  12.499  0.00  0.00    +0.000 C 
ATOM     16  C   UNL     1      48.553   7.521  13.734  0.00  0.00    +0.000 C 
BRANCH  16  17
ATOM     17  C   UNL     1      48.871   6.752  14.956  0.00  0.00    +0.000 A 
ATOM     18  C   UNL     1      50.059   6.975  15.668  0.00  0.00    +0.000 A 
ATOM     19  C   UNL     1      50.380   6.202  16.787  0.00  0.00    +0.000 A 
ATOM     20  C   UNL     1      49.509   5.204  17.219  0.00  0.00    +0.000 A 
ATOM     21  C   UNL     1      48.310   4.984  16.536  0.00  0.00    +0.000 A 
ATOM     22  C   UNL     1      47.997   5.754  15.408  0.00  0.00    +0.000 A 
BRANCH  21  23
ATOM     23  C   UNL     1      47.403   3.969  16.983  0.00  0.00    +0.000 C 
ATOM     24  N   UNL     1      46.667   3.145  17.342  0.00  0.00    +0.000 NA
ENDBRANCH  21  23
ENDBRANCH  16  17
ENDBRANCH  14  16
ENDBRANCH   1  14
TORSDOF 6
ENDMDL
