MODEL 1
REMARK VINA RESULT:    -7.669      0.000      0.000
REMARK INTER + INTRA:         -10.278
REMARK INTER:                  -9.686
REMARK INTRA:                  -0.591
REMARK UNBOUND:                -0.591
REMARK  Name = 
REMARK  5 active torsions:
REMARK  status: ('A' for Active; 'I' for Inactive)
REMARK    1  A    between atoms: N_1  and  C_2
REMARK    2  A    between atoms: C_2  and  C_3
REMARK    3  A    between atoms: C_3  and  C_4
REMARK    4  A    between atoms: C_7  and  C_8
REMARK    5  A    between atoms: C_8  and  N_9
REMARK                            x       y       z     vdW  Elec       q    Type
REMARK                         _______ _______ _______ _____ _____    ______ ____
ROOT
ATOM      1  C   UNL     1      45.994   2.440   8.133  0.00  0.00    +0.000 A 
ATOM      2  C   UNL     1      46.000   3.838   8.043  0.00  0.00    +0.000 A 
ATOM      3  C   UNL     1      45.152   4.604   8.844  0.00  0.00    +0.000 A 
ATOM      4  C   UNL     1      44.280   3.988   9.756  0.00  0.00    +0.000 A 
ATOM      5  C   UNL     1      44.275   2.592   9.847  0.00  0.00    +0.000 A 
ATOM      6  C   UNL     1      45.133   1.826   9.052  0.00  0.00    +0.000 A 
ENDROOT
BRANCH   1   7
ATOM      7  C   UNL     1      46.897   1.605   7.258  0.00  0.00    +0.000 C 
BRANCH   7   8
ATOM      8  C   UNL     1      48.020   2.423   6.611  0.00  0.00    +0.000 C 
BRANCH   8   9
ATOM      9  N   UNL     1      48.560   1.733   5.439  0.00  0.00    +0.000 NA
ATOM     10  H   UNL     1      49.071   2.398   4.860  0.00  0.00    +0.000 HD
ATOM     11  H   UNL     1      47.797   1.383   4.862  0.00  0.00    +0.000 HD
ENDBRANCH   8   9
ENDBRANCH   7   8
ENDBRANCH   1   7
BRANCH   4  12
ATOM     12  C   UNL     1      43.404   4.819  10.658  0.00  0.00    +0.000 C 
BRANCH  12  13
ATOM     13  N   UNL     1      44.108   5.757  11.525  0.00  0.00    +0.000 N 
ATOM     14  C   UNL     1      44.195   7.111  11.335  0.00  0.00    +0.000 A 
ATOM     15  N   UNL     1      45.243   7.624  11.941  0.00  0.00    +0.000 NA
ATOM     16  C   UNL     1      45.845   6.567  12.576  0.00  0.00    +0.000 A 
ATOM     17  C   UNL     1      47.050   6.524  13.292  0.00  0.00    +0.000 A 
ATOM     18  C   UNL     1      47.462   5.307  13.850  0.00  0.00    +0.000 A 
ATOM     19  C   UNL     1      46.668   4.165  13.733  0.00  0.00    +0.000 A 
ATOM     20  C   UNL     1      45.468   4.185  13.013  0.00  0.00    +0.000 A 
ATOM     21  C   UNL     1      45.104   5.398  12.412  0.00  0.00    +0.000 A 
ENDBRANCH  12  13
ENDBRANCH   4  12
TORSDOF 5
ENDMDL
MODEL 2
REMARK VINA RESULT:    -6.761      2.070      6.150
REMARK INTER + INTRA:          -9.131
REMARK INTER:                  -8.604
REMARK INTRA:                  -0.527
REMARK UNBOUND:                -0.591
REMARK  Name = 
REMARK  5 active torsions:
REMARK  status: ('A' for Active; 'I' for Inactive)
REMARK    1  A    between atoms: N_1  and  C_2
REMARK    2  A    between atoms: C_2  and  C_3
REMARK    3  A    between atoms: C_3  and  C_4
REMARK    4  A    between atoms: C_7  and  C_8
REMARK    5  A    between atoms: C_8  and  N_9
REMARK                            x       y       z     vdW  Elec       q    Type
REMARK                         _______ _______ _______ _____ _____    ______ ____
ROOT
ATOM      1  C   UNL     1      46.730   5.528  13.009  0.00  0.00    +0.000 A 
ATOM      2  C   UNL     1      46.647   6.310  11.850  0.00  0.00    +0.000 A 
ATOM      3  C   UNL     1      45.847   5.909  10.780  0.00  0.00    +0.000 A 
ATOM      4  C   UNL     1      45.109   4.716  10.845  0.00  0.00    +0.000 A 
ATOM      5  C   UNL     1      45.191   3.936  12.004  0.00  0.00    +0.000 A 
ATOM      6  C   UNL     1      45.984   4.344  13.081  0.00  0.00    +0.000 A 
ENDROOT
BRANCH   1   7
ATOM      7  C   UNL     1      47.606   5.948  14.165  0.00  0.00    +0.000 C 
BRANCH   7   8
ATOM      8  C   UNL     1      48.454   7.185  13.848  0.00  0.00    +0.000 C 
BRANCH   8   9
ATOM      9  N   UNL     1      49.846   6.979  14.249  0.00  0.00    +0.000 NA
ATOM     10  H   UNL     1      50.031   7.499  15.108  0.00  0.00    +0.000 HD
ATOM     11  H   UNL     1      50.470   7.368  13.544  0.00  0.00    +0.000 HD
ENDBRANCH   8   9
ENDBRANCH   7   8
ENDBRANCH   1   7
BRANCH   4  12
ATOM     12  C   UNL     1      44.205   4.312   9.711  0.00  0.00    +0.000 C 
BRANCH  12  13
ATOM     13  N   UNL     1      44.614   3.121   8.975  0.00  0.00    +0.000 N 
ATOM     14  C   UNL     1      44.334   1.827   9.327  0.00  0.00    +0.000 A 
ATOM     15  N   UNL     1      45.195   0.980   8.807  0.00  0.00    +0.000 NA
ATOM     16  C   UNL     1      46.051   1.750   8.061  0.00  0.00    +0.000 A 
ATOM     17  C   UNL     1      47.212   1.379   7.367  0.00  0.00    +0.000 A 
ATOM     18  C   UNL     1      47.930   2.362   6.674  0.00  0.00    +0.000 A 
ATOM     19  C   UNL     1      47.476   3.682   6.639  0.00  0.00    +0.000 A 
ATOM     20  C   UNL     1      46.327   4.074   7.335  0.00  0.00    +0.000 A 
ATOM     21  C   UNL     1      45.657   3.087   8.069  0.00  0.00    +0.000 A 
ENDBRANCH  12  13
ENDBRANCH   4  12
TORSDOF 5
ENDMDL
MODEL 3
REMARK VINA RESULT:    -6.514      1.572      2.323
REMARK INTER + INTRA:          -8.819
REMARK INTER:                  -8.316
REMARK INTRA:                  -0.503
REMARK UNBOUND:                -0.591
REMARK  Name = 
REMARK  5 active torsions:
REMARK  status: ('A' for Active; 'I' for Inactive)
REMARK    1  A    between atoms: N_1  and  C_2
REMARK    2  A    between atoms: C_2  and  C_3
REMARK    3  A    between atoms: C_3  and  C_4
REMARK    4  A    between atoms: C_7  and  C_8
REMARK    5  A    between atoms: C_8  and  N_9
REMARK                            x       y       z     vdW  Elec       q    Type
REMARK                         _______ _______ _______ _____ _____    ______ ____
ROOT
ATOM      1  C   UNL     1      45.726   3.032   7.731  0.00  0.00    +0.000 A 
ATOM      2  C   UNL     1      45.964   4.396   7.943  0.00  0.00    +0.000 A 
ATOM      3  C   UNL     1      45.675   4.983   9.175  0.00  0.00    +0.000 A 
ATOM      4  C   UNL     1      45.144   4.218  10.226  0.00  0.00    +0.000 A 
ATOM      5  C   UNL     1      44.908   2.854  10.014  0.00  0.00    +0.000 A 
ATOM      6  C   UNL     1      45.208   2.265   8.783  0.00  0.00    +0.000 A 
ENDROOT
BRANCH   1   7
ATOM      7  C   UNL     1      46.020   2.394   6.395  0.00  0.00    +0.000 C 
BRANCH   7   8
ATOM      8  C   UNL     1      47.365   2.835   5.809  0.00  0.00    +0.000 C 
BRANCH   8   9
ATOM      9  N   UNL     1      48.358   1.766   5.918  0.00  0.00    +0.000 NA
ATOM     10  H   UNL     1      49.291   2.155   5.779  0.00  0.00    +0.000 HD
ATOM     11  H   UNL     1      48.219   1.089   5.170  0.00  0.00    +0.000 HD
ENDBRANCH   8   9
ENDBRANCH   7   8
ENDBRANCH   1   7
BRANCH   4  12
ATOM     12  C   UNL     1      44.884   4.842  11.572  0.00  0.00    +0.000 C 
BRANCH  12  13
ATOM     13  N   UNL     1      46.028   4.882  12.477  0.00  0.00    +0.000 N 
ATOM     14  C   UNL     1      46.190   4.111  13.598  0.00  0.00    +0.000 A 
ATOM     15  N   UNL     1      47.014   4.665  14.458  0.00  0.00    +0.000 NA
ATOM     16  C   UNL     1      47.431   5.828  13.861  0.00  0.00    +0.000 A 
ATOM     17  C   UNL     1      48.242   6.853  14.369  0.00  0.00    +0.000 A 
ATOM     18  C   UNL     1      48.524   7.958  13.556  0.00  0.00    +0.000 A 
ATOM     19  C   UNL     1      48.042   8.021  12.247  0.00  0.00    +0.000 A 
ATOM     20  C   UNL     1      47.222   7.014  11.726  0.00  0.00    +0.000 A 
ATOM     21  C   UNL     1      46.903   5.946  12.576  0.00  0.00    +0.000 A 
ENDBRANCH  12  13
ENDBRANCH   4  12
TORSDOF 5
ENDMDL
MODEL 4
REMARK VINA RESULT:    -6.476      2.110      6.111
REMARK INTER + INTRA:          -8.771
REMARK INTER:                  -8.185
REMARK INTRA:                  -0.585
REMARK UNBOUND:                -0.591
REMARK  Name = 
REMARK  5 active torsions:
REMARK  status: ('A' for Active; 'I' for Inactive)
REMARK    1  A    between atoms: N_1  and  C_2
REMARK    2  A    between atoms: C_2  and  C_3
REMARK    3  A    between atoms: C_3  and  C_4
REMARK    4  A    between atoms: C_7  and  C_8
REMARK    5  A    between atoms: C_8  and  N_9
REMARK                            x       y       z     vdW  Elec       q    Type
REMARK                         _______ _______ _______ _____ _____    ______ ____
ROOT
ATOM      1  C   UNL     1      47.759   6.436  13.402  0.00  0.00    +0.000 A 
ATOM      2  C   UNL     1      47.625   6.993  12.124  0.00  0.00    +0.000 A 
ATOM      3  C   UNL     1      46.469   6.775  11.373  0.00  0.00    +0.000 A 
ATOM      4  C   UNL     1      45.419   5.997  11.886  0.00  0.00    +0.000 A 
ATOM      5  C   UNL     1      45.553   5.442  13.164  0.00  0.00    +0.000 A 
ATOM      6  C   UNL     1      46.707   5.670  13.919  0.00  0.00    +0.000 A 
ENDROOT
BRANCH   1   7
ATOM      7  C   UNL     1      49.014   6.653  14.212  0.00  0.00    +0.000 C 
BRANCH   7   8
ATOM      8  C   UNL     1      48.766   6.575  15.723  0.00  0.00    +0.000 C 
BRANCH   8   9
ATOM      9  N   UNL     1      49.458   5.425  16.306  0.00  0.00    +0.000 NA
ATOM     10  H   UNL     1      49.333   5.433  17.319  0.00  0.00    +0.000 HD
ATOM     11  H   UNL     1      50.460   5.506  16.144  0.00  0.00    +0.000 HD
ENDBRANCH   8   9
ENDBRANCH   7   8
ENDBRANCH   1   7
BRANCH   4  12
ATOM     12  C   UNL     1      44.149   5.809  11.097  0.00  0.00    +0.000 C 
BRANCH  12  13
ATOM     13  N   UNL     1      43.958   4.480  10.525  0.00  0.00    +0.000 N 
ATOM     14  C   UNL     1      43.337   3.426  11.140  0.00  0.00    +0.000 A 
ATOM     15  N   UNL     1      43.722   2.272  10.642  0.00  0.00    +0.000 NA
ATOM     16  C   UNL     1      44.605   2.589   9.640  0.00  0.00    +0.000 A 
ATOM     17  C   UNL     1      45.389   1.745   8.840  0.00  0.00    +0.000 A 
ATOM     18  C   UNL     1      46.230   2.316   7.877  0.00  0.00    +0.000 A 
ATOM     19  C   UNL     1      46.258   3.699   7.686  0.00  0.00    +0.000 A 
ATOM     20  C   UNL     1      45.493   4.558   8.482  0.00  0.00    +0.000 A 
ATOM     21  C   UNL     1      44.703   3.970   9.479  0.00  0.00    +0.000 A 
ENDBRANCH  12  13
ENDBRANCH   4  12
TORSDOF 5
ENDMDL
MODEL 5
REMARK VINA RESULT:    -5.656      1.846      2.691
REMARK INTER + INTRA:          -7.736
REMARK INTER:                  -7.432
REMARK INTRA:                  -0.303
REMARK UNBOUND:                -0.591
REMARK  Name = 
REMARK  5 active torsions:
REMARK  status: ('A' for Active; 'I' for Inactive)
REMARK    1  A    between atoms: N_1  and  C_2
REMARK    2  A    between atoms: C_2  and  C_3
REMARK    3  A    between atoms: C_3  and  C_4
REMARK    4  A    between atoms: C_7  and  C_8
REMARK    5  A    between atoms: C_8  and  N_9
REMARK                            x       y       z     vdW  Elec       q    Type
REMARK                         _______ _______ _______ _____ _____    ______ ____
ROOT
ATOM      1  C   UNL     1      45.016   3.917   9.011  0.00  0.00    +0.000 A 
ATOM      2  C   UNL     1      45.675   5.143   9.158  0.00  0.00    +0.000 A 
ATOM      3  C   UNL     1      45.682   5.802  10.388  0.00  0.00    +0.000 A 
ATOM      4  C   UNL     1      45.031   5.246  11.501  0.00  0.00    +0.000 A 
ATOM      5  C   UNL     1      44.374   4.019  11.354  0.00  0.00    +0.000 A 
ATOM      6  C   UNL     1      44.377   3.355  10.123  0.00  0.00    +0.000 A 
ENDROOT
BRANCH   1   7
ATOM      7  C   UNL     1      44.990   3.207   7.678  0.00  0.00    +0.000 C 
BRANCH   7   8
ATOM      8  C   UNL     1      46.344   3.243   6.960  0.00  0.00    +0.000 C 
BRANCH   8   9
ATOM      9  N   UNL     1      47.157   2.081   7.322  0.00  0.00    +0.000 NA
ATOM     10  H   UNL     1      48.145   2.320   7.237  0.00  0.00    +0.000 HD
ATOM     11  H   UNL     1      46.991   1.324   6.661  0.00  0.00    +0.000 HD
ENDBRANCH   8   9
ENDBRANCH   7   8
ENDBRANCH   1   7
BRANCH   4  12
ATOM     12  C   UNL     1      45.085   5.932  12.841  0.00  0.00    +0.000 C 
BRANCH  12  13
ATOM     13  N   UNL     1      45.744   7.233  12.854  0.00  0.00    +0.000 N 
ATOM     14  C   UNL     1      45.146   8.435  12.582  0.00  0.00    +0.000 A 
ATOM     15  N   UNL     1      46.017   9.338  12.189  0.00  0.00    +0.000 NA
ATOM     16  C   UNL     1      47.235   8.708  12.238  0.00  0.00    +0.000 A 
ATOM     17  C   UNL     1      48.497   9.171  11.838  0.00  0.00    +0.000 A 
ATOM     18  C   UNL     1      49.605   8.327  11.984  0.00  0.00    +0.000 A 
ATOM     19  C   UNL     1      49.464   7.061  12.556  0.00  0.00    +0.000 A 
ATOM     20  C   UNL     1      48.212   6.577  12.951  0.00  0.00    +0.000 A 
ATOM     21  C   UNL     1      47.109   7.415  12.741  0.00  0.00    +0.000 A 
ENDBRANCH  12  13
ENDBRANCH   4  12
TORSDOF 5
ENDMDL
MODEL 6
REMARK VINA RESULT:    -5.244      4.724      7.779
REMARK INTER + INTRA:          -7.214
REMARK INTER:                  -6.935
REMARK INTRA:                  -0.279
REMARK UNBOUND:                -0.591
REMARK  Name = 
REMARK  5 active torsions:
REMARK  status: ('A' for Active; 'I' for Inactive)
REMARK    1  A    between atoms: N_1  and  C_2
REMARK    2  A    between atoms: C_2  and  C_3
REMARK    3  A    between atoms: C_3  and  C_4
REMARK    4  A    between atoms: C_7  and  C_8
REMARK    5  A    between atoms: C_8  and  N_9
REMARK                            x       y       z     vdW  Elec       q    Type
REMARK                         _______ _______ _______ _____ _____    ______ ____
ROOT
ATOM      1  C   UNL     1      50.977   2.835  17.559  0.00  0.00    +0.000 A 
ATOM      2  C   UNL     1      50.062   1.990  16.918  0.00  0.00    +0.000 A 
ATOM      3  C   UNL     1      48.850   2.489  16.440  0.00  0.00    +0.000 A 
ATOM      4  C   UNL     1      48.527   3.847  16.590  0.00  0.00    +0.000 A 
ATOM      5  C   UNL     1      49.442   4.692  17.229  0.00  0.00    +0.000 A 
ATOM      6  C   UNL     1      50.661   4.192  17.698  0.00  0.00    +0.000 A 
ENDROOT
BRANCH   1   7
ATOM      7  C   UNL     1      52.283   2.298  18.094  0.00  0.00    +0.000 C 
BRANCH   7   8
ATOM      8  C   UNL     1      52.638   0.922  17.520  0.00  0.00    +0.000 C 
BRANCH   8   9
ATOM      9  N   UNL     1      52.216  -0.147  18.426  0.00  0.00    +0.000 NA
ATOM     10  H   UNL     1      51.258   0.025  18.729  0.00  0.00    +0.000 HD
ATOM     11  H   UNL     1      52.787  -0.130  19.270  0.00  0.00    +0.000 HD
ENDBRANCH   8   9
ENDBRANCH   7   8
ENDBRANCH   1   7
BRANCH   4  12
ATOM     12  C   UNL     1      47.242   4.395  16.026  0.00  0.00    +0.000 C 
BRANCH  12  13
ATOM     13  N   UNL     1      47.352   5.026  14.715  0.00  0.00    +0.000 N 
ATOM     14  C   UNL     1      47.847   6.280  14.469  0.00  0.00    +0.000 A 
ATOM     15  N   UNL     1      47.393   6.773  13.338  0.00  0.00    +0.000 NA
ATOM     16  C   UNL     1      46.596   5.788  12.810  0.00  0.00    +0.000 A 
ATOM     17  C   UNL     1      45.789   5.811  11.664  0.00  0.00    +0.000 A 
ATOM     18  C   UNL     1      45.053   4.666  11.332  0.00  0.00    +0.000 A 
ATOM     19  C   UNL     1      45.153   3.507  12.104  0.00  0.00    +0.000 A 
ATOM     20  C   UNL     1      45.944   3.468  13.258  0.00  0.00    +0.000 A 
ATOM     21  C   UNL     1      46.625   4.643  13.605  0.00  0.00    +0.000 A 
ENDBRANCH  12  13
ENDBRANCH   4  12
TORSDOF 5
ENDMDL
MODEL 7
REMARK VINA RESULT:    -5.212      2.762      5.810
REMARK INTER + INTRA:          -7.174
REMARK INTER:                  -6.723
REMARK INTRA:                  -0.451
REMARK UNBOUND:                -0.591
REMARK  Name = 
REMARK  5 active torsions:
REMARK  status: ('A' for Active; 'I' for Inactive)
REMARK    1  A    between atoms: N_1  and  C_2
REMARK    2  A    between atoms: C_2  and  C_3
REMARK    3  A    between atoms: C_3  and  C_4
REMARK    4  A    between atoms: C_7  and  C_8
REMARK    5  A    between atoms: C_8  and  N_9
REMARK                            x       y       z     vdW  Elec       q    Type
REMARK                         _______ _______ _______ _____ _____    ______ ____
ROOT
ATOM      1  C   UNL     1      47.651   7.941  12.777  0.00  0.00    +0.000 A 
ATOM      2  C   UNL     1      46.503   8.638  13.176  0.00  0.00    +0.000 A 
ATOM      3  C   UNL     1      45.252   8.297  12.661  0.00  0.00    +0.000 A 
ATOM      4  C   UNL     1      45.120   7.249  11.736  0.00  0.00    +0.000 A 
ATOM      5  C   UNL     1      46.267   6.552  11.339  0.00  0.00    +0.000 A 
ATOM      6  C   UNL     1      47.518   6.887  11.864  0.00  0.00    +0.000 A 
ENDROOT
BRANCH   1   7
ATOM      7  C   UNL     1      49.010   8.315  13.317  0.00  0.00    +0.000 C 
BRANCH   7   8
ATOM      8  C   UNL     1      50.150   7.960  12.356  0.00  0.00    +0.000 C 
BRANCH   8   9
ATOM      9  N   UNL     1      50.503   9.107  11.519  0.00  0.00    +0.000 NA
ATOM     10  H   UNL     1      50.815   8.776  10.605  0.00  0.00    +0.000 HD
ATOM     11  H   UNL     1      51.295   9.600  11.926  0.00  0.00    +0.000 HD
ENDBRANCH   8   9
ENDBRANCH   7   8
ENDBRANCH   1   7
BRANCH   4  12
ATOM     12  C   UNL     1      43.762   6.847  11.223  0.00  0.00    +0.000 C 
BRANCH  12  13
ATOM     13  N   UNL     1      43.464   5.421  11.286  0.00  0.00    +0.000 N 
ATOM     14  C   UNL     1      43.146   4.718  12.418  0.00  0.00    +0.000 A 
ATOM     15  N   UNL     1      43.405   3.436  12.289  0.00  0.00    +0.000 NA
ATOM     16  C   UNL     1      43.881   3.293  11.010  0.00  0.00    +0.000 A 
ATOM     17  C   UNL     1      44.397   2.155  10.371  0.00  0.00    +0.000 A 
ATOM     18  C   UNL     1      44.832   2.264   9.044  0.00  0.00    +0.000 A 
ATOM     19  C   UNL     1      44.717   3.472   8.354  0.00  0.00    +0.000 A 
ATOM     20  C   UNL     1      44.216   4.620   8.977  0.00  0.00    +0.000 A 
ATOM     21  C   UNL     1      43.842   4.505  10.323  0.00  0.00    +0.000 A 
ENDBRANCH  12  13
ENDBRANCH   4  12
TORSDOF 5
ENDMDL
MODEL 8
REMARK VINA RESULT:    -5.073      3.167      4.973
REMARK INTER + INTRA:          -6.999
REMARK INTER:                  -6.497
REMARK INTRA:                  -0.502
REMARK UNBOUND:                -0.591
REMARK  Name = 
REMARK  5 active torsions:
REMARK  status: ('A' for Active; 'I' for Inactive)
REMARK    1  A    between atoms: N_1  and  C_2
REMARK    2  A    between atoms: C_2  and  C_3
REMARK    3  A    between atoms: C_3  and  C_4
REMARK    4  A    between atoms: C_7  and  C_8
REMARK    5  A    between atoms: C_8  and  N_9
REMARK                            x       y       z     vdW  Elec       q    Type
REMARK                         _______ _______ _______ _____ _____    ______ ____
ROOT
ATOM      1  C   UNL     1      44.908   4.155  11.483  0.00  0.00    +0.000 A 
ATOM      2  C   UNL     1      45.479   4.082  12.761  0.00  0.00    +0.000 A 
ATOM      3  C   UNL     1      46.122   5.189  13.315  0.00  0.00    +0.000 A 
ATOM      4  C   UNL     1      46.206   6.397  12.604  0.00  0.00    +0.000 A 
ATOM      5  C   UNL     1      45.635   6.470  11.329  0.00  0.00    +0.000 A 
ATOM      6  C   UNL     1      44.981   5.363  10.779  0.00  0.00    +0.000 A 
ENDROOT
BRANCH   1   7
ATOM      7  C   UNL     1      44.226   2.955  10.871  0.00  0.00    +0.000 C 
BRANCH   7   8
ATOM      8  C   UNL     1      44.539   2.791   9.380  0.00  0.00    +0.000 C 
BRANCH   8   9
ATOM      9  N   UNL     1      45.303   1.567   9.138  0.00  0.00    +0.000 NA
ATOM     10  H   UNL     1      46.215   1.808   8.750  0.00  0.00    +0.000 HD
ATOM     11  H   UNL     1      44.835   1.001   8.432  0.00  0.00    +0.000 HD
ENDBRANCH   8   9
ENDBRANCH   7   8
ENDBRANCH   1   7
BRANCH   4  12
ATOM     12  C   UNL     1      46.853   7.607  13.226  0.00  0.00    +0.000 C 
BRANCH  12  13
ATOM     13  N   UNL     1      48.221   7.416  13.695  0.00  0.00    +0.000 N 
ATOM     14  C   UNL     1      48.616   7.350  15.006  0.00  0.00    +0.000 A 
ATOM     15  N   UNL     1      49.884   7.662  15.151  0.00  0.00    +0.000 NA
ATOM     16  C   UNL     1      50.342   7.911  13.882  0.00  0.00    +0.000 A 
ATOM     17  C   UNL     1      51.596   8.375  13.459  0.00  0.00    +0.000 A 
ATOM     18  C   UNL     1      51.823   8.559  12.089  0.00  0.00    +0.000 A 
ATOM     19  C   UNL     1      50.833   8.247  11.156  0.00  0.00    +0.000 A 
ATOM     20  C   UNL     1      49.572   7.794  11.558  0.00  0.00    +0.000 A 
ATOM     21  C   UNL     1      49.346   7.673  12.936  0.00  0.00    +0.000 A 
ENDBRANCH  12  13
ENDBRANCH   4  12
TORSDOF 5
ENDMDL
MODEL 9
REMARK VINA RESULT:    -4.989      3.316      5.512
REMARK INTER + INTRA:          -6.893
REMARK INTER:                  -6.405
REMARK INTRA:                  -0.488
REMARK UNBOUND:                -0.591
REMARK  Name = 
REMARK  5 active torsions:
REMARK  status: ('A' for Active; 'I' for Inactive)
REMARK    1  A    between atoms: N_1  and  C_2
REMARK    2  A    between atoms: C_2  and  C_3
REMARK    3  A    between atoms: C_3  and  C_4
REMARK    4  A    between atoms: C_7  and  C_8
REMARK    5  A    between atoms: C_8  and  N_9
REMARK                            x       y       z     vdW  Elec       q    Type
REMARK                         _______ _______ _______ _____ _____    ______ ____
ROOT
ATOM      1  C   UNL     1      45.008   5.039  11.758  0.00  0.00    +0.000 A 
ATOM      2  C   UNL     1      45.611   4.437  12.870  0.00  0.00    +0.000 A 
ATOM      3  C   UNL     1      46.793   4.954  13.402  0.00  0.00    +0.000 A 
ATOM      4  C   UNL     1      47.398   6.087  12.834  0.00  0.00    +0.000 A 
ATOM      5  C   UNL     1      46.794   6.688  11.724  0.00  0.00    +0.000 A 
ATOM      6  C   UNL     1      45.604   6.176  11.199  0.00  0.00    +0.000 A 
ENDROOT
BRANCH   1   7
ATOM      7  C   UNL     1      43.739   4.475  11.167  0.00  0.00    +0.000 C 
BRANCH   7   8
ATOM      8  C   UNL     1      43.867   2.996  10.784  0.00  0.00    +0.000 C 
BRANCH   8   9
ATOM      9  N   UNL     1      43.028   2.161  11.644  0.00  0.00    +0.000 NA
ATOM     10  H   UNL     1      42.077   2.142  11.275  0.00  0.00    +0.000 HD
ATOM     11  H   UNL     1      42.964   2.575  12.572  0.00  0.00    +0.000 HD
ENDBRANCH   8   9
ENDBRANCH   7   8
ENDBRANCH   1   7
BRANCH   4  12
ATOM     12  C   UNL     1      48.644   6.675  13.443  0.00  0.00    +0.000 C 
BRANCH  12  13
ATOM     13  N   UNL     1      48.447   7.415  14.684  0.00  0.00    +0.000 N 
ATOM     14  C   UNL     1      48.390   8.779  14.802  0.00  0.00    +0.000 A 
ATOM     15  N   UNL     1      48.694   9.179  16.017  0.00  0.00    +0.000 NA
ATOM     16  C   UNL     1      48.927   8.028  16.727  0.00  0.00    +0.000 A 
ATOM     17  C   UNL     1      49.377   7.867  18.045  0.00  0.00    +0.000 A 
ATOM     18  C   UNL     1      49.547   6.571  18.549  0.00  0.00    +0.000 A 
ATOM     19  C   UNL     1      49.233   5.457  17.768  0.00  0.00    +0.000 A 
ATOM     20  C   UNL     1      48.794   5.597  16.447  0.00  0.00    +0.000 A 
ATOM     21  C   UNL     1      48.688   6.900  15.943  0.00  0.00    +0.000 A 
ENDBRANCH  12  13
ENDBRANCH   4  12
TORSDOF 5
ENDMDL
