MODEL 1
REMARK VINA RESULT:    -7.733      0.000      0.000
REMARK INTER + INTRA:          -9.393
REMARK INTER:                  -9.089
REMARK INTRA:                  -0.304
REMARK UNBOUND:                -0.304
REMARK  Name = 
REMARK  3 active torsions:
REMARK  status: ('A' for Active; 'I' for Inactive)
REMARK    1  A    between atoms: C_2  and  C_4
REMARK    2  A    between atoms: N_8  and  C_9
REMARK    3  A    between atoms: C_9  and  C_10
REMARK                            x       y       z     vdW  Elec       q    Type
REMARK                         _______ _______ _______ _____ _____    ______ ____
ROOT
ATOM      1  C   UNL     1      46.492   2.656   7.435  0.00  0.00    +0.000 A 
ATOM      2  C   UNL     1      45.857   1.685   8.203  0.00  0.00    +0.000 A 
ATOM      3  C   UNL     1      44.918   2.086   9.155  0.00  0.00    +0.000 A 
ATOM      4  C   UNL     1      44.665   3.442   9.353  0.00  0.00    +0.000 A 
ATOM      5  N   UNL     1      43.788   3.777  10.384  0.00  0.00    +0.000 N 
ATOM      6  N   UNL     1      45.279   4.393   8.624  0.00  0.00    +0.000 NA
ATOM      7  C   UNL     1      46.175   3.984   7.682  0.00  0.00    +0.000 A 
ATOM      8  H   UNL     1      42.855   3.422  10.197  0.00  0.00    +0.000 HD
ENDROOT
BRANCH   1  10
ATOM      9  N   UNL     1      47.567   3.141   5.313  0.00  0.00    +0.000 N 
ATOM     10  C   UNL     1      47.503   2.327   6.409  0.00  0.00    +0.000 C 
ATOM     11  O   UNL     1      48.271   1.383   6.545  0.00  0.00    +0.000 OA
ATOM     12  H   UNL     1      48.316   2.959   4.655  0.00  0.00    +0.000 HD
ATOM     13  H   UNL     1      47.127   4.049   5.278  0.00  0.00    +0.000 HD
ENDBRANCH   1  10
BRANCH   5  14
ATOM     14  C   UNL     1      43.803   5.153  10.844  0.00  0.00    +0.000 C 
BRANCH  14  15
ATOM     15  C   UNL     1      44.965   5.292  11.794  0.00  0.00    +0.000 A 
ATOM     16  C   UNL     1      45.948   6.272  11.637  0.00  0.00    +0.000 A 
ATOM     17  C   UNL     1      46.955   6.397  12.591  0.00  0.00    +0.000 A 
ATOM     18  C   UNL     1      46.948   5.536  13.676  0.00  0.00    +0.000 A 
ATOM     19  N   UNL     1      46.019   4.576  13.867  0.00  0.00    +0.000 NA
ATOM     20  C   UNL     1      45.047   4.482  12.926  0.00  0.00    +0.000 A 
ENDBRANCH  14  15
ENDBRANCH   5  14
TORSDOF 3
ENDMDL
MODEL 2
REMARK VINA RESULT:    -7.716      2.651      6.137
REMARK INTER + INTRA:          -9.373
REMARK INTER:                  -8.961
REMARK INTRA:                  -0.411
REMARK UNBOUND:                -0.304
REMARK  Name = 
REMARK  3 active torsions:
REMARK  status: ('A' for Active; 'I' for Inactive)
REMARK    1  A    between atoms: C_2  and  C_4
REMARK    2  A    between atoms: N_8  and  C_9
REMARK    3  A    between atoms: C_9  and  C_10
REMARK                            x       y       z     vdW  Elec       q    Type
REMARK                         _______ _______ _______ _____ _____    ______ ____
ROOT
ATOM      1  C   UNL     1      46.619   5.226  13.303  0.00  0.00    +0.000 A 
ATOM      2  C   UNL     1      46.902   6.217  12.368  0.00  0.00    +0.000 A 
ATOM      3  C   UNL     1      46.246   6.190  11.138  0.00  0.00    +0.000 A 
ATOM      4  C   UNL     1      45.359   5.156  10.845  0.00  0.00    +0.000 A 
ATOM      5  N   UNL     1      44.811   5.137   9.563  0.00  0.00    +0.000 N 
ATOM      6  N   UNL     1      45.083   4.185  11.735  0.00  0.00    +0.000 NA
ATOM      7  C   UNL     1      45.713   4.239  12.942  0.00  0.00    +0.000 A 
ATOM      8  H   UNL     1      44.230   5.953   9.404  0.00  0.00    +0.000 HD
ENDROOT
BRANCH   1  10
ATOM      9  N   UNL     1      46.724   4.323  15.554  0.00  0.00    +0.000 N 
ATOM     10  C   UNL     1      47.269   5.169  14.629  0.00  0.00    +0.000 C 
ATOM     11  O   UNL     1      48.269   5.829  14.881  0.00  0.00    +0.000 OA
ATOM     12  H   UNL     1      47.223   4.228  16.431  0.00  0.00    +0.000 HD
ATOM     13  H   UNL     1      46.062   3.600  15.314  0.00  0.00    +0.000 HD
ENDBRANCH   1  10
BRANCH   5  14
ATOM     14  C   UNL     1      44.201   3.896   9.123  0.00  0.00    +0.000 C 
BRANCH  14  15
ATOM     15  C   UNL     1      45.258   3.118   8.382  0.00  0.00    +0.000 A 
ATOM     16  C   UNL     1      46.104   3.711   7.442  0.00  0.00    +0.000 A 
ATOM     17  C   UNL     1      47.111   2.953   6.847  0.00  0.00    +0.000 A 
ATOM     18  C   UNL     1      47.242   1.624   7.212  0.00  0.00    +0.000 A 
ATOM     19  N   UNL     1      46.448   1.012   8.116  0.00  0.00    +0.000 NA
ATOM     20  C   UNL     1      45.480   1.775   8.684  0.00  0.00    +0.000 A 
ENDBRANCH  14  15
ENDBRANCH   5  14
TORSDOF 3
ENDMDL
MODEL 3
REMARK VINA RESULT:    -7.051      2.930      6.205
REMARK INTER + INTRA:          -8.592
REMARK INTER:                  -8.305
REMARK INTRA:                  -0.287
REMARK UNBOUND:                -0.304
REMARK  Name = 
REMARK  3 active torsions:
REMARK  status: ('A' for Active; 'I' for Inactive)
REMARK    1  A    between atoms: C_2  and  C_4
REMARK    2  A    between atoms: N_8  and  C_9
REMARK    3  A    between atoms: C_9  and  C_10
REMARK                            x       y       z     vdW  Elec       q    Type
REMARK                         _______ _______ _______ _____ _____    ______ ____
ROOT
ATOM      1  C   UNL     1      45.753   6.579  12.507  0.00  0.00    +0.000 A 
ATOM      2  C   UNL     1      45.725   5.415  13.269  0.00  0.00    +0.000 A 
ATOM      3  C   UNL     1      45.502   4.196  12.629  0.00  0.00    +0.000 A 
ATOM      4  C   UNL     1      45.268   4.164  11.255  0.00  0.00    +0.000 A 
ATOM      5  N   UNL     1      44.957   2.926  10.695  0.00  0.00    +0.000 N 
ATOM      6  N   UNL     1      45.282   5.284  10.507  0.00  0.00    +0.000 NA
ATOM      7  C   UNL     1      45.526   6.463  11.143  0.00  0.00    +0.000 A 
ATOM      8  H   UNL     1      45.737   2.282  10.782  0.00  0.00    +0.000 HD
ENDROOT
BRANCH   1  10
ATOM      9  N   UNL     1      47.027   8.045  13.964  0.00  0.00    +0.000 N 
ATOM     10  C   UNL     1      45.977   7.915  13.098  0.00  0.00    +0.000 C 
ATOM     11  O   UNL     1      45.272   8.872  12.805  0.00  0.00    +0.000 OA
ATOM     12  H   UNL     1      47.225   8.980  14.301  0.00  0.00    +0.000 HD
ATOM     13  H   UNL     1      47.762   7.357  14.043  0.00  0.00    +0.000 HD
ENDBRANCH   1  10
BRANCH   5  14
ATOM     14  C   UNL     1      44.353   2.929   9.375  0.00  0.00    +0.000 C 
BRANCH  14  15
ATOM     15  C   UNL     1      45.434   2.567   8.390  0.00  0.00    +0.000 A 
ATOM     16  C   UNL     1      45.999   3.502   7.519  0.00  0.00    +0.000 A 
ATOM     17  C   UNL     1      47.047   3.121   6.684  0.00  0.00    +0.000 A 
ATOM     18  C   UNL     1      47.500   1.814   6.746  0.00  0.00    +0.000 A 
ATOM     19  N   UNL     1      46.984   0.879   7.572  0.00  0.00    +0.000 NA
ATOM     20  C   UNL     1      45.969   1.280   8.378  0.00  0.00    +0.000 A 
ENDBRANCH  14  15
ENDBRANCH   5  14
TORSDOF 3
ENDMDL
MODEL 4
REMARK VINA RESULT:    -6.389      3.613      5.805
REMARK INTER + INTRA:          -7.813
REMARK INTER:                  -7.510
REMARK INTRA:                  -0.303
REMARK UNBOUND:                -0.304
REMARK  Name = 
REMARK  3 active torsions:
REMARK  status: ('A' for Active; 'I' for Inactive)
REMARK    1  A    between atoms: C_2  and  C_4
REMARK    2  A    between atoms: N_8  and  C_9
REMARK    3  A    between atoms: C_9  and  C_10
REMARK                            x       y       z     vdW  Elec       q    Type
REMARK                         _______ _______ _______ _____ _____    ______ ____
ROOT
ATOM      1  C   UNL     1      45.264   4.536  11.599  0.00  0.00    +0.000 A 
ATOM      2  C   UNL     1      45.804   5.779  11.917  0.00  0.00    +0.000 A 
ATOM      3  C   UNL     1      46.515   5.921  13.109  0.00  0.00    +0.000 A 
ATOM      4  C   UNL     1      46.637   4.839  13.978  0.00  0.00    +0.000 A 
ATOM      5  N   UNL     1      47.278   5.073  15.194  0.00  0.00    +0.000 N 
ATOM      6  N   UNL     1      46.112   3.633  13.689  0.00  0.00    +0.000 NA
ATOM      7  C   UNL     1      45.441   3.505  12.510  0.00  0.00    +0.000 A 
ATOM      8  H   UNL     1      48.250   5.327  15.050  0.00  0.00    +0.000 HD
ENDROOT
BRANCH   1  10
ATOM      9  N   UNL     1      44.999   4.804   9.201  0.00  0.00    +0.000 N 
ATOM     10  C   UNL     1      44.491   4.294  10.364  0.00  0.00    +0.000 C 
ATOM     11  O   UNL     1      43.456   3.640  10.373  0.00  0.00    +0.000 OA
ATOM     12  H   UNL     1      44.508   4.563   8.348  0.00  0.00    +0.000 HD
ATOM     13  H   UNL     1      45.950   5.132   9.115  0.00  0.00    +0.000 HD
ENDBRANCH   1  10
BRANCH   5  14
ATOM     14  C   UNL     1      47.085   4.091  16.244  0.00  0.00    +0.000 C 
BRANCH  14  15
ATOM     15  C   UNL     1      48.450   3.578  16.630  0.00  0.00    +0.000 A 
ATOM     16  C   UNL     1      49.331   4.317  17.423  0.00  0.00    +0.000 A 
ATOM     17  C   UNL     1      50.547   3.756  17.807  0.00  0.00    +0.000 A 
ATOM     18  C   UNL     1      50.845   2.472  17.386  0.00  0.00    +0.000 A 
ATOM     19  N   UNL     1      50.023   1.723  16.620  0.00  0.00    +0.000 NA
ATOM     20  C   UNL     1      48.844   2.292  16.266  0.00  0.00    +0.000 A 
ENDBRANCH  14  15
ENDBRANCH   5  14
TORSDOF 3
ENDMDL
MODEL 5
REMARK VINA RESULT:    -5.753      4.958      8.500
REMARK INTER + INTRA:          -7.066
REMARK INTER:                  -6.821
REMARK INTRA:                  -0.245
REMARK UNBOUND:                -0.304
REMARK  Name = 
REMARK  3 active torsions:
REMARK  status: ('A' for Active; 'I' for Inactive)
REMARK    1  A    between atoms: C_2  and  C_4
REMARK    2  A    between atoms: N_8  and  C_9
REMARK    3  A    between atoms: C_9  and  C_10
REMARK                            x       y       z     vdW  Elec       q    Type
REMARK                         _______ _______ _______ _____ _____    ______ ____
ROOT
ATOM      1  C   UNL     1      48.991   4.533  18.187  0.00  0.00    +0.000 A 
ATOM      2  C   UNL     1      48.142   3.434  18.109  0.00  0.00    +0.000 A 
ATOM      3  C   UNL     1      47.414   3.225  16.937  0.00  0.00    +0.000 A 
ATOM      4  C   UNL     1      47.512   4.136  15.887  0.00  0.00    +0.000 A 
ATOM      5  N   UNL     1      46.687   3.921  14.784  0.00  0.00    +0.000 N 
ATOM      6  N   UNL     1      48.322   5.210  15.952  0.00  0.00    +0.000 NA
ATOM      7  C   UNL     1      49.044   5.386  17.093  0.00  0.00    +0.000 A 
ATOM      8  H   UNL     1      46.922   3.050  14.319  0.00  0.00    +0.000 HD
ENDROOT
BRANCH   1  10
ATOM      9  N   UNL     1      49.378   4.295  20.572  0.00  0.00    +0.000 N 
ATOM     10  C   UNL     1      49.796   4.837  19.388  0.00  0.00    +0.000 C 
ATOM     11  O   UNL     1      50.810   5.520  19.325  0.00  0.00    +0.000 OA
ATOM     12  H   UNL     1      49.979   4.439  21.374  0.00  0.00    +0.000 HD
ATOM     13  H   UNL     1      48.702   3.546  20.624  0.00  0.00    +0.000 HD
ENDBRANCH   1  10
BRANCH   5  14
ATOM     14  C   UNL     1      46.498   5.033  13.871  0.00  0.00    +0.000 C 
BRANCH  14  15
ATOM     15  C   UNL     1      45.298   4.709  13.017  0.00  0.00    +0.000 A 
ATOM     16  C   UNL     1      45.154   3.484  12.361  0.00  0.00    +0.000 A 
ATOM     17  C   UNL     1      43.988   3.218  11.648  0.00  0.00    +0.000 A 
ATOM     18  C   UNL     1      42.998   4.186  11.614  0.00  0.00    +0.000 A 
ATOM     19  N   UNL     1      43.095   5.381  12.234  0.00  0.00    +0.000 NA
ATOM     20  C   UNL     1      44.240   5.611  12.925  0.00  0.00    +0.000 A 
ENDBRANCH  14  15
ENDBRANCH   5  14
TORSDOF 3
ENDMDL
MODEL 6
REMARK VINA RESULT:    -5.750      3.673      5.899
REMARK INTER + INTRA:          -7.063
REMARK INTER:                  -6.842
REMARK INTRA:                  -0.221
REMARK UNBOUND:                -0.304
REMARK  Name = 
REMARK  3 active torsions:
REMARK  status: ('A' for Active; 'I' for Inactive)
REMARK    1  A    between atoms: C_2  and  C_4
REMARK    2  A    between atoms: N_8  and  C_9
REMARK    3  A    between atoms: C_9  and  C_10
REMARK                            x       y       z     vdW  Elec       q    Type
REMARK                         _______ _______ _______ _____ _____    ______ ____
ROOT
ATOM      1  C   UNL     1      44.944   4.283  11.749  0.00  0.00    +0.000 A 
ATOM      2  C   UNL     1      45.149   5.598  12.156  0.00  0.00    +0.000 A 
ATOM      3  C   UNL     1      45.958   5.842  13.266  0.00  0.00    +0.000 A 
ATOM      4  C   UNL     1      46.507   4.774  13.974  0.00  0.00    +0.000 A 
ATOM      5  N   UNL     1      47.225   5.084  15.128  0.00  0.00    +0.000 N 
ATOM      6  N   UNL     1      46.309   3.497  13.598  0.00  0.00    +0.000 NA
ATOM      7  C   UNL     1      45.537   3.276  12.497  0.00  0.00    +0.000 A 
ATOM      8  H   UNL     1      48.053   5.627  14.906  0.00  0.00    +0.000 HD
ENDROOT
BRANCH   1  10
ATOM      9  N   UNL     1      44.142   4.765   9.508  0.00  0.00    +0.000 N 
ATOM     10  C   UNL     1      44.099   3.929  10.589  0.00  0.00    +0.000 C 
ATOM     11  O   UNL     1      43.413   2.915  10.582  0.00  0.00    +0.000 OA
ATOM     12  H   UNL     1      43.625   4.472   8.687  0.00  0.00    +0.000 HD
ATOM     13  H   UNL     1      44.861   5.462   9.382  0.00  0.00    +0.000 HD
ENDBRANCH   1  10
BRANCH   5  14
ATOM     14  C   UNL     1      47.475   4.002  16.062  0.00  0.00    +0.000 C 
BRANCH  14  15
ATOM     15  C   UNL     1      48.115   4.608  17.285  0.00  0.00    +0.000 A 
ATOM     16  C   UNL     1      49.499   4.735  17.421  0.00  0.00    +0.000 A 
ATOM     17  C   UNL     1      50.025   5.373  18.543  0.00  0.00    +0.000 A 
ATOM     18  C   UNL     1      49.149   5.865  19.495  0.00  0.00    +0.000 A 
ATOM     19  N   UNL     1      47.805   5.765  19.403  0.00  0.00    +0.000 NA
ATOM     20  C   UNL     1      47.322   5.145  18.297  0.00  0.00    +0.000 A 
ENDBRANCH  14  15
ENDBRANCH   5  14
TORSDOF 3
ENDMDL
MODEL 7
REMARK VINA RESULT:    -5.574      3.480      5.275
REMARK INTER + INTRA:          -6.855
REMARK INTER:                  -6.549
REMARK INTRA:                  -0.306
REMARK UNBOUND:                -0.304
REMARK  Name = 
REMARK  3 active torsions:
REMARK  status: ('A' for Active; 'I' for Inactive)
REMARK    1  A    between atoms: C_2  and  C_4
REMARK    2  A    between atoms: N_8  and  C_9
REMARK    3  A    between atoms: C_9  and  C_10
REMARK                            x       y       z     vdW  Elec       q    Type
REMARK                         _______ _______ _______ _____ _____    ______ ____
ROOT
ATOM      1  C   UNL     1      44.584   4.034  11.721  0.00  0.00    +0.000 A 
ATOM      2  C   UNL     1      45.345   3.954  12.884  0.00  0.00    +0.000 A 
ATOM      3  C   UNL     1      45.894   5.122  13.413  0.00  0.00    +0.000 A 
ATOM      4  C   UNL     1      45.713   6.336  12.753  0.00  0.00    +0.000 A 
ATOM      5  N   UNL     1      46.367   7.447  13.282  0.00  0.00    +0.000 N 
ATOM      6  N   UNL     1      44.988   6.428  11.622  0.00  0.00    +0.000 NA
ATOM      7  C   UNL     1      44.438   5.282  11.131  0.00  0.00    +0.000 A 
ATOM      8  H   UNL     1      46.017   7.668  14.209  0.00  0.00    +0.000 HD
ENDROOT
BRANCH   1  10
ATOM      9  N   UNL     1      44.628   2.303  10.020  0.00  0.00    +0.000 N 
ATOM     10  C   UNL     1      43.970   2.850  11.086  0.00  0.00    +0.000 C 
ATOM     11  O   UNL     1      42.931   2.361  11.512  0.00  0.00    +0.000 OA
ATOM     12  H   UNL     1      44.245   1.444   9.642  0.00  0.00    +0.000 HD
ATOM     13  H   UNL     1      45.587   2.524   9.795  0.00  0.00    +0.000 HD
ENDBRANCH   1  10
BRANCH   5  14
ATOM     14  C   UNL     1      46.500   8.609  12.422  0.00  0.00    +0.000 C 
BRANCH  14  15
ATOM     15  C   UNL     1      47.966   8.766  12.109  0.00  0.00    +0.000 A 
ATOM     16  C   UNL     1      48.794   7.675  11.833  0.00  0.00    +0.000 A 
ATOM     17  C   UNL     1      50.123   7.892  11.478  0.00  0.00    +0.000 A 
ATOM     18  C   UNL     1      50.584   9.196  11.408  0.00  0.00    +0.000 A 
ATOM     19  N   UNL     1      49.820  10.278  11.665  0.00  0.00    +0.000 NA
ATOM     20  C   UNL     1      48.528  10.037  12.003  0.00  0.00    +0.000 A 
ENDBRANCH  14  15
ENDBRANCH   5  14
TORSDOF 3
ENDMDL
MODEL 8
REMARK VINA RESULT:    -5.284      3.229      4.915
REMARK INTER + INTRA:          -6.515
REMARK INTER:                  -6.188
REMARK INTRA:                  -0.327
REMARK UNBOUND:                -0.304
REMARK  Name = 
REMARK  3 active torsions:
REMARK  status: ('A' for Active; 'I' for Inactive)
REMARK    1  A    between atoms: C_2  and  C_4
REMARK    2  A    between atoms: N_8  and  C_9
REMARK    3  A    between atoms: C_9  and  C_10
REMARK                            x       y       z     vdW  Elec       q    Type
REMARK                         _______ _______ _______ _____ _____    ______ ____
ROOT
ATOM      1  C   UNL     1      44.783   4.019  11.152  0.00  0.00    +0.000 A 
ATOM      2  C   UNL     1      45.172   4.914  10.159  0.00  0.00    +0.000 A 
ATOM      3  C   UNL     1      45.938   6.024  10.515  0.00  0.00    +0.000 A 
ATOM      4  C   UNL     1      46.264   6.245  11.852  0.00  0.00    +0.000 A 
ATOM      5  N   UNL     1      46.949   7.422  12.149  0.00  0.00    +0.000 N 
ATOM      6  N   UNL     1      45.887   5.393  12.824  0.00  0.00    +0.000 NA
ATOM      7  C   UNL     1      45.160   4.301  12.457  0.00  0.00    +0.000 A 
ATOM      8  H   UNL     1      47.866   7.428  11.714  0.00  0.00    +0.000 HD
ENDROOT
BRANCH   1  10
ATOM      9  N   UNL     1      44.373   2.016   9.842  0.00  0.00    +0.000 N 
ATOM     10  C   UNL     1      43.967   2.820  10.871  0.00  0.00    +0.000 C 
ATOM     11  O   UNL     1      42.984   2.541  11.546  0.00  0.00    +0.000 OA
ATOM     12  H   UNL     1      43.858   1.154   9.709  0.00  0.00    +0.000 HD
ATOM     13  H   UNL     1      45.292   2.079   9.427  0.00  0.00    +0.000 HD
ENDBRANCH   1  10
BRANCH   5  14
ATOM     14  C   UNL     1      46.964   7.846  13.537  0.00  0.00    +0.000 C 
BRANCH  14  15
ATOM     15  C   UNL     1      48.378   7.691  14.036  0.00  0.00    +0.000 A 
ATOM     16  C   UNL     1      49.423   8.506  13.592  0.00  0.00    +0.000 A 
ATOM     17  C   UNL     1      50.692   8.362  14.147  0.00  0.00    +0.000 A 
ATOM     18  C   UNL     1      50.878   7.406  15.131  0.00  0.00    +0.000 A 
ATOM     19  N   UNL     1      49.898   6.598  15.589  0.00  0.00    +0.000 NA
ATOM     20  C   UNL     1      48.671   6.765  15.035  0.00  0.00    +0.000 A 
ENDBRANCH  14  15
ENDBRANCH   5  14
TORSDOF 3
ENDMDL
MODEL 9
REMARK VINA RESULT:    -4.917      5.219      8.554
REMARK INTER + INTRA:          -6.083
REMARK INTER:                  -5.795
REMARK INTRA:                  -0.288
REMARK UNBOUND:                -0.304
REMARK  Name = 
REMARK  3 active torsions:
REMARK  status: ('A' for Active; 'I' for Inactive)
REMARK    1  A    between atoms: C_2  and  C_4
REMARK    2  A    between atoms: N_8  and  C_9
REMARK    3  A    between atoms: C_9  and  C_10
REMARK                            x       y       z     vdW  Elec       q    Type
REMARK                         _______ _______ _______ _____ _____    ______ ____
ROOT
ATOM      1  C   UNL     1      50.838   3.818  17.823  0.00  0.00    +0.000 A 
ATOM      2  C   UNL     1      50.714   5.192  17.645  0.00  0.00    +0.000 A 
ATOM      3  C   UNL     1      49.595   5.687  16.975  0.00  0.00    +0.000 A 
ATOM      4  C   UNL     1      48.648   4.806  16.457  0.00  0.00    +0.000 A 
ATOM      5  N   UNL     1      47.606   5.361  15.717  0.00  0.00    +0.000 N 
ATOM      6  N   UNL     1      48.760   3.473  16.612  0.00  0.00    +0.000 NA
ATOM      7  C   UNL     1      49.846   3.006  17.291  0.00  0.00    +0.000 A 
ATOM      8  H   UNL     1      47.028   5.961  16.297  0.00  0.00    +0.000 HD
ENDROOT
BRANCH   1  10
ATOM      9  N   UNL     1      52.207   1.869  18.299  0.00  0.00    +0.000 N 
ATOM     10  C   UNL     1      51.990   3.202  18.514  0.00  0.00    +0.000 C 
ATOM     11  O   UNL     1      52.738   3.862  19.225  0.00  0.00    +0.000 OA
ATOM     12  H   UNL     1      53.044   1.474  18.709  0.00  0.00    +0.000 HD
ATOM     13  H   UNL     1      51.769   1.357  17.548  0.00  0.00    +0.000 HD
ENDBRANCH   1  10
BRANCH   5  14
ATOM     14  C   UNL     1      46.842   4.462  14.872  0.00  0.00    +0.000 C 
BRANCH  14  15
ATOM     15  C   UNL     1      46.440   5.239  13.644  0.00  0.00    +0.000 A 
ATOM     16  C   UNL     1      47.360   5.958  12.878  0.00  0.00    +0.000 A 
ATOM     17  C   UNL     1      46.938   6.594  11.713  0.00  0.00    +0.000 A 
ATOM     18  C   UNL     1      45.607   6.489  11.348  0.00  0.00    +0.000 A 
ATOM     19  N   UNL     1      44.685   5.805  12.057  0.00  0.00    +0.000 NA
ATOM     20  C   UNL     1      45.125   5.191  13.184  0.00  0.00    +0.000 A 
ENDBRANCH  14  15
ENDBRANCH   5  14
TORSDOF 3
ENDMDL
