MODEL 1
REMARK VINA RESULT:    -8.181      0.000      0.000
REMARK INTER + INTRA:         -11.264
REMARK INTER:                 -10.572
REMARK INTRA:                  -0.692
REMARK UNBOUND:                -0.692
REMARK  Name = 
REMARK  6 active torsions:
REMARK  status: ('A' for Active; 'I' for Inactive)
REMARK    1  A    between atoms: C_1  and  C_2
REMARK    2  A    between atoms: C_2  and  C_4
REMARK    3  A    between atoms: C_7  and  N_8
REMARK    4  A    between atoms: N_8  and  C_9
REMARK    5  A    between atoms: C_9  and  C_10
REMARK    6  A    between atoms: C_14  and  N_15
REMARK                            x       y       z     vdW  Elec       q    Type
REMARK                         _______ _______ _______ _____ _____    ______ ____
ROOT
ATOM      1  C   UNL     1      43.586   4.936  11.296  0.00  0.00    +0.000 C 
ENDROOT
BRANCH   1   2
ATOM      2  C   UNL     1      44.624   5.867  11.861  0.00  0.00    +0.000 A 
ATOM      3  C   UNL     1      44.751   7.168  11.415  0.00  0.00    +0.000 A 
ATOM      4  N   UNL     1      45.688   8.010  11.901  0.00  0.00    +0.000 NA
ATOM      5  C   UNL     1      46.481   7.483  12.874  0.00  0.00    +0.000 A 
ATOM      6  C   UNL     1      46.386   6.172  13.353  0.00  0.00    +0.000 A 
ATOM      7  N   UNL     1      45.442   5.366  12.822  0.00  0.00    +0.000 NA
BRANCH   6   8
ATOM      8  N   UNL     1      47.130   5.683  14.412  0.00  0.00    +0.000 N 
ATOM      9  C   UNL     1      47.089   4.225  14.628  0.00  0.00    +0.000 C 
ATOM     10  C   UNL     1      47.436   3.928  16.094  0.00  0.00    +0.000 C 
ATOM     11  O   UNL     1      48.704   4.495  16.466  0.00  0.00    +0.000 OA
ATOM     12  C   UNL     1      48.691   5.919  16.267  0.00  0.00    +0.000 C 
ATOM     13  C   UNL     1      48.412   6.283  14.798  0.00  0.00    +0.000 C 
ENDBRANCH   6   8
ENDBRANCH   1   2
BRANCH   1  14
ATOM     14  N   UNL     1      43.657   4.862   9.837  0.00  0.00    +0.000 N 
ATOM     15  H   UNL     1      42.737   4.794   9.398  0.00  0.00    +0.000 HD
BRANCH  14  19
ATOM     16  C   UNL     1      46.242   2.079   7.981  0.00  0.00    +0.000 A 
ATOM     17  C   UNL     1      46.342   3.433   7.661  0.00  0.00    +0.000 A 
ATOM     18  C   UNL     1      45.503   4.366   8.278  0.00  0.00    +0.000 A 
ATOM     19  C   UNL     1      44.568   3.982   9.247  0.00  0.00    +0.000 A 
ATOM     20  C   UNL     1      44.488   2.622   9.572  0.00  0.00    +0.000 A 
ATOM     21  C   UNL     1      45.311   1.677   8.945  0.00  0.00    +0.000 A 
BRANCH  16  23
ATOM     22  C   UNL     1      46.731  -0.408   7.480  0.00  0.00    +0.000 C 
ATOM     23  C   UNL     1      47.090   1.048   7.315  0.00  0.00    +0.000 C 
ATOM     24  O   UNL     1      48.060   1.392   6.646  0.00  0.00    +0.000 OA
ENDBRANCH  16  23
ENDBRANCH  14  19
ENDBRANCH   1  14
TORSDOF 5
ENDMDL
MODEL 2
REMARK VINA RESULT:    -8.142      2.251      3.513
REMARK INTER + INTRA:         -11.214
REMARK INTER:                 -10.484
REMARK INTRA:                  -0.731
REMARK UNBOUND:                -0.692
REMARK  Name = 
REMARK  6 active torsions:
REMARK  status: ('A' for Active; 'I' for Inactive)
REMARK    1  A    between atoms: C_1  and  C_2
REMARK    2  A    between atoms: C_2  and  C_4
REMARK    3  A    between atoms: C_7  and  N_8
REMARK    4  A    between atoms: N_8  and  C_9
REMARK    5  A    between atoms: C_9  and  C_10
REMARK    6  A    between atoms: C_14  and  N_15
REMARK                            x       y       z     vdW  Elec       q    Type
REMARK                         _______ _______ _______ _____ _____    ______ ____
ROOT
ATOM      1  C   UNL     1      43.959   3.428  11.996  0.00  0.00    +0.000 C 
ENDROOT
BRANCH   1   2
ATOM      2  C   UNL     1      45.122   4.226  12.522  0.00  0.00    +0.000 A 
ATOM      3  C   UNL     1      46.179   3.622  13.175  0.00  0.00    +0.000 A 
ATOM      4  N   UNL     1      47.220   4.326  13.666  0.00  0.00    +0.000 NA
ATOM      5  C   UNL     1      47.156   5.669  13.450  0.00  0.00    +0.000 A 
ATOM      6  C   UNL     1      46.106   6.318  12.794  0.00  0.00    +0.000 A 
ATOM      7  N   UNL     1      45.080   5.570  12.336  0.00  0.00    +0.000 NA
BRANCH   6   8
ATOM      8  N   UNL     1      46.104   7.668  12.492  0.00  0.00    +0.000 N 
ATOM      9  C   UNL     1      47.414   8.280  12.197  0.00  0.00    +0.000 C 
ATOM     10  C   UNL     1      47.331   9.790  12.469  0.00  0.00    +0.000 C 
ATOM     11  O   UNL     1      46.267  10.406  11.725  0.00  0.00    +0.000 OA
ATOM     12  C   UNL     1      45.007   9.801  12.062  0.00  0.00    +0.000 C 
ATOM     13  C   UNL     1      45.002   8.294  11.752  0.00  0.00    +0.000 C 
ENDBRANCH   6   8
ENDBRANCH   1   2
BRANCH   1  14
ATOM     14  N   UNL     1      43.680   3.732  10.593  0.00  0.00    +0.000 N 
ATOM     15  H   UNL     1      42.747   3.436  10.301  0.00  0.00    +0.000 HD
BRANCH  14  19
ATOM     16  C   UNL     1      46.435   2.633   7.580  0.00  0.00    +0.000 A 
ATOM     17  C   UNL     1      46.133   3.980   7.780  0.00  0.00    +0.000 A 
ATOM     18  C   UNL     1      45.234   4.359   8.782  0.00  0.00    +0.000 A 
ATOM     19  C   UNL     1      44.640   3.414   9.628  0.00  0.00    +0.000 A 
ATOM     20  C   UNL     1      44.963   2.066   9.428  0.00  0.00    +0.000 A 
ATOM     21  C   UNL     1      45.847   1.676   8.413  0.00  0.00    +0.000 A 
BRANCH  16  23
ATOM     22  C   UNL     1      47.187   2.765   5.112  0.00  0.00    +0.000 C 
ATOM     23  C   UNL     1      47.356   2.187   6.495  0.00  0.00    +0.000 C 
ATOM     24  O   UNL     1      48.234   1.364   6.738  0.00  0.00    +0.000 OA
ENDBRANCH  16  23
ENDBRANCH  14  19
ENDBRANCH   1  14
TORSDOF 5
ENDMDL
MODEL 3
REMARK VINA RESULT:    -8.047      1.430      1.997
REMARK INTER + INTRA:         -11.091
REMARK INTER:                 -10.713
REMARK INTRA:                  -0.378
REMARK UNBOUND:                -0.692
REMARK  Name = 
REMARK  6 active torsions:
REMARK  status: ('A' for Active; 'I' for Inactive)
REMARK    1  A    between atoms: C_1  and  C_2
REMARK    2  A    between atoms: C_2  and  C_4
REMARK    3  A    between atoms: C_7  and  N_8
REMARK    4  A    between atoms: N_8  and  C_9
REMARK    5  A    between atoms: C_9  and  C_10
REMARK    6  A    between atoms: C_14  and  N_15
REMARK                            x       y       z     vdW  Elec       q    Type
REMARK                         _______ _______ _______ _____ _____    ______ ____
ROOT
ATOM      1  C   UNL     1      44.446   3.574  12.129  0.00  0.00    +0.000 C 
ENDROOT
BRANCH   1   2
ATOM      2  C   UNL     1      45.523   4.452  12.707  0.00  0.00    +0.000 A 
ATOM      3  C   UNL     1      45.978   5.573  12.042  0.00  0.00    +0.000 A 
ATOM      4  N   UNL     1      46.955   6.361  12.540  0.00  0.00    +0.000 NA
ATOM      5  C   UNL     1      47.438   5.975  13.754  0.00  0.00    +0.000 A 
ATOM      6  C   UNL     1      47.004   4.849  14.459  0.00  0.00    +0.000 A 
ATOM      7  N   UNL     1      46.036   4.085  13.909  0.00  0.00    +0.000 NA
BRANCH   6   8
ATOM      8  N   UNL     1      47.431   4.527  15.735  0.00  0.00    +0.000 N 
ATOM      9  C   UNL     1      47.749   3.109  15.987  0.00  0.00    +0.000 C 
ATOM     10  C   UNL     1      47.622   2.829  17.492  0.00  0.00    +0.000 C 
ATOM     11  O   UNL     1      48.446   3.714  18.269  0.00  0.00    +0.000 OA
ATOM     12  C   UNL     1      48.085   5.082  18.016  0.00  0.00    +0.000 C 
ATOM     13  C   UNL     1      48.253   5.447  16.531  0.00  0.00    +0.000 C 
ENDBRANCH   6   8
ENDBRANCH   1   2
BRANCH   1  14
ATOM     14  N   UNL     1      44.073   3.989  10.777  0.00  0.00    +0.000 N 
ATOM     15  H   UNL     1      43.067   3.935  10.609  0.00  0.00    +0.000 HD
BRANCH  14  19
ATOM     16  C   UNL     1      46.435   2.602   7.556  0.00  0.00    +0.000 A 
ATOM     17  C   UNL     1      45.872   1.684   8.443  0.00  0.00    +0.000 A 
ATOM     18  C   UNL     1      45.077   2.129   9.505  0.00  0.00    +0.000 A 
ATOM     19  C   UNL     1      44.797   3.488   9.692  0.00  0.00    +0.000 A 
ATOM     20  C   UNL     1      45.355   4.398   8.785  0.00  0.00    +0.000 A 
ATOM     21  C   UNL     1      46.169   3.964   7.730  0.00  0.00    +0.000 A 
BRANCH  16  23
ATOM     22  C   UNL     1      47.117   2.777   5.071  0.00  0.00    +0.000 C 
ATOM     23  C   UNL     1      47.321   2.171   6.437  0.00  0.00    +0.000 C 
ATOM     24  O   UNL     1      48.200   1.337   6.637  0.00  0.00    +0.000 OA
ENDBRANCH  16  23
ENDBRANCH  14  19
ENDBRANCH   1  14
TORSDOF 5
ENDMDL
MODEL 4
REMARK VINA RESULT:    -8.029      1.969      2.932
REMARK INTER + INTRA:         -11.068
REMARK INTER:                 -10.378
REMARK INTRA:                  -0.690
REMARK UNBOUND:                -0.692
REMARK  Name = 
REMARK  6 active torsions:
REMARK  status: ('A' for Active; 'I' for Inactive)
REMARK    1  A    between atoms: C_1  and  C_2
REMARK    2  A    between atoms: C_2  and  C_4
REMARK    3  A    between atoms: C_7  and  N_8
REMARK    4  A    between atoms: N_8  and  C_9
REMARK    5  A    between atoms: C_9  and  C_10
REMARK    6  A    between atoms: C_14  and  N_15
REMARK                            x       y       z     vdW  Elec       q    Type
REMARK                         _______ _______ _______ _____ _____    ______ ____
ROOT
ATOM      1  C   UNL     1      44.154   5.435  11.038  0.00  0.00    +0.000 C 
ENDROOT
BRANCH   1   2
ATOM      2  C   UNL     1      45.173   5.245  12.129  0.00  0.00    +0.000 A 
ATOM      3  C   UNL     1      45.045   4.247  13.075  0.00  0.00    +0.000 A 
ATOM      4  N   UNL     1      45.942   4.074  14.069  0.00  0.00    +0.000 NA
ATOM      5  C   UNL     1      46.987   4.946  14.053  0.00  0.00    +0.000 A 
ATOM      6  C   UNL     1      47.154   5.969  13.115  0.00  0.00    +0.000 A 
ATOM      7  N   UNL     1      46.221   6.109  12.150  0.00  0.00    +0.000 NA
BRANCH   6   8
ATOM      8  N   UNL     1      48.273   6.781  13.050  0.00  0.00    +0.000 N 
ATOM      9  C   UNL     1      48.488   7.510  11.786  0.00  0.00    +0.000 C 
ATOM     10  C   UNL     1      49.978   7.854  11.656  0.00  0.00    +0.000 C 
ATOM     11  O   UNL     1      50.454   8.594  12.793  0.00  0.00    +0.000 OA
ATOM     12  C   UNL     1      50.253   7.838  13.999  0.00  0.00    +0.000 C 
ATOM     13  C   UNL     1      48.765   7.514  14.223  0.00  0.00    +0.000 C 
ENDBRANCH   6   8
ENDBRANCH   1   2
BRANCH   1  14
ATOM     14  N   UNL     1      43.768   4.163  10.427  0.00  0.00    +0.000 N 
ATOM     15  H   UNL     1      43.463   3.471  11.113  0.00  0.00    +0.000 HD
BRANCH  14  19
ATOM     16  C   UNL     1      46.467   2.566   7.593  0.00  0.00    +0.000 A 
ATOM     17  C   UNL     1      45.788   1.707   8.458  0.00  0.00    +0.000 A 
ATOM     18  C   UNL     1      44.882   2.222   9.391  0.00  0.00    +0.000 A 
ATOM     19  C   UNL     1      44.606   3.592   9.465  0.00  0.00    +0.000 A 
ATOM     20  C   UNL     1      45.282   4.442   8.581  0.00  0.00    +0.000 A 
ATOM     21  C   UNL     1      46.206   3.938   7.656  0.00  0.00    +0.000 A 
BRANCH  16  23
ATOM     22  C   UNL     1      47.497   2.651   5.225  0.00  0.00    +0.000 C 
ATOM     23  C   UNL     1      47.472   2.060   6.613  0.00  0.00    +0.000 C 
ATOM     24  O   UNL     1      48.261   1.179   6.943  0.00  0.00    +0.000 OA
ENDBRANCH  16  23
ENDBRANCH  14  19
ENDBRANCH   1  14
TORSDOF 5
ENDMDL
MODEL 5
REMARK VINA RESULT:    -6.966      2.748      7.084
REMARK INTER + INTRA:          -9.694
REMARK INTER:                  -9.090
REMARK INTRA:                  -0.604
REMARK UNBOUND:                -0.692
REMARK  Name = 
REMARK  6 active torsions:
REMARK  status: ('A' for Active; 'I' for Inactive)
REMARK    1  A    between atoms: C_1  and  C_2
REMARK    2  A    between atoms: C_2  and  C_4
REMARK    3  A    between atoms: C_7  and  N_8
REMARK    4  A    between atoms: N_8  and  C_9
REMARK    5  A    between atoms: C_9  and  C_10
REMARK    6  A    between atoms: C_14  and  N_15
REMARK                            x       y       z     vdW  Elec       q    Type
REMARK                         _______ _______ _______ _____ _____    ______ ____
ROOT
ATOM      1  C   UNL     1      43.642   6.372  11.326  0.00  0.00    +0.000 C 
ENDROOT
BRANCH   1   2
ATOM      2  C   UNL     1      43.748   4.891  11.078  0.00  0.00    +0.000 A 
ATOM      3  C   UNL     1      43.020   3.979  11.818  0.00  0.00    +0.000 A 
ATOM      4  N   UNL     1      43.117   2.647  11.618  0.00  0.00    +0.000 NA
ATOM      5  C   UNL     1      43.969   2.278  10.622  0.00  0.00    +0.000 A 
ATOM      6  C   UNL     1      44.722   3.169   9.850  0.00  0.00    +0.000 A 
ATOM      7  N   UNL     1      44.601   4.490  10.101  0.00  0.00    +0.000 NA
BRANCH   6   8
ATOM      8  N   UNL     1      45.504   2.786   8.775  0.00  0.00    +0.000 N 
ATOM      9  C   UNL     1      45.554   1.342   8.477  0.00  0.00    +0.000 C 
ATOM     10  C   UNL     1      46.847   1.037   7.707  0.00  0.00    +0.000 C 
ATOM     11  O   UNL     1      46.961   1.838   6.519  0.00  0.00    +0.000 OA
ATOM     12  C   UNL     1      46.937   3.236   6.856  0.00  0.00    +0.000 C 
ATOM     13  C   UNL     1      45.632   3.622   7.576  0.00  0.00    +0.000 C 
ENDBRANCH   6   8
ENDBRANCH   1   2
BRANCH   1  14
ATOM     14  N   UNL     1      44.359   6.774  12.535  0.00  0.00    +0.000 N 
ATOM     15  H   UNL     1      43.756   7.234  13.219  0.00  0.00    +0.000 HD
BRANCH  14  19
ATOM     16  C   UNL     1      48.065   8.717  11.937  0.00  0.00    +0.000 A 
ATOM     17  C   UNL     1      46.974   9.445  12.412  0.00  0.00    +0.000 A 
ATOM     18  C   UNL     1      45.747   8.811  12.628  0.00  0.00    +0.000 A 
ATOM     19  C   UNL     1      45.582   7.439  12.408  0.00  0.00    +0.000 A 
ATOM     20  C   UNL     1      46.689   6.716  11.946  0.00  0.00    +0.000 A 
ATOM     21  C   UNL     1      47.918   7.346  11.708  0.00  0.00    +0.000 A 
BRANCH  16  23
ATOM     22  C   UNL     1      50.647   8.623  12.004  0.00  0.00    +0.000 C 
ATOM     23  C   UNL     1      49.380   9.365  11.656  0.00  0.00    +0.000 C 
ATOM     24  O   UNL     1      49.416  10.482  11.148  0.00  0.00    +0.000 OA
ENDBRANCH  16  23
ENDBRANCH  14  19
ENDBRANCH   1  14
TORSDOF 5
ENDMDL
MODEL 6
REMARK VINA RESULT:    -6.640      1.337      7.401
REMARK INTER + INTRA:          -9.273
REMARK INTER:                  -8.926
REMARK INTRA:                  -0.346
REMARK UNBOUND:                -0.692
REMARK  Name = 
REMARK  6 active torsions:
REMARK  status: ('A' for Active; 'I' for Inactive)
REMARK    1  A    between atoms: C_1  and  C_2
REMARK    2  A    between atoms: C_2  and  C_4
REMARK    3  A    between atoms: C_7  and  N_8
REMARK    4  A    between atoms: N_8  and  C_9
REMARK    5  A    between atoms: C_9  and  C_10
REMARK    6  A    between atoms: C_14  and  N_15
REMARK                            x       y       z     vdW  Elec       q    Type
REMARK                         _______ _______ _______ _____ _____    ______ ____
ROOT
ATOM      1  C   UNL     1      44.971   6.453  11.833  0.00  0.00    +0.000 C 
ENDROOT
BRANCH   1   2
ATOM      2  C   UNL     1      44.559   5.098  11.323  0.00  0.00    +0.000 A 
ATOM      3  C   UNL     1      43.486   4.416  11.864  0.00  0.00    +0.000 A 
ATOM      4  N   UNL     1      43.114   3.193  11.428  0.00  0.00    +0.000 NA
ATOM      5  C   UNL     1      43.865   2.698  10.406  0.00  0.00    +0.000 A 
ATOM      6  C   UNL     1      44.957   3.355   9.831  0.00  0.00    +0.000 A 
ATOM      7  N   UNL     1      45.297   4.569  10.314  0.00  0.00    +0.000 NA
BRANCH   6   8
ATOM      8  N   UNL     1      45.646   2.886   8.727  0.00  0.00    +0.000 N 
ATOM      9  C   UNL     1      45.625   1.427   8.508  0.00  0.00    +0.000 C 
ATOM     10  C   UNL     1      46.848   1.031   7.668  0.00  0.00    +0.000 C 
ATOM     11  O   UNL     1      46.902   1.762   6.432  0.00  0.00    +0.000 OA
ATOM     12  C   UNL     1      46.950   3.176   6.690  0.00  0.00    +0.000 C 
ATOM     13  C   UNL     1      45.715   3.650   7.476  0.00  0.00    +0.000 C 
ENDBRANCH   6   8
ENDBRANCH   1   2
BRANCH   1  14
ATOM     14  N   UNL     1      46.417   6.544  12.028  0.00  0.00    +0.000 N 
ATOM     15  H   UNL     1      46.947   6.243  11.208  0.00  0.00    +0.000 HD
BRANCH  14  19
ATOM     16  C   UNL     1      48.044   5.211  15.695  0.00  0.00    +0.000 A 
ATOM     17  C   UNL     1      47.094   4.430  15.038  0.00  0.00    +0.000 A 
ATOM     18  C   UNL     1      46.558   4.852  13.817  0.00  0.00    +0.000 A 
ATOM     19  C   UNL     1      46.975   6.041  13.206  0.00  0.00    +0.000 A 
ATOM     20  C   UNL     1      47.941   6.809  13.868  0.00  0.00    +0.000 A 
ATOM     21  C   UNL     1      48.469   6.404  15.101  0.00  0.00    +0.000 A 
BRANCH  16  23
ATOM     22  C   UNL     1      47.884   5.233  18.274  0.00  0.00    +0.000 C 
ATOM     23  C   UNL     1      48.608   4.816  17.018  0.00  0.00    +0.000 C 
ATOM     24  O   UNL     1      49.644   4.159  17.071  0.00  0.00    +0.000 OA
ENDBRANCH  16  23
ENDBRANCH  14  19
ENDBRANCH   1  14
TORSDOF 5
ENDMDL
MODEL 7
REMARK VINA RESULT:    -6.468      3.843      8.347
REMARK INTER + INTRA:          -9.051
REMARK INTER:                  -8.545
REMARK INTRA:                  -0.507
REMARK UNBOUND:                -0.692
REMARK  Name = 
REMARK  6 active torsions:
REMARK  status: ('A' for Active; 'I' for Inactive)
REMARK    1  A    between atoms: C_1  and  C_2
REMARK    2  A    between atoms: C_2  and  C_4
REMARK    3  A    between atoms: C_7  and  N_8
REMARK    4  A    between atoms: N_8  and  C_9
REMARK    5  A    between atoms: C_9  and  C_10
REMARK    6  A    between atoms: C_14  and  N_15
REMARK                            x       y       z     vdW  Elec       q    Type
REMARK                         _______ _______ _______ _____ _____    ______ ____
ROOT
ATOM      1  C   UNL     1      47.674   3.873  16.601  0.00  0.00    +0.000 C 
ENDROOT
BRANCH   1   2
ATOM      2  C   UNL     1      47.382   4.728  15.397  0.00  0.00    +0.000 A 
ATOM      3  C   UNL     1      48.153   5.832  15.088  0.00  0.00    +0.000 A 
ATOM      4  N   UNL     1      47.894   6.617  14.021  0.00  0.00    +0.000 NA
ATOM      5  C   UNL     1      46.829   6.225  13.267  0.00  0.00    +0.000 A 
ATOM      6  C   UNL     1      46.025   5.115  13.545  0.00  0.00    +0.000 A 
ATOM      7  N   UNL     1      46.317   4.372  14.634  0.00  0.00    +0.000 NA
BRANCH   6   8
ATOM      8  N   UNL     1      45.012   4.671  12.715  0.00  0.00    +0.000 N 
ATOM      9  C   UNL     1      45.159   3.309  12.166  0.00  0.00    +0.000 C 
ATOM     10  C   UNL     1      44.335   3.200  10.875  0.00  0.00    +0.000 C 
ATOM     11  O   UNL     1      42.957   3.550  11.092  0.00  0.00    +0.000 OA
ATOM     12  C   UNL     1      42.857   4.892  11.598  0.00  0.00    +0.000 C 
ATOM     13  C   UNL     1      43.611   5.052  12.930  0.00  0.00    +0.000 C 
ENDBRANCH   6   8
ENDBRANCH   1   2
BRANCH   1  14
ATOM     14  N   UNL     1      48.835   4.360  17.346  0.00  0.00    +0.000 N 
ATOM     15  H   UNL     1      49.067   5.330  17.128  0.00  0.00    +0.000 HD
BRANCH  14  19
ATOM     16  C   UNL     1      52.335   2.023  17.739  0.00  0.00    +0.000 A 
ATOM     17  C   UNL     1      51.138   1.413  17.364  0.00  0.00    +0.000 A 
ATOM     18  C   UNL     1      49.976   2.177  17.217  0.00  0.00    +0.000 A 
ATOM     19  C   UNL     1      49.982   3.564  17.407  0.00  0.00    +0.000 A 
ATOM     20  C   UNL     1      51.193   4.167  17.768  0.00  0.00    +0.000 A 
ATOM     21  C   UNL     1      52.359   3.407  17.937  0.00  0.00    +0.000 A 
BRANCH  16  23
ATOM     22  C   UNL     1      54.899   1.822  17.485  0.00  0.00    +0.000 C 
ATOM     23  C   UNL     1      53.586   1.237  17.947  0.00  0.00    +0.000 C 
ATOM     24  O   UNL     1      53.536   0.136  18.487  0.00  0.00    +0.000 OA
ENDBRANCH  16  23
ENDBRANCH  14  19
ENDBRANCH   1  14
TORSDOF 5
ENDMDL
MODEL 8
REMARK VINA RESULT:    -6.116      2.626      4.400
REMARK INTER + INTRA:          -8.596
REMARK INTER:                  -7.913
REMARK INTRA:                  -0.683
REMARK UNBOUND:                -0.692
REMARK  Name = 
REMARK  6 active torsions:
REMARK  status: ('A' for Active; 'I' for Inactive)
REMARK    1  A    between atoms: C_1  and  C_2
REMARK    2  A    between atoms: C_2  and  C_4
REMARK    3  A    between atoms: C_7  and  N_8
REMARK    4  A    between atoms: N_8  and  C_9
REMARK    5  A    between atoms: C_9  and  C_10
REMARK    6  A    between atoms: C_14  and  N_15
REMARK                            x       y       z     vdW  Elec       q    Type
REMARK                         _______ _______ _______ _____ _____    ______ ____
ROOT
ATOM      1  C   UNL     1      48.449   7.383  12.566  0.00  0.00    +0.000 C 
ENDROOT
BRANCH   1   2
ATOM      2  C   UNL     1      48.833   7.472  14.018  0.00  0.00    +0.000 A 
ATOM      3  C   UNL     1      49.347   8.634  14.561  0.00  0.00    +0.000 A 
ATOM      4  N   UNL     1      49.711   8.725  15.858  0.00  0.00    +0.000 NA
ATOM      5  C   UNL     1      49.515   7.592  16.588  0.00  0.00    +0.000 A 
ATOM      6  C   UNL     1      48.999   6.397  16.077  0.00  0.00    +0.000 A 
ATOM      7  N   UNL     1      48.664   6.354  14.769  0.00  0.00    +0.000 NA
BRANCH   6   8
ATOM      8  N   UNL     1      48.710   5.289  16.852  0.00  0.00    +0.000 N 
ATOM      9  C   UNL     1      47.783   4.299  16.270  0.00  0.00    +0.000 C 
ATOM     10  C   UNL     1      47.128   3.501  17.406  0.00  0.00    +0.000 C 
ATOM     11  O   UNL     1      48.108   2.886  18.258  0.00  0.00    +0.000 OA
ATOM     12  C   UNL     1      48.971   3.886  18.827  0.00  0.00    +0.000 C 
ATOM     13  C   UNL     1      49.711   4.681  17.737  0.00  0.00    +0.000 C 
ENDBRANCH   6   8
ENDBRANCH   1   2
BRANCH   1  14
ATOM     14  N   UNL     1      47.013   7.584  12.369  0.00  0.00    +0.000 N 
ATOM     15  H   UNL     1      46.584   8.130  13.117  0.00  0.00    +0.000 HD
BRANCH  14  19
ATOM     16  C   UNL     1      44.776   4.199  11.182  0.00  0.00    +0.000 A 
ATOM     17  C   UNL     1      44.979   4.449  12.539  0.00  0.00    +0.000 A 
ATOM     18  C   UNL     1      45.705   5.573  12.946  0.00  0.00    +0.000 A 
ATOM     19  C   UNL     1      46.219   6.488  12.019  0.00  0.00    +0.000 A 
ATOM     20  C   UNL     1      45.994   6.234  10.660  0.00  0.00    +0.000 A 
ATOM     21  C   UNL     1      45.285   5.101  10.242  0.00  0.00    +0.000 A 
BRANCH  16  23
ATOM     22  C   UNL     1      44.520   2.291   9.458  0.00  0.00    +0.000 C 
ATOM     23  C   UNL     1      44.042   2.989  10.707  0.00  0.00    +0.000 C 
ATOM     24  O   UNL     1      43.069   2.578  11.333  0.00  0.00    +0.000 OA
ENDBRANCH  16  23
ENDBRANCH  14  19
ENDBRANCH   1  14
TORSDOF 5
ENDMDL
MODEL 9
REMARK VINA RESULT:    -5.674      2.620      7.784
REMARK INTER + INTRA:          -8.025
REMARK INTER:                  -7.574
REMARK INTRA:                  -0.450
REMARK UNBOUND:                -0.692
REMARK  Name = 
REMARK  6 active torsions:
REMARK  status: ('A' for Active; 'I' for Inactive)
REMARK    1  A    between atoms: C_1  and  C_2
REMARK    2  A    between atoms: C_2  and  C_4
REMARK    3  A    between atoms: C_7  and  N_8
REMARK    4  A    between atoms: N_8  and  C_9
REMARK    5  A    between atoms: C_9  and  C_10
REMARK    6  A    between atoms: C_14  and  N_15
REMARK                            x       y       z     vdW  Elec       q    Type
REMARK                         _______ _______ _______ _____ _____    ______ ____
ROOT
ATOM      1  C   UNL     1      48.372   7.050  14.024  0.00  0.00    +0.000 C 
ENDROOT
BRANCH   1   2
ATOM      2  C   UNL     1      47.093   7.179  13.241  0.00  0.00    +0.000 A 
ATOM      3  C   UNL     1      46.562   8.413  12.919  0.00  0.00    +0.000 A 
ATOM      4  N   UNL     1      45.408   8.545  12.231  0.00  0.00    +0.000 NA
ATOM      5  C   UNL     1      44.822   7.370  11.866  0.00  0.00    +0.000 A 
ATOM      6  C   UNL     1      45.327   6.103  12.172  0.00  0.00    +0.000 A 
ATOM      7  N   UNL     1      46.477   6.026  12.875  0.00  0.00    +0.000 NA
BRANCH   6   8
ATOM      8  N   UNL     1      44.777   4.922  11.707  0.00  0.00    +0.000 N 
ATOM      9  C   UNL     1      43.595   4.414  12.430  0.00  0.00    +0.000 C 
ATOM     10  C   UNL     1      43.484   2.900  12.203  0.00  0.00    +0.000 C 
ATOM     11  O   UNL     1      43.442   2.574  10.803  0.00  0.00    +0.000 OA
ATOM     12  C   UNL     1      44.623   3.060  10.142  0.00  0.00    +0.000 C 
ATOM     13  C   UNL     1      44.759   4.586  10.278  0.00  0.00    +0.000 C 
ENDBRANCH   6   8
ENDBRANCH   1   2
BRANCH   1  14
ATOM     14  N   UNL     1      48.119   6.845  15.450  0.00  0.00    +0.000 N 
ATOM     15  H   UNL     1      47.838   7.701  15.930  0.00  0.00    +0.000 HD
BRANCH  14  19
ATOM     16  C   UNL     1      50.874   4.475  17.609  0.00  0.00    +0.000 A 
ATOM     17  C   UNL     1      51.308   5.649  16.995  0.00  0.00    +0.000 A 
ATOM     18  C   UNL     1      50.404   6.450  16.290  0.00  0.00    +0.000 A 
ATOM     19  C   UNL     1      49.046   6.121  16.204  0.00  0.00    +0.000 A 
ATOM     20  C   UNL     1      48.619   4.947  16.838  0.00  0.00    +0.000 A 
ATOM     21  C   UNL     1      49.521   4.129  17.531  0.00  0.00    +0.000 A 
BRANCH  16  23
ATOM     22  C   UNL     1      52.103   2.207  17.764  0.00  0.00    +0.000 C 
ATOM     23  C   UNL     1      51.815   3.573  18.336  0.00  0.00    +0.000 C 
ATOM     24  O   UNL     1      52.340   3.949  19.380  0.00  0.00    +0.000 OA
ENDBRANCH  16  23
ENDBRANCH  14  19
ENDBRANCH   1  14
TORSDOF 5
ENDMDL
