MODEL 1
REMARK VINA RESULT:    -8.880      0.000      0.000
REMARK INTER + INTRA:         -13.826
REMARK INTER:                 -13.033
REMARK INTRA:                  -0.792
REMARK UNBOUND:                -0.792
REMARK  Name = 
REMARK  11 active torsions:
REMARK  status: ('A' for Active; 'I' for Inactive)
REMARK    1  A    between atoms: C_1  and  O_2
REMARK    2  A    between atoms: O_2  and  C_3
REMARK    3  A    between atoms: C_6  and  C_7
REMARK    4  A    between atoms: C_7  and  N_8
REMARK    5  A    between atoms: N_8  and  C_9
REMARK    6  A    between atoms: C_12  and  C_13
REMARK    7  A    between atoms: C_21  and  C_22
REMARK    8  A    between atoms: C_26  and  O_27
REMARK    9  A    between atoms: O_27  and  C_28
REMARK   10  A    between atoms: C_28  and  C_29
REMARK   11  A    between atoms: C_28  and  C_30
REMARK                            x       y       z     vdW  Elec       q    Type
REMARK                         _______ _______ _______ _____ _____    ______ ____
ROOT
ATOM      1  C   UNL     1      47.984   6.251  13.066  0.00  0.00    +0.000 A 
ATOM      2  C   UNL     1      47.439   6.798  11.895  0.00  0.00    +0.000 A 
ATOM      3  C   UNL     1      46.188   6.381  11.419  0.00  0.00    +0.000 A 
ATOM      4  C   UNL     1      45.476   5.354  12.045  0.00  0.00    +0.000 A 
ATOM      5  C   UNL     1      46.095   4.748  13.148  0.00  0.00    +0.000 A 
ATOM      6  C   UNL     1      47.278   5.238  13.749  0.00  0.00    +0.000 A 
ENDROOT
BRANCH   6   7
ATOM      7  C   UNL     1      47.593   4.776  15.130  0.00  0.00    +0.000 A 
ATOM      8  C   UNL     1      47.588   3.390  15.409  0.00  0.00    +0.000 A 
ATOM      9  C   UNL     1      47.779   2.890  16.695  0.00  0.00    +0.000 A 
ATOM     10  C   UNL     1      48.002   3.768  17.744  0.00  0.00    +0.000 A 
ATOM     11  C   UNL     1      48.098   5.137  17.494  0.00  0.00    +0.000 A 
ATOM     12  C   UNL     1      47.860   5.636  16.205  0.00  0.00    +0.000 A 
BRANCH  11  13
ATOM     13  O   UNL     1      48.433   6.073  18.436  0.00  0.00    +0.000 OA
BRANCH  13  14
ATOM     14  C   UNL     1      47.371   6.579  19.259  0.00  0.00    +0.000 C 
ATOM     15  C   UNL     1      47.479   6.099  20.709  0.00  0.00    +0.000 C 
ATOM     16  C   UNL     1      47.493   8.101  19.236  0.00  0.00    +0.000 C 
ENDBRANCH  13  14
ENDBRANCH  11  13
ENDBRANCH   6   7
BRANCH   4  17
ATOM     17  C   UNL     1      44.052   4.969  11.644  0.00  0.00    +0.000 C 
ATOM     18  C   UNL     1      42.931   5.364  12.585  0.00  0.00    +0.000 C 
ATOM     19  C   UNL     1      43.334   3.932  12.520  0.00  0.00    +0.000 C 
BRANCH  17  20
ATOM     20  N   UNL     1      43.862   4.702  10.216  0.00  0.00    +0.000 N 
ATOM     21  H   UNL     1      42.922   4.872   9.871  0.00  0.00    +0.000 HD
BRANCH  20  22
ATOM     22  C   UNL     1      44.624   3.876   9.381  0.00  0.00    +0.000 A 
ATOM     23  C   UNL     1      44.736   2.491   9.500  0.00  0.00    +0.000 A 
ATOM     24  C   UNL     1      45.605   1.786   8.660  0.00  0.00    +0.000 A 
ATOM     25  C   UNL     1      46.369   2.492   7.741  0.00  0.00    +0.000 A 
ATOM     26  N   UNL     1      46.303   3.841   7.592  0.00  0.00    +0.000 NA
ATOM     27  C   UNL     1      45.444   4.479   8.418  0.00  0.00    +0.000 A 
BRANCH  25  28
ATOM     28  C   UNL     1      47.359   1.793   6.856  0.00  0.00    +0.000 C 
ATOM     29  N   UNL     1      48.427   2.557   6.472  0.00  0.00    +0.000 N 
ATOM     30  O   UNL     1      47.232   0.623   6.509  0.00  0.00    +0.000 OA
ATOM     31  H   UNL     1      48.502   3.515   6.800  0.00  0.00    +0.000 HD
ATOM     32  H   UNL     1      49.150   2.158   5.892  0.00  0.00    +0.000 HD
ENDBRANCH  25  28
ENDBRANCH  20  22
ENDBRANCH  17  20
ENDBRANCH   4  17
BRANCH   1  34
ATOM     33  C   UNL     1      49.814   7.795  13.021  0.00  0.00    +0.000 C 
ATOM     34  O   UNL     1      49.159   6.686  13.623  0.00  0.00    +0.000 OA
ENDBRANCH   1  34
TORSDOF 8
ENDMDL
MODEL 2
REMARK VINA RESULT:    -8.879      2.094      4.917
REMARK INTER + INTRA:         -13.823
REMARK INTER:                 -12.246
REMARK INTRA:                  -1.577
REMARK UNBOUND:                -0.792
REMARK  Name = 
REMARK  11 active torsions:
REMARK  status: ('A' for Active; 'I' for Inactive)
REMARK    1  A    between atoms: C_1  and  O_2
REMARK    2  A    between atoms: O_2  and  C_3
REMARK    3  A    between atoms: C_6  and  C_7
REMARK    4  A    between atoms: C_7  and  N_8
REMARK    5  A    between atoms: N_8  and  C_9
REMARK    6  A    between atoms: C_12  and  C_13
REMARK    7  A    between atoms: C_21  and  C_22
REMARK    8  A    between atoms: C_26  and  O_27
REMARK    9  A    between atoms: O_27  and  C_28
REMARK   10  A    between atoms: C_28  and  C_29
REMARK   11  A    between atoms: C_28  and  C_30
REMARK                            x       y       z     vdW  Elec       q    Type
REMARK                         _______ _______ _______ _____ _____    ______ ____
ROOT
ATOM      1  C   UNL     1      47.531   5.940  13.731  0.00  0.00    +0.000 A 
ATOM      2  C   UNL     1      46.911   4.690  13.872  0.00  0.00    +0.000 A 
ATOM      3  C   UNL     1      45.742   4.380  13.164  0.00  0.00    +0.000 A 
ATOM      4  C   UNL     1      45.108   5.328  12.356  0.00  0.00    +0.000 A 
ATOM      5  C   UNL     1      45.686   6.605  12.321  0.00  0.00    +0.000 A 
ATOM      6  C   UNL     1      46.943   6.912  12.894  0.00  0.00    +0.000 A 
ENDROOT
BRANCH   6   7
ATOM      7  C   UNL     1      47.626   8.154  12.436  0.00  0.00    +0.000 A 
ATOM      8  C   UNL     1      46.940   9.387  12.523  0.00  0.00    +0.000 A 
ATOM      9  C   UNL     1      47.477  10.573  12.028  0.00  0.00    +0.000 A 
ATOM     10  C   UNL     1      48.734  10.563  11.443  0.00  0.00    +0.000 A 
ATOM     11  C   UNL     1      49.475   9.383  11.415  0.00  0.00    +0.000 A 
ATOM     12  C   UNL     1      48.911   8.184  11.874  0.00  0.00    +0.000 A 
BRANCH  11  13
ATOM     13  O   UNL     1      50.768   9.292  10.970  0.00  0.00    +0.000 OA
BRANCH  13  14
ATOM     14  C   UNL     1      51.504   8.115  11.338  0.00  0.00    +0.000 C 
ATOM     15  C   UNL     1      52.077   7.384  10.120  0.00  0.00    +0.000 C 
ATOM     16  C   UNL     1      52.660   8.585  12.218  0.00  0.00    +0.000 C 
ENDBRANCH  13  14
ENDBRANCH  11  13
ENDBRANCH   6   7
BRANCH   4  17
ATOM     17  C   UNL     1      43.916   4.989  11.462  0.00  0.00    +0.000 C 
ATOM     18  C   UNL     1      42.964   6.117  11.113  0.00  0.00    +0.000 C 
ATOM     19  C   UNL     1      42.517   5.086  12.091  0.00  0.00    +0.000 C 
BRANCH  17  20
ATOM     20  N   UNL     1      44.069   3.774  10.658  0.00  0.00    +0.000 N 
ATOM     21  H   UNL     1      43.712   2.928  11.090  0.00  0.00    +0.000 HD
BRANCH  20  22
ATOM     22  C   UNL     1      44.978   3.533   9.620  0.00  0.00    +0.000 A 
ATOM     23  C   UNL     1      45.564   4.511   8.817  0.00  0.00    +0.000 A 
ATOM     24  C   UNL     1      46.387   4.137   7.749  0.00  0.00    +0.000 A 
ATOM     25  C   UNL     1      46.577   2.786   7.491  0.00  0.00    +0.000 A 
ATOM     26  N   UNL     1      46.022   1.795   8.237  0.00  0.00    +0.000 NA
ATOM     27  C   UNL     1      45.242   2.204   9.263  0.00  0.00    +0.000 A 
BRANCH  25  28
ATOM     28  C   UNL     1      47.402   2.328   6.323  0.00  0.00    +0.000 C 
ATOM     29  N   UNL     1      47.178   3.010   5.158  0.00  0.00    +0.000 N 
ATOM     30  O   UNL     1      48.222   1.420   6.404  0.00  0.00    +0.000 OA
ATOM     31  H   UNL     1      46.504   3.769   5.143  0.00  0.00    +0.000 HD
ATOM     32  H   UNL     1      47.705   2.778   4.329  0.00  0.00    +0.000 HD
ENDBRANCH  25  28
ENDBRANCH  20  22
ENDBRANCH  17  20
ENDBRANCH   4  17
BRANCH   1  34
ATOM     33  C   UNL     1      48.713   6.577  15.715  0.00  0.00    +0.000 C 
ATOM     34  O   UNL     1      48.723   6.261  14.328  0.00  0.00    +0.000 OA
ENDBRANCH   1  34
TORSDOF 8
ENDMDL
MODEL 3
REMARK VINA RESULT:    -8.636      1.897      3.791
REMARK INTER + INTRA:         -13.467
REMARK INTER:                 -11.759
REMARK INTRA:                  -1.708
REMARK UNBOUND:                -0.792
REMARK  Name = 
REMARK  11 active torsions:
REMARK  status: ('A' for Active; 'I' for Inactive)
REMARK    1  A    between atoms: C_1  and  O_2
REMARK    2  A    between atoms: O_2  and  C_3
REMARK    3  A    between atoms: C_6  and  C_7
REMARK    4  A    between atoms: C_7  and  N_8
REMARK    5  A    between atoms: N_8  and  C_9
REMARK    6  A    between atoms: C_12  and  C_13
REMARK    7  A    between atoms: C_21  and  C_22
REMARK    8  A    between atoms: C_26  and  O_27
REMARK    9  A    between atoms: O_27  and  C_28
REMARK   10  A    between atoms: C_28  and  C_29
REMARK   11  A    between atoms: C_28  and  C_30
REMARK                            x       y       z     vdW  Elec       q    Type
REMARK                         _______ _______ _______ _____ _____    ______ ____
ROOT
ATOM      1  C   UNL     1      47.165   5.343  14.009  0.00  0.00    +0.000 A 
ATOM      2  C   UNL     1      46.360   4.196  13.944  0.00  0.00    +0.000 A 
ATOM      3  C   UNL     1      45.236   4.150  13.109  0.00  0.00    +0.000 A 
ATOM      4  C   UNL     1      44.830   5.267  12.373  0.00  0.00    +0.000 A 
ATOM      5  C   UNL     1      45.587   6.435  12.542  0.00  0.00    +0.000 A 
ATOM      6  C   UNL     1      46.811   6.479  13.252  0.00  0.00    +0.000 A 
ENDROOT
BRANCH   6   7
ATOM      7  C   UNL     1      47.708   7.643  13.008  0.00  0.00    +0.000 A 
ATOM      8  C   UNL     1      48.433   7.709  11.795  0.00  0.00    +0.000 A 
ATOM      9  C   UNL     1      49.361   8.715  11.538  0.00  0.00    +0.000 A 
ATOM     10  C   UNL     1      49.579   9.703  12.486  0.00  0.00    +0.000 A 
ATOM     11  C   UNL     1      48.822   9.719  13.657  0.00  0.00    +0.000 A 
ATOM     12  C   UNL     1      47.923   8.678  13.929  0.00  0.00    +0.000 A 
BRANCH  11  13
ATOM     13  O   UNL     1      48.875  10.713  14.597  0.00  0.00    +0.000 OA
BRANCH  13  14
ATOM     14  C   UNL     1      49.417  10.368  15.882  0.00  0.00    +0.000 C 
ATOM     15  C   UNL     1      50.922  10.639  15.971  0.00  0.00    +0.000 C 
ATOM     16  C   UNL     1      48.699  11.245  16.905  0.00  0.00    +0.000 C 
ENDBRANCH  13  14
ENDBRANCH  11  13
ENDBRANCH   6   7
BRANCH   4  17
ATOM     17  C   UNL     1      43.698   5.216  11.347  0.00  0.00    +0.000 C 
ATOM     18  C   UNL     1      43.023   6.526  10.989  0.00  0.00    +0.000 C 
ATOM     19  C   UNL     1      42.285   5.557  11.845  0.00  0.00    +0.000 C 
BRANCH  17  20
ATOM     20  N   UNL     1      43.701   4.036  10.478  0.00  0.00    +0.000 N 
ATOM     21  H   UNL     1      43.067   3.296  10.761  0.00  0.00    +0.000 HD
BRANCH  20  22
ATOM     22  C   UNL     1      44.707   3.608   9.604  0.00  0.00    +0.000 A 
ATOM     23  C   UNL     1      45.420   4.430   8.730  0.00  0.00    +0.000 A 
ATOM     24  C   UNL     1      46.339   3.868   7.837  0.00  0.00    +0.000 A 
ATOM     25  C   UNL     1      46.498   2.489   7.817  0.00  0.00    +0.000 A 
ATOM     26  N   UNL     1      45.821   1.646   8.640  0.00  0.00    +0.000 NA
ATOM     27  C   UNL     1      44.951   2.233   9.492  0.00  0.00    +0.000 A 
BRANCH  25  28
ATOM     28  C   UNL     1      47.426   1.830   6.840  0.00  0.00    +0.000 C 
ATOM     29  N   UNL     1      48.451   2.619   6.397  0.00  0.00    +0.000 N 
ATOM     30  O   UNL     1      47.286   0.668   6.470  0.00  0.00    +0.000 OA
ATOM     31  H   UNL     1      48.540   3.569   6.745  0.00  0.00    +0.000 HD
ATOM     32  H   UNL     1      49.132   2.247   5.751  0.00  0.00    +0.000 HD
ENDBRANCH  25  28
ENDBRANCH  20  22
ENDBRANCH  17  20
ENDBRANCH   4  17
BRANCH   1  34
ATOM     33  C   UNL     1      48.226   5.362  16.157  0.00  0.00    +0.000 C 
ATOM     34  O   UNL     1      48.324   5.408  14.739  0.00  0.00    +0.000 OA
ENDBRANCH   1  34
TORSDOF 8
ENDMDL
MODEL 4
REMARK VINA RESULT:    -8.320      2.100      4.348
REMARK INTER + INTRA:         -13.003
REMARK INTER:                 -11.705
REMARK INTRA:                  -1.297
REMARK UNBOUND:                -0.792
REMARK  Name = 
REMARK  11 active torsions:
REMARK  status: ('A' for Active; 'I' for Inactive)
REMARK    1  A    between atoms: C_1  and  O_2
REMARK    2  A    between atoms: O_2  and  C_3
REMARK    3  A    between atoms: C_6  and  C_7
REMARK    4  A    between atoms: C_7  and  N_8
REMARK    5  A    between atoms: N_8  and  C_9
REMARK    6  A    between atoms: C_12  and  C_13
REMARK    7  A    between atoms: C_21  and  C_22
REMARK    8  A    between atoms: C_26  and  O_27
REMARK    9  A    between atoms: O_27  and  C_28
REMARK   10  A    between atoms: C_28  and  C_29
REMARK   11  A    between atoms: C_28  and  C_30
REMARK                            x       y       z     vdW  Elec       q    Type
REMARK                         _______ _______ _______ _____ _____    ______ ____
ROOT
ATOM      1  C   UNL     1      46.878   3.907  13.663  0.00  0.00    +0.000 A 
ATOM      2  C   UNL     1      45.884   3.027  13.212  0.00  0.00    +0.000 A 
ATOM      3  C   UNL     1      44.851   3.473  12.377  0.00  0.00    +0.000 A 
ATOM      4  C   UNL     1      44.727   4.821  12.029  0.00  0.00    +0.000 A 
ATOM      5  C   UNL     1      45.670   5.698  12.584  0.00  0.00    +0.000 A 
ATOM      6  C   UNL     1      46.811   5.269  13.302  0.00  0.00    +0.000 A 
ENDROOT
BRANCH   6   7
ATOM      7  C   UNL     1      47.928   6.241  13.469  0.00  0.00    +0.000 A 
ATOM      8  C   UNL     1      48.345   6.591  14.774  0.00  0.00    +0.000 A 
ATOM      9  C   UNL     1      49.316   7.561  15.008  0.00  0.00    +0.000 A 
ATOM     10  C   UNL     1      49.917   8.202  13.935  0.00  0.00    +0.000 A 
ATOM     11  C   UNL     1      49.592   7.823  12.633  0.00  0.00    +0.000 A 
ATOM     12  C   UNL     1      48.582   6.877  12.404  0.00  0.00    +0.000 A 
BRANCH  11  13
ATOM     13  O   UNL     1      50.212   8.306  11.511  0.00  0.00    +0.000 OA
BRANCH  13  14
ATOM     14  C   UNL     1      51.633   8.121  11.419  0.00  0.00    +0.000 C 
ATOM     15  C   UNL     1      52.042   7.379  10.143  0.00  0.00    +0.000 C 
ATOM     16  C   UNL     1      52.252   9.517  11.395  0.00  0.00    +0.000 C 
ENDBRANCH  13  14
ENDBRANCH  11  13
ENDBRANCH   6   7
BRANCH   4  17
ATOM     17  C   UNL     1      43.703   5.324  11.012  0.00  0.00    +0.000 C 
ATOM     18  C   UNL     1      43.392   6.808  11.011  0.00  0.00    +0.000 C 
ATOM     19  C   UNL     1      42.377   5.869  11.564  0.00  0.00    +0.000 C 
BRANCH  17  20
ATOM     20  N   UNL     1      43.493   4.447   9.857  0.00  0.00    +0.000 N 
ATOM     21  H   UNL     1      42.557   4.064   9.775  0.00  0.00    +0.000 HD
BRANCH  20  22
ATOM     22  C   UNL     1      44.453   3.740   9.123  0.00  0.00    +0.000 A 
ATOM     23  C   UNL     1      44.657   2.361   9.178  0.00  0.00    +0.000 A 
ATOM     24  C   UNL     1      45.712   1.782   8.465  0.00  0.00    +0.000 A 
ATOM     25  C   UNL     1      46.561   2.605   7.738  0.00  0.00    +0.000 A 
ATOM     26  N   UNL     1      46.412   3.953   7.659  0.00  0.00    +0.000 NA
ATOM     27  C   UNL     1      45.374   4.467   8.357  0.00  0.00    +0.000 A 
BRANCH  25  28
ATOM     28  C   UNL     1      47.743   2.044   7.003  0.00  0.00    +0.000 C 
ATOM     29  N   UNL     1      48.580   2.980   6.460  0.00  0.00    +0.000 N 
ATOM     30  O   UNL     1      47.953   0.839   6.902  0.00  0.00    +0.000 OA
ATOM     31  H   UNL     1      48.378   3.967   6.585  0.00  0.00    +0.000 HD
ATOM     32  H   UNL     1      49.410   2.687   5.964  0.00  0.00    +0.000 HD
ENDBRANCH  25  28
ENDBRANCH  20  22
ENDBRANCH  17  20
ENDBRANCH   4  17
BRANCH   1  34
ATOM     33  C   UNL     1      47.759   3.235  15.788  0.00  0.00    +0.000 C 
ATOM     34  O   UNL     1      47.959   3.504  14.405  0.00  0.00    +0.000 OA
ENDBRANCH   1  34
TORSDOF 8
ENDMDL
MODEL 5
REMARK VINA RESULT:    -8.301      1.667      2.634
REMARK INTER + INTRA:         -12.976
REMARK INTER:                 -12.185
REMARK INTRA:                  -0.790
REMARK UNBOUND:                -0.792
REMARK  Name = 
REMARK  11 active torsions:
REMARK  status: ('A' for Active; 'I' for Inactive)
REMARK    1  A    between atoms: C_1  and  O_2
REMARK    2  A    between atoms: O_2  and  C_3
REMARK    3  A    between atoms: C_6  and  C_7
REMARK    4  A    between atoms: C_7  and  N_8
REMARK    5  A    between atoms: N_8  and  C_9
REMARK    6  A    between atoms: C_12  and  C_13
REMARK    7  A    between atoms: C_21  and  C_22
REMARK    8  A    between atoms: C_26  and  O_27
REMARK    9  A    between atoms: O_27  and  C_28
REMARK   10  A    between atoms: C_28  and  C_29
REMARK   11  A    between atoms: C_28  and  C_30
REMARK                            x       y       z     vdW  Elec       q    Type
REMARK                         _______ _______ _______ _____ _____    ______ ____
ROOT
ATOM      1  C   UNL     1      47.902   5.926  13.626  0.00  0.00    +0.000 A 
ATOM      2  C   UNL     1      47.382   6.579  12.499  0.00  0.00    +0.000 A 
ATOM      3  C   UNL     1      46.185   6.153  11.908  0.00  0.00    +0.000 A 
ATOM      4  C   UNL     1      45.509   5.019  12.367  0.00  0.00    +0.000 A 
ATOM      5  C   UNL     1      46.109   4.320  13.424  0.00  0.00    +0.000 A 
ATOM      6  C   UNL     1      47.228   4.800  14.145  0.00  0.00    +0.000 A 
ENDROOT
BRANCH   6   7
ATOM      7  C   UNL     1      47.503   4.194  15.477  0.00  0.00    +0.000 A 
ATOM      8  C   UNL     1      46.774   4.645  16.601  0.00  0.00    +0.000 A 
ATOM      9  C   UNL     1      47.040   4.193  17.891  0.00  0.00    +0.000 A 
ATOM     10  C   UNL     1      48.041   3.255  18.094  0.00  0.00    +0.000 A 
ATOM     11  C   UNL     1      48.725   2.724  17.001  0.00  0.00    +0.000 A 
ATOM     12  C   UNL     1      48.482   3.216  15.710  0.00  0.00    +0.000 A 
BRANCH  11  13
ATOM     13  O   UNL     1      49.643   1.711  17.082  0.00  0.00    +0.000 OA
BRANCH  13  14
ATOM     14  C   UNL     1      51.030   2.081  17.038  0.00  0.00    +0.000 C 
ATOM     15  C   UNL     1      51.327   3.324  17.881  0.00  0.00    +0.000 C 
ATOM     16  C   UNL     1      51.812   0.901  17.610  0.00  0.00    +0.000 C 
ENDBRANCH  13  14
ENDBRANCH  11  13
ENDBRANCH   6   7
BRANCH   4  17
ATOM     17  C   UNL     1      44.134   4.605  11.843  0.00  0.00    +0.000 C 
ATOM     18  C   UNL     1      42.943   4.831  12.756  0.00  0.00    +0.000 C 
ATOM     19  C   UNL     1      43.434   3.438  12.557  0.00  0.00    +0.000 C 
BRANCH  17  20
ATOM     20  N   UNL     1      44.034   4.492  10.386  0.00  0.00    +0.000 N 
ATOM     21  H   UNL     1      43.091   4.556  10.016  0.00  0.00    +0.000 HD
BRANCH  20  22
ATOM     22  C   UNL     1      44.945   3.903   9.500  0.00  0.00    +0.000 A 
ATOM     23  C   UNL     1      45.728   4.591   8.574  0.00  0.00    +0.000 A 
ATOM     24  C   UNL     1      46.534   3.882   7.677  0.00  0.00    +0.000 A 
ATOM     25  C   UNL     1      46.509   2.494   7.707  0.00  0.00    +0.000 A 
ATOM     26  N   UNL     1      45.757   1.777   8.583  0.00  0.00    +0.000 NA
ATOM     27  C   UNL     1      45.002   2.505   9.436  0.00  0.00    +0.000 A 
BRANCH  25  28
ATOM     28  C   UNL     1      47.308   1.683   6.729  0.00  0.00    +0.000 C 
ATOM     29  N   UNL     1      48.265   2.384   6.046  0.00  0.00    +0.000 N 
ATOM     30  O   UNL     1      47.129   0.481   6.559  0.00  0.00    +0.000 OA
ATOM     31  H   UNL     1      48.392   3.373   6.234  0.00  0.00    +0.000 HD
ATOM     32  H   UNL     1      48.859   1.909   5.382  0.00  0.00    +0.000 HD
ENDBRANCH  25  28
ENDBRANCH  20  22
ENDBRANCH  17  20
ENDBRANCH   4  17
BRANCH   1  34
ATOM     33  C   UNL     1      49.207   7.758  14.451  0.00  0.00    +0.000 C 
ATOM     34  O   UNL     1      49.018   6.357  14.296  0.00  0.00    +0.000 OA
ENDBRANCH   1  34
TORSDOF 8
ENDMDL
MODEL 6
REMARK VINA RESULT:    -8.140      1.747      3.387
REMARK INTER + INTRA:         -12.739
REMARK INTER:                 -11.929
REMARK INTRA:                  -0.810
REMARK UNBOUND:                -0.792
REMARK  Name = 
REMARK  11 active torsions:
REMARK  status: ('A' for Active; 'I' for Inactive)
REMARK    1  A    between atoms: C_1  and  O_2
REMARK    2  A    between atoms: O_2  and  C_3
REMARK    3  A    between atoms: C_6  and  C_7
REMARK    4  A    between atoms: C_7  and  N_8
REMARK    5  A    between atoms: N_8  and  C_9
REMARK    6  A    between atoms: C_12  and  C_13
REMARK    7  A    between atoms: C_21  and  C_22
REMARK    8  A    between atoms: C_26  and  O_27
REMARK    9  A    between atoms: O_27  and  C_28
REMARK   10  A    between atoms: C_28  and  C_29
REMARK   11  A    between atoms: C_28  and  C_30
REMARK                            x       y       z     vdW  Elec       q    Type
REMARK                         _______ _______ _______ _____ _____    ______ ____
ROOT
ATOM      1  C   UNL     1      45.358   8.323  11.666  0.00  0.00    +0.000 A 
ATOM      2  C   UNL     1      44.024   7.968  11.420  0.00  0.00    +0.000 A 
ATOM      3  C   UNL     1      43.636   6.623  11.357  0.00  0.00    +0.000 A 
ATOM      4  C   UNL     1      44.571   5.589  11.456  0.00  0.00    +0.000 A 
ATOM      5  C   UNL     1      45.914   5.974  11.589  0.00  0.00    +0.000 A 
ATOM      6  C   UNL     1      46.328   7.309  11.810  0.00  0.00    +0.000 A 
ENDROOT
BRANCH   6   7
ATOM      7  C   UNL     1      47.701   7.526  12.345  0.00  0.00    +0.000 A 
ATOM      8  C   UNL     1      48.625   8.275  11.582  0.00  0.00    +0.000 A 
ATOM      9  C   UNL     1      49.952   8.439  11.972  0.00  0.00    +0.000 A 
ATOM     10  C   UNL     1      50.392   7.869  13.157  0.00  0.00    +0.000 A 
ATOM     11  C   UNL     1      49.489   7.195  13.978  0.00  0.00    +0.000 A 
ATOM     12  C   UNL     1      48.166   6.995  13.557  0.00  0.00    +0.000 A 
BRANCH  11  13
ATOM     13  O   UNL     1      49.793   6.702  15.219  0.00  0.00    +0.000 OA
BRANCH  13  14
ATOM     14  C   UNL     1      48.706   6.552  16.147  0.00  0.00    +0.000 C 
ATOM     15  C   UNL     1      48.722   5.190  16.846  0.00  0.00    +0.000 C 
ATOM     16  C   UNL     1      48.881   7.646  17.198  0.00  0.00    +0.000 C 
ENDBRANCH  13  14
ENDBRANCH  11  13
ENDBRANCH   6   7
BRANCH   4  17
ATOM     17  C   UNL     1      44.174   4.116  11.533  0.00  0.00    +0.000 C 
ATOM     18  C   UNL     1      43.701   3.591  12.876  0.00  0.00    +0.000 C 
ATOM     19  C   UNL     1      45.054   3.196  12.394  0.00  0.00    +0.000 C 
BRANCH  17  20
ATOM     20  N   UNL     1      43.831   3.498  10.250  0.00  0.00    +0.000 N 
ATOM     21  H   UNL     1      42.927   3.036  10.226  0.00  0.00    +0.000 HD
BRANCH  20  22
ATOM     22  C   UNL     1      44.696   3.089   9.228  0.00  0.00    +0.000 A 
ATOM     23  C   UNL     1      45.237   1.811   9.092  0.00  0.00    +0.000 A 
ATOM     24  C   UNL     1      46.166   1.549   8.079  0.00  0.00    +0.000 A 
ATOM     25  C   UNL     1      46.557   2.588   7.245  0.00  0.00    +0.000 A 
ATOM     26  N   UNL     1      46.067   3.852   7.341  0.00  0.00    +0.000 NA
ATOM     27  C   UNL     1      45.166   4.055   8.328  0.00  0.00    +0.000 A 
BRANCH  25  28
ATOM     28  C   UNL     1      47.594   2.378   6.180  0.00  0.00    +0.000 C 
ATOM     29  N   UNL     1      47.525   3.253   5.130  0.00  0.00    +0.000 N 
ATOM     30  O   UNL     1      48.446   1.497   6.245  0.00  0.00    +0.000 OA
ATOM     31  H   UNL     1      46.815   3.979   5.127  0.00  0.00    +0.000 HD
ATOM     32  H   UNL     1      48.197   3.192   4.379  0.00  0.00    +0.000 HD
ENDBRANCH  25  28
ENDBRANCH  20  22
ENDBRANCH  17  20
ENDBRANCH   4  17
BRANCH   1  34
ATOM     33  C   UNL     1      44.860  10.661  11.505  0.00  0.00    +0.000 C 
ATOM     34  O   UNL     1      45.774   9.620  11.827  0.00  0.00    +0.000 OA
ENDBRANCH   1  34
TORSDOF 8
ENDMDL
MODEL 7
REMARK VINA RESULT:    -7.848      3.172      4.751
REMARK INTER + INTRA:         -12.310
REMARK INTER:                 -11.489
REMARK INTRA:                  -0.821
REMARK UNBOUND:                -0.792
REMARK  Name = 
REMARK  11 active torsions:
REMARK  status: ('A' for Active; 'I' for Inactive)
REMARK    1  A    between atoms: C_1  and  O_2
REMARK    2  A    between atoms: O_2  and  C_3
REMARK    3  A    between atoms: C_6  and  C_7
REMARK    4  A    between atoms: C_7  and  N_8
REMARK    5  A    between atoms: N_8  and  C_9
REMARK    6  A    between atoms: C_12  and  C_13
REMARK    7  A    between atoms: C_21  and  C_22
REMARK    8  A    between atoms: C_26  and  O_27
REMARK    9  A    between atoms: O_27  and  C_28
REMARK   10  A    between atoms: C_28  and  C_29
REMARK   11  A    between atoms: C_28  and  C_30
REMARK                            x       y       z     vdW  Elec       q    Type
REMARK                         _______ _______ _______ _____ _____    ______ ____
ROOT
ATOM      1  C   UNL     1      45.549   8.670  11.705  0.00  0.00    +0.000 A 
ATOM      2  C   UNL     1      44.192   8.401  11.473  0.00  0.00    +0.000 A 
ATOM      3  C   UNL     1      43.717   7.084  11.419  0.00  0.00    +0.000 A 
ATOM      4  C   UNL     1      44.584   5.993  11.515  0.00  0.00    +0.000 A 
ATOM      5  C   UNL     1      45.950   6.289  11.635  0.00  0.00    +0.000 A 
ATOM      6  C   UNL     1      46.452   7.595  11.846  0.00  0.00    +0.000 A 
ENDROOT
BRANCH   6   7
ATOM      7  C   UNL     1      47.841   7.724  12.368  0.00  0.00    +0.000 A 
ATOM      8  C   UNL     1      48.129   7.269  13.675  0.00  0.00    +0.000 A 
ATOM      9  C   UNL     1      49.379   7.442  14.264  0.00  0.00    +0.000 A 
ATOM     10  C   UNL     1      50.392   8.065  13.551  0.00  0.00    +0.000 A 
ATOM     11  C   UNL     1      50.170   8.451  12.229  0.00  0.00    +0.000 A 
ATOM     12  C   UNL     1      48.897   8.314  11.658  0.00  0.00    +0.000 A 
BRANCH  11  13
ATOM     13  O   UNL     1      51.135   8.963  11.402  0.00  0.00    +0.000 OA
BRANCH  13  14
ATOM     14  C   UNL     1      52.281   8.135  11.147  0.00  0.00    +0.000 C 
ATOM     15  C   UNL     1      52.049   7.163   9.987  0.00  0.00    +0.000 C 
ATOM     16  C   UNL     1      53.423   9.079  10.775  0.00  0.00    +0.000 C 
ENDBRANCH  13  14
ENDBRANCH  11  13
ENDBRANCH   6   7
BRANCH   4  17
ATOM     17  C   UNL     1      44.092   4.548  11.603  0.00  0.00    +0.000 C 
ATOM     18  C   UNL     1      43.547   4.077  12.937  0.00  0.00    +0.000 C 
ATOM     19  C   UNL     1      44.887   3.590  12.504  0.00  0.00    +0.000 C 
BRANCH  17  20
ATOM     20  N   UNL     1      43.750   3.931  10.319  0.00  0.00    +0.000 N 
ATOM     21  H   UNL     1      42.818   3.532  10.271  0.00  0.00    +0.000 HD
BRANCH  20  22
ATOM     22  C   UNL     1      44.619   3.443   9.335  0.00  0.00    +0.000 A 
ATOM     23  C   UNL     1      44.966   2.104   9.157  0.00  0.00    +0.000 A 
ATOM     24  C   UNL     1      45.919   1.751   8.196  0.00  0.00    +0.000 A 
ATOM     25  C   UNL     1      46.528   2.756   7.455  0.00  0.00    +0.000 A 
ATOM     26  N   UNL     1      46.232   4.075   7.597  0.00  0.00    +0.000 NA
ATOM     27  C   UNL     1      45.299   4.367   8.531  0.00  0.00    +0.000 A 
BRANCH  25  28
ATOM     28  C   UNL     1      47.599   2.440   6.453  0.00  0.00    +0.000 C 
ATOM     29  N   UNL     1      47.412   2.996   5.217  0.00  0.00    +0.000 N 
ATOM     30  O   UNL     1      48.575   1.745   6.718  0.00  0.00    +0.000 OA
ATOM     31  H   UNL     1      46.600   3.581   5.047  0.00  0.00    +0.000 HD
ATOM     32  H   UNL     1      48.096   2.848   4.489  0.00  0.00    +0.000 HD
ENDBRANCH  25  28
ENDBRANCH  20  22
ENDBRANCH  17  20
ENDBRANCH   4  17
BRANCH   1  34
ATOM     33  C   UNL     1      45.199  11.035  11.547  0.00  0.00    +0.000 C 
ATOM     34  O   UNL     1      46.050   9.937  11.857  0.00  0.00    +0.000 OA
ENDBRANCH   1  34
TORSDOF 8
ENDMDL
MODEL 8
REMARK VINA RESULT:    -7.529      3.671      7.674
REMARK INTER + INTRA:         -11.842
REMARK INTER:                 -10.233
REMARK INTRA:                  -1.609
REMARK UNBOUND:                -0.792
REMARK  Name = 
REMARK  11 active torsions:
REMARK  status: ('A' for Active; 'I' for Inactive)
REMARK    1  A    between atoms: C_1  and  O_2
REMARK    2  A    between atoms: O_2  and  C_3
REMARK    3  A    between atoms: C_6  and  C_7
REMARK    4  A    between atoms: C_7  and  N_8
REMARK    5  A    between atoms: N_8  and  C_9
REMARK    6  A    between atoms: C_12  and  C_13
REMARK    7  A    between atoms: C_21  and  C_22
REMARK    8  A    between atoms: C_26  and  O_27
REMARK    9  A    between atoms: O_27  and  C_28
REMARK   10  A    between atoms: C_28  and  C_29
REMARK   11  A    between atoms: C_28  and  C_30
REMARK                            x       y       z     vdW  Elec       q    Type
REMARK                         _______ _______ _______ _____ _____    ______ ____
ROOT
ATOM      1  C   UNL     1      47.264   5.267  14.298  0.00  0.00    +0.000 A 
ATOM      2  C   UNL     1      48.246   6.074  14.890  0.00  0.00    +0.000 A 
ATOM      3  C   UNL     1      48.615   7.298  14.317  0.00  0.00    +0.000 A 
ATOM      4  C   UNL     1      48.079   7.723  13.098  0.00  0.00    +0.000 A 
ATOM      5  C   UNL     1      47.182   6.845  12.471  0.00  0.00    +0.000 A 
ATOM      6  C   UNL     1      46.670   5.678  13.086  0.00  0.00    +0.000 A 
ENDROOT
BRANCH   6   7
ATOM      7  C   UNL     1      45.438   5.077  12.504  0.00  0.00    +0.000 A 
ATOM      8  C   UNL     1      44.175   5.544  12.936  0.00  0.00    +0.000 A 
ATOM      9  C   UNL     1      42.983   4.966  12.508  0.00  0.00    +0.000 A 
ATOM     10  C   UNL     1      43.017   3.907  11.615  0.00  0.00    +0.000 A 
ATOM     11  C   UNL     1      44.239   3.474  11.102  0.00  0.00    +0.000 A 
ATOM     12  C   UNL     1      45.438   4.030  11.570  0.00  0.00    +0.000 A 
BRANCH  11  13
ATOM     13  O   UNL     1      44.374   2.520  10.128  0.00  0.00    +0.000 OA
BRANCH  13  14
ATOM     14  C   UNL     1      45.339   2.773   9.095  0.00  0.00    +0.000 C 
ATOM     15  C   UNL     1      45.802   1.487   8.404  0.00  0.00    +0.000 C 
ATOM     16  C   UNL     1      44.648   3.663   8.064  0.00  0.00    +0.000 C 
ENDBRANCH  13  14
ENDBRANCH  11  13
ENDBRANCH   6   7
BRANCH   4  17
ATOM     17  C   UNL     1      48.348   9.109  12.512  0.00  0.00    +0.000 C 
ATOM     18  C   UNL     1      49.379   9.209  11.405  0.00  0.00    +0.000 C 
ATOM     19  C   UNL     1      49.737   9.716  12.759  0.00  0.00    +0.000 C 
BRANCH  17  20
ATOM     20  N   UNL     1      47.279  10.088  12.721  0.00  0.00    +0.000 N 
ATOM     21  H   UNL     1      47.236  10.481  13.657  0.00  0.00    +0.000 HD
BRANCH  20  22
ATOM     22  C   UNL     1      46.092  10.242  11.994  0.00  0.00    +0.000 A 
ATOM     23  C   UNL     1      44.977   9.410  12.085  0.00  0.00    +0.000 A 
ATOM     24  C   UNL     1      43.883   9.613  11.236  0.00  0.00    +0.000 A 
ATOM     25  C   UNL     1      43.948  10.627  10.290  0.00  0.00    +0.000 A 
ATOM     26  N   UNL     1      45.014  11.459  10.156  0.00  0.00    +0.000 NA
ATOM     27  C   UNL     1      46.043  11.232  11.003  0.00  0.00    +0.000 A 
BRANCH  25  28
ATOM     28  C   UNL     1      42.829  10.851   9.316  0.00  0.00    +0.000 C 
ATOM     29  N   UNL     1      41.575  10.820   9.862  0.00  0.00    +0.000 N 
ATOM     30  O   UNL     1      43.018  11.058   8.121  0.00  0.00    +0.000 OA
ATOM     31  H   UNL     1      41.466  10.666  10.860  0.00  0.00    +0.000 HD
ATOM     32  H   UNL     1      40.767  10.980   9.279  0.00  0.00    +0.000 HD
ENDBRANCH  25  28
ENDBRANCH  20  22
ENDBRANCH  17  20
ENDBRANCH   4  17
BRANCH   1  34
ATOM     33  C   UNL     1      47.332   3.720  16.125  0.00  0.00    +0.000 C 
ATOM     34  O   UNL     1      46.802   4.107  14.864  0.00  0.00    +0.000 OA
ENDBRANCH   1  34
TORSDOF 8
ENDMDL
MODEL 9
REMARK VINA RESULT:    -7.168      2.949      5.018
REMARK INTER + INTRA:         -11.312
REMARK INTER:                  -9.652
REMARK INTRA:                  -1.660
REMARK UNBOUND:                -0.792
REMARK  Name = 
REMARK  11 active torsions:
REMARK  status: ('A' for Active; 'I' for Inactive)
REMARK    1  A    between atoms: C_1  and  O_2
REMARK    2  A    between atoms: O_2  and  C_3
REMARK    3  A    between atoms: C_6  and  C_7
REMARK    4  A    between atoms: C_7  and  N_8
REMARK    5  A    between atoms: N_8  and  C_9
REMARK    6  A    between atoms: C_12  and  C_13
REMARK    7  A    between atoms: C_21  and  C_22
REMARK    8  A    between atoms: C_26  and  O_27
REMARK    9  A    between atoms: O_27  and  C_28
REMARK   10  A    between atoms: C_28  and  C_29
REMARK   11  A    between atoms: C_28  and  C_30
REMARK                            x       y       z     vdW  Elec       q    Type
REMARK                         _______ _______ _______ _____ _____    ______ ____
ROOT
ATOM      1  C   UNL     1      48.645   8.027  16.805  0.00  0.00    +0.000 A 
ATOM      2  C   UNL     1      48.361   9.215  16.117  0.00  0.00    +0.000 A 
ATOM      3  C   UNL     1      48.259   9.233  14.720  0.00  0.00    +0.000 A 
ATOM      4  C   UNL     1      48.513   8.090  13.957  0.00  0.00    +0.000 A 
ATOM      5  C   UNL     1      48.904   6.942  14.663  0.00  0.00    +0.000 A 
ATOM      6  C   UNL     1      48.870   6.842  16.074  0.00  0.00    +0.000 A 
ENDROOT
BRANCH   6   7
ATOM      7  C   UNL     1      48.899   5.476  16.669  0.00  0.00    +0.000 A 
ATOM      8  C   UNL     1      47.738   4.673  16.601  0.00  0.00    +0.000 A 
ATOM      9  C   UNL     1      47.660   3.426  17.217  0.00  0.00    +0.000 A 
ATOM     10  C   UNL     1      48.757   2.934  17.908  0.00  0.00    +0.000 A 
ATOM     11  C   UNL     1      49.947   3.660  17.924  0.00  0.00    +0.000 A 
ATOM     12  C   UNL     1      50.004   4.935  17.341  0.00  0.00    +0.000 A 
BRANCH  11  13
ATOM     13  O   UNL     1      51.119   3.211  18.473  0.00  0.00    +0.000 OA
BRANCH  13  14
ATOM     14  C   UNL     1      52.111   2.702  17.568  0.00  0.00    +0.000 C 
ATOM     15  C   UNL     1      53.534   3.071  17.997  0.00  0.00    +0.000 C 
ATOM     16  C   UNL     1      51.973   1.181  17.584  0.00  0.00    +0.000 C 
ENDBRANCH  13  14
ENDBRANCH  11  13
ENDBRANCH   6   7
BRANCH   4  17
ATOM     17  C   UNL     1      48.276   8.031  12.448  0.00  0.00    +0.000 C 
ATOM     18  C   UNL     1      49.462   7.678  11.570  0.00  0.00    +0.000 C 
ATOM     19  C   UNL     1      48.983   9.089  11.586  0.00  0.00    +0.000 C 
BRANCH  17  20
ATOM     20  N   UNL     1      46.880   7.843  12.046  0.00  0.00    +0.000 N 
ATOM     21  H   UNL     1      46.325   8.693  12.020  0.00  0.00    +0.000 HD
BRANCH  20  22
ATOM     22  C   UNL     1      46.112   6.674  12.106  0.00  0.00    +0.000 A 
ATOM     23  C   UNL     1      45.881   5.919  13.256  0.00  0.00    +0.000 A 
ATOM     24  C   UNL     1      45.173   4.716  13.171  0.00  0.00    +0.000 A 
ATOM     25  C   UNL     1      44.740   4.279  11.926  0.00  0.00    +0.000 A 
ATOM     26  N   UNL     1      44.948   4.972  10.776  0.00  0.00    +0.000 NA
ATOM     27  C   UNL     1      45.629   6.133  10.908  0.00  0.00    +0.000 A 
BRANCH  25  28
ATOM     28  C   UNL     1      44.027   2.968  11.769  0.00  0.00    +0.000 C 
ATOM     29  N   UNL     1      44.142   2.396  10.532  0.00  0.00    +0.000 N 
ATOM     30  O   UNL     1      43.397   2.440  12.680  0.00  0.00    +0.000 OA
ATOM     31  H   UNL     1      44.691   2.859   9.813  0.00  0.00    +0.000 HD
ATOM     32  H   UNL     1      43.708   1.504  10.347  0.00  0.00    +0.000 HD
ENDBRANCH  25  28
ENDBRANCH  20  22
ENDBRANCH  17  20
ENDBRANCH   4  17
BRANCH   1  34
ATOM     33  C   UNL     1      47.637   8.593  18.903  0.00  0.00    +0.000 C 
ATOM     34  O   UNL     1      48.665   7.936  18.173  0.00  0.00    +0.000 OA
ENDBRANCH   1  34
TORSDOF 8
ENDMDL
