MODEL 1
REMARK VINA RESULT:    -8.686      0.000      0.000
REMARK INTER + INTRA:         -11.666
REMARK INTER:                 -11.225
REMARK INTRA:                  -0.441
REMARK UNBOUND:                -0.441
REMARK  Name = 
REMARK  6 active torsions:
REMARK  status: ('A' for Active; 'I' for Inactive)
REMARK    1  A    between atoms: C_1  and  C_2
REMARK    2  A    between atoms: C_2  and  N_3
REMARK    3  A    between atoms: C_2  and  C_16
REMARK    4  A    between atoms: C_4  and  C_6
REMARK    5  A    between atoms: C_19  and  O_20
REMARK    6  A    between atoms: O_20  and  C_21
REMARK                            x       y       z     vdW  Elec       q    Type
REMARK                         _______ _______ _______ _____ _____    ______ ____
ROOT
ATOM      1  C   UNL     1      46.288   8.626  11.946  0.00  0.00    +0.000 C 
ATOM      2  C   UNL     1      45.656   7.374  12.559  0.00  0.00    +0.000 C 
ENDROOT
BRANCH   2   3
ATOM      3  C   UNL     1      45.472   6.236  11.570  0.00  0.00    +0.000 A 
ATOM      4  C   UNL     1      44.688   5.135  11.947  0.00  0.00    +0.000 A 
ATOM      5  C   UNL     1      44.416   4.108  11.041  0.00  0.00    +0.000 A 
ATOM      6  C   UNL     1      44.870   4.190   9.724  0.00  0.00    +0.000 A 
ATOM      7  C   UNL     1      45.730   5.227   9.366  0.00  0.00    +0.000 A 
ATOM      8  C   UNL     1      46.041   6.236  10.286  0.00  0.00    +0.000 A 
BRANCH   6   9
ATOM      9  O   UNL     1      44.547   3.282   8.739  0.00  0.00    +0.000 OA
BRANCH   9  10
ATOM     10  C   UNL     1      45.549   2.755   7.951  0.00  0.00    +0.000 A 
ATOM     11  C   UNL     1      46.101   3.399   6.838  0.00  0.00    +0.000 A 
ATOM     12  C   UNL     1      47.052   2.750   6.049  0.00  0.00    +0.000 A 
ATOM     13  C   UNL     1      47.510   1.487   6.411  0.00  0.00    +0.000 A 
ATOM     14  C   UNL     1      47.026   0.875   7.567  0.00  0.00    +0.000 A 
ATOM     15  C   UNL     1      46.044   1.508   8.335  0.00  0.00    +0.000 A 
ENDBRANCH   9  10
ENDBRANCH   6   9
ENDBRANCH   2   3
BRANCH   2  16
ATOM     16  N   UNL     1      46.389   6.925  13.726  0.00  0.00    +0.000 N 
ATOM     17  C   UNL     1      47.744   6.699  13.677  0.00  0.00    +0.000 C 
ATOM     18  O   UNL     1      48.392   6.852  12.644  0.00  0.00    +0.000 OA
ATOM     19  H   UNL     1      45.855   6.621  14.534  0.00  0.00    +0.000 HD
BRANCH  17  20
ATOM     20  C   UNL     1      48.408   6.338  14.934  0.00  0.00    +0.000 A 
ATOM     21  C   UNL     1      49.458   7.121  15.397  0.00  0.00    +0.000 A 
ATOM     22  S   UNL     1      50.120   6.581  16.871  0.00  0.00    +0.000 S 
ATOM     23  C   UNL     1      49.061   5.248  16.912  0.00  0.00    +0.000 A 
ATOM     24  N   UNL     1      49.138   4.331  17.916  0.00  0.00    +0.000 NA
ATOM     25  C   UNL     1      48.311   3.351  17.802  0.00  0.00    +0.000 A 
ATOM     26  N   UNL     1      47.401   3.209  16.784  0.00  0.00    +0.000 N 
ATOM     27  C   UNL     1      47.248   4.140  15.784  0.00  0.00    +0.000 A 
ATOM     28  O   UNL     1      46.367   4.031  14.943  0.00  0.00    +0.000 OA
ATOM     29  C   UNL     1      48.192   5.239  15.841  0.00  0.00    +0.000 A 
ATOM     30  H   UNL     1      46.766   2.424  16.767  0.00  0.00    +0.000 HD
ENDBRANCH  17  20
ENDBRANCH   2  16
TORSDOF 5
ENDMDL
MODEL 2
REMARK VINA RESULT:    -8.574      1.621      2.107
REMARK INTER + INTRA:         -11.521
REMARK INTER:                 -11.134
REMARK INTRA:                  -0.387
REMARK UNBOUND:                -0.441
REMARK  Name = 
REMARK  6 active torsions:
REMARK  status: ('A' for Active; 'I' for Inactive)
REMARK    1  A    between atoms: C_1  and  C_2
REMARK    2  A    between atoms: C_2  and  N_3
REMARK    3  A    between atoms: C_2  and  C_16
REMARK    4  A    between atoms: C_4  and  C_6
REMARK    5  A    between atoms: C_19  and  O_20
REMARK    6  A    between atoms: O_20  and  C_21
REMARK                            x       y       z     vdW  Elec       q    Type
REMARK                         _______ _______ _______ _____ _____    ______ ____
ROOT
ATOM      1  C   UNL     1      42.881   5.151  13.248  0.00  0.00    +0.000 C 
ATOM      2  C   UNL     1      44.242   4.482  13.048  0.00  0.00    +0.000 C 
ENDROOT
BRANCH   2   3
ATOM      3  C   UNL     1      44.674   4.399  11.594  0.00  0.00    +0.000 A 
ATOM      4  C   UNL     1      44.264   3.295  10.831  0.00  0.00    +0.000 A 
ATOM      5  C   UNL     1      44.560   3.219   9.468  0.00  0.00    +0.000 A 
ATOM      6  C   UNL     1      45.216   4.272   8.830  0.00  0.00    +0.000 A 
ATOM      7  C   UNL     1      45.714   5.324   9.594  0.00  0.00    +0.000 A 
ATOM      8  C   UNL     1      45.458   5.382  10.969  0.00  0.00    +0.000 A 
BRANCH   6   9
ATOM      9  O   UNL     1      45.440   4.329   7.471  0.00  0.00    +0.000 OA
BRANCH   9  10
ATOM     10  C   UNL     1      46.298   3.420   6.888  0.00  0.00    +0.000 A 
ATOM     11  C   UNL     1      46.785   3.519   5.580  0.00  0.00    +0.000 A 
ATOM     12  C   UNL     1      47.580   2.503   5.046  0.00  0.00    +0.000 A 
ATOM     13  C   UNL     1      47.955   1.424   5.842  0.00  0.00    +0.000 A 
ATOM     14  C   UNL     1      47.542   1.362   7.172  0.00  0.00    +0.000 A 
ATOM     15  C   UNL     1      46.712   2.359   7.694  0.00  0.00    +0.000 A 
ENDBRANCH   9  10
ENDBRANCH   6   9
ENDBRANCH   2   3
BRANCH   2  16
ATOM     16  N   UNL     1      45.270   5.115  13.852  0.00  0.00    +0.000 N 
ATOM     17  C   UNL     1      46.406   4.437  14.223  0.00  0.00    +0.000 C 
ATOM     18  O   UNL     1      46.598   3.264  13.906  0.00  0.00    +0.000 OA
ATOM     19  H   UNL     1      45.056   6.013  14.274  0.00  0.00    +0.000 HD
BRANCH  17  20
ATOM     20  C   UNL     1      47.427   5.194  14.956  0.00  0.00    +0.000 A 
ATOM     21  C   UNL     1      48.111   6.214  14.307  0.00  0.00    +0.000 A 
ATOM     22  S   UNL     1      49.257   7.006  15.288  0.00  0.00    +0.000 S 
ATOM     23  C   UNL     1      48.917   5.972  16.599  0.00  0.00    +0.000 A 
ATOM     24  N   UNL     1      49.608   6.083  17.768  0.00  0.00    +0.000 NA
ATOM     25  C   UNL     1      49.284   5.213  18.658  0.00  0.00    +0.000 A 
ATOM     26  N   UNL     1      48.319   4.249  18.497  0.00  0.00    +0.000 N 
ATOM     27  C   UNL     1      47.557   4.140  17.358  0.00  0.00    +0.000 A 
ATOM     28  O   UNL     1      46.643   3.330  17.280  0.00  0.00    +0.000 OA
ATOM     29  C   UNL     1      47.919   5.067  16.305  0.00  0.00    +0.000 A 
ATOM     30  H   UNL     1      48.099   3.609  19.247  0.00  0.00    +0.000 HD
ENDBRANCH  17  20
ENDBRANCH   2  16
TORSDOF 5
ENDMDL
MODEL 3
REMARK VINA RESULT:    -8.238      1.404      2.160
REMARK INTER + INTRA:         -11.087
REMARK INTER:                 -10.858
REMARK INTRA:                  -0.229
REMARK UNBOUND:                -0.441
REMARK  Name = 
REMARK  6 active torsions:
REMARK  status: ('A' for Active; 'I' for Inactive)
REMARK    1  A    between atoms: C_1  and  C_2
REMARK    2  A    between atoms: C_2  and  N_3
REMARK    3  A    between atoms: C_2  and  C_16
REMARK    4  A    between atoms: C_4  and  C_6
REMARK    5  A    between atoms: C_19  and  O_20
REMARK    6  A    between atoms: O_20  and  C_21
REMARK                            x       y       z     vdW  Elec       q    Type
REMARK                         _______ _______ _______ _____ _____    ______ ____
ROOT
ATOM      1  C   UNL     1      46.572   7.778  12.429  0.00  0.00    +0.000 C 
ATOM      2  C   UNL     1      45.578   6.692  12.846  0.00  0.00    +0.000 C 
ENDROOT
BRANCH   2   3
ATOM      3  C   UNL     1      45.205   5.742  11.721  0.00  0.00    +0.000 A 
ATOM      4  C   UNL     1      45.781   5.934  10.456  0.00  0.00    +0.000 A 
ATOM      5  C   UNL     1      45.539   5.034   9.416  0.00  0.00    +0.000 A 
ATOM      6  C   UNL     1      44.767   3.893   9.637  0.00  0.00    +0.000 A 
ATOM      7  C   UNL     1      44.111   3.743  10.857  0.00  0.00    +0.000 A 
ATOM      8  C   UNL     1      44.316   4.667  11.888  0.00  0.00    +0.000 A 
BRANCH   6   9
ATOM      9  O   UNL     1      44.579   2.897   8.703  0.00  0.00    +0.000 OA
BRANCH   9  10
ATOM     10  C   UNL     1      45.605   2.579   7.838  0.00  0.00    +0.000 A 
ATOM     11  C   UNL     1      45.973   3.350   6.730  0.00  0.00    +0.000 A 
ATOM     12  C   UNL     1      46.968   2.902   5.860  0.00  0.00    +0.000 A 
ATOM     13  C   UNL     1      47.653   1.722   6.136  0.00  0.00    +0.000 A 
ATOM     14  C   UNL     1      47.349   0.993   7.285  0.00  0.00    +0.000 A 
ATOM     15  C   UNL     1      46.324   1.420   8.134  0.00  0.00    +0.000 A 
ENDBRANCH   9  10
ENDBRANCH   6   9
ENDBRANCH   2   3
BRANCH   2  16
ATOM     16  N   UNL     1      46.047   5.957  14.003  0.00  0.00    +0.000 N 
ATOM     17  C   UNL     1      47.341   5.499  14.084  0.00  0.00    +0.000 C 
ATOM     18  O   UNL     1      48.152   5.678  13.178  0.00  0.00    +0.000 OA
ATOM     19  H   UNL     1      45.356   5.642  14.678  0.00  0.00    +0.000 HD
BRANCH  17  20
ATOM     20  C   UNL     1      47.743   4.849  15.336  0.00  0.00    +0.000 A 
ATOM     21  C   UNL     1      47.419   3.513  15.541  0.00  0.00    +0.000 A 
ATOM     22  S   UNL     1      47.960   2.896  17.034  0.00  0.00    +0.000 S 
ATOM     23  C   UNL     1      48.597   4.412  17.482  0.00  0.00    +0.000 A 
ATOM     24  N   UNL     1      49.173   4.589  18.704  0.00  0.00    +0.000 NA
ATOM     25  C   UNL     1      49.571   5.791  18.931  0.00  0.00    +0.000 A 
ATOM     26  N   UNL     1      49.462   6.834  18.044  0.00  0.00    +0.000 N 
ATOM     27  C   UNL     1      48.944   6.685  16.779  0.00  0.00    +0.000 A 
ATOM     28  O   UNL     1      48.945   7.611  15.979  0.00  0.00    +0.000 OA
ATOM     29  C   UNL     1      48.435   5.359  16.493  0.00  0.00    +0.000 A 
ATOM     30  H   UNL     1      49.816   7.750  18.279  0.00  0.00    +0.000 HD
ENDBRANCH  17  20
ENDBRANCH   2  16
TORSDOF 5
ENDMDL
MODEL 4
REMARK VINA RESULT:    -8.171      1.522      2.211
REMARK INTER + INTRA:         -11.001
REMARK INTER:                  -9.692
REMARK INTRA:                  -1.309
REMARK UNBOUND:                -0.441
REMARK  Name = 
REMARK  6 active torsions:
REMARK  status: ('A' for Active; 'I' for Inactive)
REMARK    1  A    between atoms: C_1  and  C_2
REMARK    2  A    between atoms: C_2  and  N_3
REMARK    3  A    between atoms: C_2  and  C_16
REMARK    4  A    between atoms: C_4  and  C_6
REMARK    5  A    between atoms: C_19  and  O_20
REMARK    6  A    between atoms: O_20  and  C_21
REMARK                            x       y       z     vdW  Elec       q    Type
REMARK                         _______ _______ _______ _____ _____    ______ ____
ROOT
ATOM      1  C   UNL     1      47.821   8.994  12.761  0.00  0.00    +0.000 C 
ATOM      2  C   UNL     1      47.151   7.913  13.610  0.00  0.00    +0.000 C 
ENDROOT
BRANCH   2   3
ATOM      3  C   UNL     1      46.244   6.988  12.817  0.00  0.00    +0.000 A 
ATOM      4  C   UNL     1      45.284   7.554  11.963  0.00  0.00    +0.000 A 
ATOM      5  C   UNL     1      44.489   6.747  11.147  0.00  0.00    +0.000 A 
ATOM      6  C   UNL     1      44.680   5.365  11.123  0.00  0.00    +0.000 A 
ATOM      7  C   UNL     1      45.558   4.784  12.035  0.00  0.00    +0.000 A 
ATOM      8  C   UNL     1      46.325   5.588  12.886  0.00  0.00    +0.000 A 
BRANCH   6   9
ATOM      9  O   UNL     1      44.022   4.511  10.262  0.00  0.00    +0.000 OA
BRANCH   9  10
ATOM     10  C   UNL     1      44.756   3.728   9.396  0.00  0.00    +0.000 A 
ATOM     11  C   UNL     1      44.783   2.329   9.425  0.00  0.00    +0.000 A 
ATOM     12  C   UNL     1      45.625   1.623   8.564  0.00  0.00    +0.000 A 
ATOM     13  C   UNL     1      46.384   2.308   7.619  0.00  0.00    +0.000 A 
ATOM     14  C   UNL     1      46.298   3.697   7.529  0.00  0.00    +0.000 A 
ATOM     15  C   UNL     1      45.486   4.406   8.419  0.00  0.00    +0.000 A 
ENDBRANCH   9  10
ENDBRANCH   6   9
ENDBRANCH   2   3
BRANCH   2  16
ATOM     16  N   UNL     1      48.125   7.150  14.366  0.00  0.00    +0.000 N 
ATOM     17  C   UNL     1      48.607   7.600  15.572  0.00  0.00    +0.000 C 
ATOM     18  O   UNL     1      48.249   8.671  16.057  0.00  0.00    +0.000 OA
ATOM     19  H   UNL     1      48.567   6.359  13.907  0.00  0.00    +0.000 HD
BRANCH  17  20
ATOM     20  C   UNL     1      49.517   6.710  16.302  0.00  0.00    +0.000 A 
ATOM     21  C   UNL     1      50.788   7.163  16.632  0.00  0.00    +0.000 A 
ATOM     22  S   UNL     1      51.724   6.023  17.485  0.00  0.00    +0.000 S 
ATOM     23  C   UNL     1      50.479   4.863  17.393  0.00  0.00    +0.000 A 
ATOM     24  N   UNL     1      50.657   3.612  17.900  0.00  0.00    +0.000 NA
ATOM     25  C   UNL     1      49.656   2.822  17.723  0.00  0.00    +0.000 A 
ATOM     26  N   UNL     1      48.484   3.171  17.099  0.00  0.00    +0.000 N 
ATOM     27  C   UNL     1      48.239   4.439  16.627  0.00  0.00    +0.000 A 
ATOM     28  O   UNL     1      47.150   4.744  16.158  0.00  0.00    +0.000 OA
ATOM     29  C   UNL     1      49.356   5.353  16.758  0.00  0.00    +0.000 A 
ATOM     30  H   UNL     1      47.728   2.506  17.013  0.00  0.00    +0.000 HD
ENDBRANCH  17  20
ENDBRANCH   2  16
TORSDOF 5
ENDMDL
MODEL 5
REMARK VINA RESULT:    -7.819      2.149      3.031
REMARK INTER + INTRA:         -10.545
REMARK INTER:                  -9.467
REMARK INTRA:                  -1.078
REMARK UNBOUND:                -0.441
REMARK  Name = 
REMARK  6 active torsions:
REMARK  status: ('A' for Active; 'I' for Inactive)
REMARK    1  A    between atoms: C_1  and  C_2
REMARK    2  A    between atoms: C_2  and  N_3
REMARK    3  A    between atoms: C_2  and  C_16
REMARK    4  A    between atoms: C_4  and  C_6
REMARK    5  A    between atoms: C_19  and  O_20
REMARK    6  A    between atoms: O_20  and  C_21
REMARK                            x       y       z     vdW  Elec       q    Type
REMARK                         _______ _______ _______ _____ _____    ______ ____
ROOT
ATOM      1  C   UNL     1      49.555   7.343  13.256  0.00  0.00    +0.000 C 
ATOM      2  C   UNL     1      48.149   7.585  13.808  0.00  0.00    +0.000 C 
ENDROOT
BRANCH   2   3
ATOM      3  C   UNL     1      47.057   6.865  13.035  0.00  0.00    +0.000 A 
ATOM      4  C   UNL     1      46.315   7.584  12.085  0.00  0.00    +0.000 A 
ATOM      5  C   UNL     1      45.364   6.944  11.287  0.00  0.00    +0.000 A 
ATOM      6  C   UNL     1      45.181   5.564  11.379  0.00  0.00    +0.000 A 
ATOM      7  C   UNL     1      45.838   4.857  12.383  0.00  0.00    +0.000 A 
ATOM      8  C   UNL     1      46.760   5.504  13.215  0.00  0.00    +0.000 A 
BRANCH   6   9
ATOM      9  O   UNL     1      44.352   4.840  10.549  0.00  0.00    +0.000 OA
BRANCH   9  10
ATOM     10  C   UNL     1      44.906   3.968   9.635  0.00  0.00    +0.000 A 
ATOM     11  C   UNL     1      44.755   2.577   9.678  0.00  0.00    +0.000 A 
ATOM     12  C   UNL     1      45.426   1.768   8.760  0.00  0.00    +0.000 A 
ATOM     13  C   UNL     1      46.187   2.348   7.748  0.00  0.00    +0.000 A 
ATOM     14  C   UNL     1      46.272   3.737   7.650  0.00  0.00    +0.000 A 
ATOM     15  C   UNL     1      45.633   4.546   8.594  0.00  0.00    +0.000 A 
ENDBRANCH   9  10
ENDBRANCH   6   9
ENDBRANCH   2   3
BRANCH   2  16
ATOM     16  N   UNL     1      48.069   7.270  15.220  0.00  0.00    +0.000 N 
ATOM     17  C   UNL     1      48.600   8.108  16.172  0.00  0.00    +0.000 C 
ATOM     18  O   UNL     1      49.179   9.150  15.871  0.00  0.00    +0.000 OA
ATOM     19  H   UNL     1      47.760   6.339  15.482  0.00  0.00    +0.000 HD
BRANCH  17  20
ATOM     20  C   UNL     1      48.385   7.746  17.577  0.00  0.00    +0.000 A 
ATOM     21  C   UNL     1      47.944   8.717  18.468  0.00  0.00    +0.000 A 
ATOM     22  S   UNL     1      47.732   8.145  20.058  0.00  0.00    +0.000 S 
ATOM     23  C   UNL     1      48.276   6.591  19.622  0.00  0.00    +0.000 A 
ATOM     24  N   UNL     1      48.388   5.607  20.556  0.00  0.00    +0.000 NA
ATOM     25  C   UNL     1      48.854   4.496  20.101  0.00  0.00    +0.000 A 
ATOM     26  N   UNL     1      49.204   4.271  18.793  0.00  0.00    +0.000 N 
ATOM     27  C   UNL     1      49.050   5.216  17.806  0.00  0.00    +0.000 A 
ATOM     28  O   UNL     1      49.284   4.955  16.634  0.00  0.00    +0.000 OA
ATOM     29  C   UNL     1      48.575   6.501  18.278  0.00  0.00    +0.000 A 
ATOM     30  H   UNL     1      49.543   3.366  18.499  0.00  0.00    +0.000 HD
ENDBRANCH  17  20
ENDBRANCH   2  16
TORSDOF 5
ENDMDL
MODEL 6
REMARK VINA RESULT:    -7.596      2.924      3.995
REMARK INTER + INTRA:         -10.256
REMARK INTER:                  -9.289
REMARK INTRA:                  -0.967
REMARK UNBOUND:                -0.441
REMARK  Name = 
REMARK  6 active torsions:
REMARK  status: ('A' for Active; 'I' for Inactive)
REMARK    1  A    between atoms: C_1  and  C_2
REMARK    2  A    between atoms: C_2  and  N_3
REMARK    3  A    between atoms: C_2  and  C_16
REMARK    4  A    between atoms: C_4  and  C_6
REMARK    5  A    between atoms: C_19  and  O_20
REMARK    6  A    between atoms: O_20  and  C_21
REMARK                            x       y       z     vdW  Elec       q    Type
REMARK                         _______ _______ _______ _____ _____    ______ ____
ROOT
ATOM      1  C   UNL     1      47.148   4.162  16.003  0.00  0.00    +0.000 C 
ATOM      2  C   UNL     1      47.578   5.017  14.809  0.00  0.00    +0.000 C 
ENDROOT
BRANCH   2   3
ATOM      3  C   UNL     1      46.696   4.844  13.585  0.00  0.00    +0.000 A 
ATOM      4  C   UNL     1      46.599   5.902  12.668  0.00  0.00    +0.000 A 
ATOM      5  C   UNL     1      45.873   5.757  11.484  0.00  0.00    +0.000 A 
ATOM      6  C   UNL     1      45.283   4.534  11.164  0.00  0.00    +0.000 A 
ATOM      7  C   UNL     1      45.289   3.510  12.108  0.00  0.00    +0.000 A 
ATOM      8  C   UNL     1      45.978   3.667  13.316  0.00  0.00    +0.000 A 
BRANCH   6   9
ATOM      9  O   UNL     1      44.654   4.273   9.966  0.00  0.00    +0.000 OA
BRANCH   9  10
ATOM     10  C   UNL     1      45.305   3.520   9.010  0.00  0.00    +0.000 A 
ATOM     11  C   UNL     1      45.301   2.122   8.968  0.00  0.00    +0.000 A 
ATOM     12  C   UNL     1      46.062   1.444   8.014  0.00  0.00    +0.000 A 
ATOM     13  C   UNL     1      46.767   2.161   7.051  0.00  0.00    +0.000 A 
ATOM     14  C   UNL     1      46.706   3.554   7.036  0.00  0.00    +0.000 A 
ATOM     15  C   UNL     1      45.977   4.233   8.017  0.00  0.00    +0.000 A 
ENDBRANCH   9  10
ENDBRANCH   6   9
ENDBRANCH   2   3
BRANCH   2  16
ATOM     16  N   UNL     1      47.686   6.417  15.169  0.00  0.00    +0.000 N 
ATOM     17  C   UNL     1      48.869   6.952  15.620  0.00  0.00    +0.000 C 
ATOM     18  O   UNL     1      49.882   6.269  15.753  0.00  0.00    +0.000 OA
ATOM     19  H   UNL     1      46.828   6.956  15.240  0.00  0.00    +0.000 HD
BRANCH  17  20
ATOM     20  C   UNL     1      48.899   8.397  15.867  0.00  0.00    +0.000 A 
ATOM     21  C   UNL     1      49.442   9.240  14.905  0.00  0.00    +0.000 A 
ATOM     22  S   UNL     1      49.398  10.889  15.331  0.00  0.00    +0.000 S 
ATOM     23  C   UNL     1      48.701  10.527  16.843  0.00  0.00    +0.000 A 
ATOM     24  N   UNL     1      48.445  11.516  17.743  0.00  0.00    +0.000 NA
ATOM     25  C   UNL     1      47.961  11.101  18.862  0.00  0.00    +0.000 A 
ATOM     26  N   UNL     1      47.692   9.788  19.160  0.00  0.00    +0.000 N 
ATOM     27  C   UNL     1      47.879   8.765  18.259  0.00  0.00    +0.000 A 
ATOM     28  O   UNL     1      47.544   7.618  18.522  0.00  0.00    +0.000 OA
ATOM     29  C   UNL     1      48.470   9.176  17.001  0.00  0.00    +0.000 A 
ATOM     30  H   UNL     1      47.292   9.533  20.051  0.00  0.00    +0.000 HD
ENDBRANCH  17  20
ENDBRANCH   2  16
TORSDOF 5
ENDMDL
MODEL 7
REMARK VINA RESULT:    -7.439      3.812      8.048
REMARK INTER + INTRA:         -10.054
REMARK INTER:                  -8.758
REMARK INTRA:                  -1.296
REMARK UNBOUND:                -0.441
REMARK  Name = 
REMARK  6 active torsions:
REMARK  status: ('A' for Active; 'I' for Inactive)
REMARK    1  A    between atoms: C_1  and  C_2
REMARK    2  A    between atoms: C_2  and  N_3
REMARK    3  A    between atoms: C_2  and  C_16
REMARK    4  A    between atoms: C_4  and  C_6
REMARK    5  A    between atoms: C_19  and  O_20
REMARK    6  A    between atoms: O_20  and  C_21
REMARK                            x       y       z     vdW  Elec       q    Type
REMARK                         _______ _______ _______ _____ _____    ______ ____
ROOT
ATOM      1  C   UNL     1      48.244   9.061  15.168  0.00  0.00    +0.000 C 
ATOM      2  C   UNL     1      48.396   7.665  14.562  0.00  0.00    +0.000 C 
ENDROOT
BRANCH   2   3
ATOM      3  C   UNL     1      48.999   6.647  15.516  0.00  0.00    +0.000 A 
ATOM      4  C   UNL     1      50.349   6.777  15.877  0.00  0.00    +0.000 A 
ATOM      5  C   UNL     1      50.922   5.921  16.819  0.00  0.00    +0.000 A 
ATOM      6  C   UNL     1      50.144   4.959  17.464  0.00  0.00    +0.000 A 
ATOM      7  C   UNL     1      48.831   4.756  17.044  0.00  0.00    +0.000 A 
ATOM      8  C   UNL     1      48.265   5.584  16.067  0.00  0.00    +0.000 A 
BRANCH   6   9
ATOM      9  O   UNL     1      50.601   4.157  18.487  0.00  0.00    +0.000 OA
BRANCH   9  10
ATOM     10  C   UNL     1      51.517   3.164  18.210  0.00  0.00    +0.000 A 
ATOM     11  C   UNL     1      51.217   1.979  17.529  0.00  0.00    +0.000 A 
ATOM     12  C   UNL     1      52.191   0.992  17.371  0.00  0.00    +0.000 A 
ATOM     13  C   UNL     1      53.488   1.217  17.824  0.00  0.00    +0.000 A 
ATOM     14  C   UNL     1      53.814   2.431  18.427  0.00  0.00    +0.000 A 
ATOM     15  C   UNL     1      52.829   3.403  18.622  0.00  0.00    +0.000 A 
ENDBRANCH   9  10
ENDBRANCH   6   9
ENDBRANCH   2   3
BRANCH   2  16
ATOM     16  N   UNL     1      47.142   7.179  14.021  0.00  0.00    +0.000 N 
ATOM     17  C   UNL     1      46.923   7.118  12.666  0.00  0.00    +0.000 C 
ATOM     18  O   UNL     1      47.769   7.485  11.853  0.00  0.00    +0.000 OA
ATOM     19  H   UNL     1      46.369   7.042  14.665  0.00  0.00    +0.000 HD
BRANCH  17  20
ATOM     20  C   UNL     1      45.659   6.525  12.218  0.00  0.00    +0.000 A 
ATOM     21  C   UNL     1      44.695   7.339  11.636  0.00  0.00    +0.000 A 
ATOM     22  S   UNL     1      43.287   6.505  11.161  0.00  0.00    +0.000 S 
ATOM     23  C   UNL     1      43.896   5.035  11.769  0.00  0.00    +0.000 A 
ATOM     24  N   UNL     1      43.144   3.901  11.723  0.00  0.00    +0.000 NA
ATOM     25  C   UNL     1      43.705   2.873  12.258  0.00  0.00    +0.000 A 
ATOM     26  N   UNL     1      44.957   2.868  12.820  0.00  0.00    +0.000 N 
ATOM     27  C   UNL     1      45.773   3.974  12.834  0.00  0.00    +0.000 A 
ATOM     28  O   UNL     1      46.919   3.914  13.260  0.00  0.00    +0.000 OA
ATOM     29  C   UNL     1      45.167   5.172  12.288  0.00  0.00    +0.000 A 
ATOM     30  H   UNL     1      45.346   2.018  13.204  0.00  0.00    +0.000 HD
ENDBRANCH  17  20
ENDBRANCH   2  16
TORSDOF 5
ENDMDL
MODEL 8
REMARK VINA RESULT:    -7.400      2.476      4.297
REMARK INTER + INTRA:         -10.003
REMARK INTER:                  -9.047
REMARK INTRA:                  -0.957
REMARK UNBOUND:                -0.441
REMARK  Name = 
REMARK  6 active torsions:
REMARK  status: ('A' for Active; 'I' for Inactive)
REMARK    1  A    between atoms: C_1  and  C_2
REMARK    2  A    between atoms: C_2  and  N_3
REMARK    3  A    between atoms: C_2  and  C_16
REMARK    4  A    between atoms: C_4  and  C_6
REMARK    5  A    between atoms: C_19  and  O_20
REMARK    6  A    between atoms: O_20  and  C_21
REMARK                            x       y       z     vdW  Elec       q    Type
REMARK                         _______ _______ _______ _____ _____    ______ ____
ROOT
ATOM      1  C   UNL     1      47.176   3.965  16.398  0.00  0.00    +0.000 C 
ATOM      2  C   UNL     1      47.653   4.748  15.173  0.00  0.00    +0.000 C 
ENDROOT
BRANCH   2   3
ATOM      3  C   UNL     1      46.728   4.629  13.974  0.00  0.00    +0.000 A 
ATOM      4  C   UNL     1      46.317   5.801  13.320  0.00  0.00    +0.000 A 
ATOM      5  C   UNL     1      45.541   5.738  12.161  0.00  0.00    +0.000 A 
ATOM      6  C   UNL     1      45.213   4.504  11.599  0.00  0.00    +0.000 A 
ATOM      7  C   UNL     1      45.530   3.337  12.290  0.00  0.00    +0.000 A 
ATOM      8  C   UNL     1      46.270   3.398  13.477  0.00  0.00    +0.000 A 
BRANCH   6   9
ATOM      9  O   UNL     1      44.554   4.355  10.397  0.00  0.00    +0.000 OA
BRANCH   9  10
ATOM     10  C   UNL     1      45.160   3.650   9.378  0.00  0.00    +0.000 A 
ATOM     11  C   UNL     1      45.190   2.253   9.291  0.00  0.00    +0.000 A 
ATOM     12  C   UNL     1      45.904   1.627   8.268  0.00  0.00    +0.000 A 
ATOM     13  C   UNL     1      46.524   2.392   7.285  0.00  0.00    +0.000 A 
ATOM     14  C   UNL     1      46.426   3.782   7.318  0.00  0.00    +0.000 A 
ATOM     15  C   UNL     1      45.746   4.411   8.365  0.00  0.00    +0.000 A 
ENDBRANCH   9  10
ENDBRANCH   6   9
ENDBRANCH   2   3
BRANCH   2  16
ATOM     16  N   UNL     1      47.899   6.140  15.493  0.00  0.00    +0.000 N 
ATOM     17  C   UNL     1      49.051   6.535  16.132  0.00  0.00    +0.000 C 
ATOM     18  O   UNL     1      49.914   5.729  16.474  0.00  0.00    +0.000 OA
ATOM     19  H   UNL     1      47.131   6.795  15.386  0.00  0.00    +0.000 HD
BRANCH  17  20
ATOM     20  C   UNL     1      49.247   7.975  16.327  0.00  0.00    +0.000 A 
ATOM     21  C   UNL     1      49.458   8.464  17.610  0.00  0.00    +0.000 A 
ATOM     22  S   UNL     1      49.678  10.153  17.675  0.00  0.00    +0.000 S 
ATOM     23  C   UNL     1      49.443  10.294  15.993  0.00  0.00    +0.000 A 
ATOM     24  N   UNL     1      49.455  11.516  15.392  0.00  0.00    +0.000 NA
ATOM     25  C   UNL     1      49.219  11.485  14.127  0.00  0.00    +0.000 A 
ATOM     26  N   UNL     1      48.989  10.342  13.401  0.00  0.00    +0.000 N 
ATOM     27  C   UNL     1      49.028   9.085  13.956  0.00  0.00    +0.000 A 
ATOM     28  O   UNL     1      48.910   8.081  13.267  0.00  0.00    +0.000 OA
ATOM     29  C   UNL     1      49.241   9.070  15.390  0.00  0.00    +0.000 A 
ATOM     30  H   UNL     1      48.832  10.388  12.404  0.00  0.00    +0.000 HD
ENDBRANCH  17  20
ENDBRANCH   2  16
TORSDOF 5
ENDMDL
MODEL 9
REMARK VINA RESULT:    -7.296      2.763      4.029
REMARK INTER + INTRA:          -9.869
REMARK INTER:                  -8.320
REMARK INTRA:                  -1.549
REMARK UNBOUND:                -0.441
REMARK  Name = 
REMARK  6 active torsions:
REMARK  status: ('A' for Active; 'I' for Inactive)
REMARK    1  A    between atoms: C_1  and  C_2
REMARK    2  A    between atoms: C_2  and  N_3
REMARK    3  A    between atoms: C_2  and  C_16
REMARK    4  A    between atoms: C_4  and  C_6
REMARK    5  A    between atoms: C_19  and  O_20
REMARK    6  A    between atoms: O_20  and  C_21
REMARK                            x       y       z     vdW  Elec       q    Type
REMARK                         _______ _______ _______ _____ _____    ______ ____
ROOT
ATOM      1  C   UNL     1      50.624   8.496  13.252  0.00  0.00    +0.000 C 
ATOM      2  C   UNL     1      49.315   8.497  14.043  0.00  0.00    +0.000 C 
ENDROOT
BRANCH   2   3
ATOM      3  C   UNL     1      48.097   8.139  13.209  0.00  0.00    +0.000 A 
ATOM      4  C   UNL     1      48.209   7.116  12.255  0.00  0.00    +0.000 A 
ATOM      5  C   UNL     1      47.095   6.691  11.528  0.00  0.00    +0.000 A 
ATOM      6  C   UNL     1      45.837   7.236  11.784  0.00  0.00    +0.000 A 
ATOM      7  C   UNL     1      45.730   8.318  12.655  0.00  0.00    +0.000 A 
ATOM      8  C   UNL     1      46.854   8.776  13.353  0.00  0.00    +0.000 A 
BRANCH   6   9
ATOM      9  O   UNL     1      44.671   6.791  11.198  0.00  0.00    +0.000 OA
BRANCH   9  10
ATOM     10  C   UNL     1      44.221   5.516  11.471  0.00  0.00    +0.000 A 
ATOM     11  C   UNL     1      43.765   5.090  12.723  0.00  0.00    +0.000 A 
ATOM     12  C   UNL     1      43.412   3.755  12.927  0.00  0.00    +0.000 A 
ATOM     13  C   UNL     1      43.440   2.859  11.861  0.00  0.00    +0.000 A 
ATOM     14  C   UNL     1      43.813   3.298  10.591  0.00  0.00    +0.000 A 
ATOM     15  C   UNL     1      44.205   4.625  10.397  0.00  0.00    +0.000 A 
ENDBRANCH   9  10
ENDBRANCH   6   9
ENDBRANCH   2   3
BRANCH   2  16
ATOM     16  N   UNL     1      49.400   7.648  15.215  0.00  0.00    +0.000 N 
ATOM     17  C   UNL     1      48.842   8.024  16.414  0.00  0.00    +0.000 C 
ATOM     18  O   UNL     1      48.262   9.099  16.552  0.00  0.00    +0.000 OA
ATOM     19  H   UNL     1      50.022   6.847  15.176  0.00  0.00    +0.000 HD
BRANCH  17  20
ATOM     20  C   UNL     1      48.901   7.054  17.513  0.00  0.00    +0.000 A 
ATOM     21  C   UNL     1      49.338   7.472  18.764  0.00  0.00    +0.000 A 
ATOM     22  S   UNL     1      49.342   6.237  19.937  0.00  0.00    +0.000 S 
ATOM     23  C   UNL     1      48.813   5.087  18.797  0.00  0.00    +0.000 A 
ATOM     24  N   UNL     1      48.657   3.781  19.149  0.00  0.00    +0.000 NA
ATOM     25  C   UNL     1      48.297   3.012  18.182  0.00  0.00    +0.000 A 
ATOM     26  N   UNL     1      48.061   3.429  16.895  0.00  0.00    +0.000 N 
ATOM     27  C   UNL     1      48.147   4.746  16.511  0.00  0.00    +0.000 A 
ATOM     28  O   UNL     1      47.841   5.100  15.380  0.00  0.00    +0.000 OA
ATOM     29  C   UNL     1      48.598   5.646  17.554  0.00  0.00    +0.000 A 
ATOM     30  H   UNL     1      47.759   2.774  16.188  0.00  0.00    +0.000 HD
ENDBRANCH  17  20
ENDBRANCH   2  16
TORSDOF 5
ENDMDL
