MODEL 1
REMARK VINA RESULT:    -8.293      0.000      0.000
REMARK INTER + INTRA:         -13.488
REMARK INTER:                 -12.172
REMARK INTRA:                  -1.317
REMARK UNBOUND:                -1.317
REMARK  Name = 
REMARK  9 active torsions:
REMARK  status: ('A' for Active; 'I' for Inactive)
REMARK    1  A    between atoms: C_1  and  O_2
REMARK    2  A    between atoms: O_2  and  C_3
REMARK    3  A    between atoms: C_10  and  C_11
REMARK    4  A    between atoms: N_13  and  C_14
REMARK    5  A    between atoms: C_14  and  C_15
REMARK    6  A    between atoms: C_18  and  C_19
REMARK    7  A    between atoms: C_19  and  O_20
REMARK    8  A    between atoms: O_20  and  C_21
REMARK    9  A    between atoms: C_21  and  C_22
REMARK                            x       y       z     vdW  Elec       q    Type
REMARK                         _______ _______ _______ _____ _____    ______ ____
ROOT
ATOM      1  C   UNL     1      47.892   7.091  13.114  0.00  0.00    +0.000 C 
ENDROOT
BRANCH   1   2
ATOM      2  C   UNL     1      46.776   6.212  12.610  0.00  0.00    +0.000 A 
ATOM      3  C   UNL     1      46.237   5.202  13.418  0.00  0.00    +0.000 A 
ATOM      4  C   UNL     1      45.213   4.374  12.939  0.00  0.00    +0.000 A 
ATOM      5  C   UNL     1      44.715   4.530  11.638  0.00  0.00    +0.000 A 
ATOM      6  C   UNL     1      45.264   5.530  10.826  0.00  0.00    +0.000 A 
ATOM      7  C   UNL     1      46.285   6.359  11.305  0.00  0.00    +0.000 A 
BRANCH   5   8
ATOM      8  C   UNL     1      43.622   3.626  11.120  0.00  0.00    +0.000 C 
BRANCH   8   9
ATOM      9  O   UNL     1      43.853   3.357   9.741  0.00  0.00    +0.000 OA
BRANCH   9  10
ATOM     10  C   UNL     1      44.553   2.128   9.545  0.00  0.00    +0.000 C 
BRANCH  10  11
ATOM     11  C   UNL     1      45.556   2.271   8.424  0.00  0.00    +0.000 A 
ATOM     12  C   UNL     1      45.728   3.492   7.756  0.00  0.00    +0.000 A 
ATOM     13  C   UNL     1      46.685   3.628   6.749  0.00  0.00    +0.000 A 
ATOM     14  C   UNL     1      47.491   2.546   6.404  0.00  0.00    +0.000 A 
ATOM     15  C   UNL     1      47.342   1.329   7.067  0.00  0.00    +0.000 A 
ATOM     16  C   UNL     1      46.383   1.193   8.075  0.00  0.00    +0.000 A 
ENDBRANCH  10  11
ENDBRANCH   9  10
ENDBRANCH   8   9
ENDBRANCH   5   8
ENDBRANCH   1   2
BRANCH   1  19
ATOM     17  C   UNL     1      49.016   7.082  15.311  0.00  0.00    +0.000 C 
ATOM     18  O   UNL     1      50.118   6.936  14.792  0.00  0.00    +0.000 OA
ATOM     19  N   UNL     1      47.879   7.168  14.554  0.00  0.00    +0.000 N 
ATOM     20  H   UNL     1      46.978   7.264  15.001  0.00  0.00    +0.000 HD
BRANCH  17  28
ATOM     21  C   UNL     1      48.823   4.733  17.824  0.00  0.00    +0.000 A 
ATOM     22  N   UNL     1      48.749   4.043  18.979  0.00  0.00    +0.000 NA
ATOM     23  C   UNL     1      48.622   4.734  20.115  0.00  0.00    +0.000 A 
ATOM     24  N   UNL     1      48.554   6.057  20.244  0.00  0.00    +0.000 NA
ATOM     25  C   UNL     1      48.642   6.705  19.071  0.00  0.00    +0.000 A 
ATOM     26  S   UNL     1      48.572   8.401  19.045  0.00  0.00    +0.000 S 
ATOM     27  C   UNL     1      48.744   8.432  17.354  0.00  0.00    +0.000 A 
ATOM     28  C   UNL     1      48.859   7.172  16.775  0.00  0.00    +0.000 A 
ATOM     29  C   UNL     1      48.789   6.139  17.808  0.00  0.00    +0.000 A 
BRANCH  21  31
ATOM     30  C   UNL     1      47.828   3.249  16.313  0.00  0.00    +0.000 C 
ATOM     31  O   UNL     1      48.977   4.020  16.654  0.00  0.00    +0.000 OA
ENDBRANCH  21  31
ENDBRANCH  17  28
ENDBRANCH   1  19
TORSDOF 8
ENDMDL
MODEL 2
REMARK VINA RESULT:    -7.614      1.615      2.203
REMARK INTER + INTRA:         -12.492
REMARK INTER:                 -11.179
REMARK INTRA:                  -1.313
REMARK UNBOUND:                -1.317
REMARK  Name = 
REMARK  9 active torsions:
REMARK  status: ('A' for Active; 'I' for Inactive)
REMARK    1  A    between atoms: C_1  and  O_2
REMARK    2  A    between atoms: O_2  and  C_3
REMARK    3  A    between atoms: C_10  and  C_11
REMARK    4  A    between atoms: N_13  and  C_14
REMARK    5  A    between atoms: C_14  and  C_15
REMARK    6  A    between atoms: C_18  and  C_19
REMARK    7  A    between atoms: C_19  and  O_20
REMARK    8  A    between atoms: O_20  and  C_21
REMARK    9  A    between atoms: C_21  and  C_22
REMARK                            x       y       z     vdW  Elec       q    Type
REMARK                         _______ _______ _______ _____ _____    ______ ____
ROOT
ATOM      1  C   UNL     1      47.974   7.713  12.639  0.00  0.00    +0.000 C 
ENDROOT
BRANCH   1   2
ATOM      2  C   UNL     1      46.961   6.654  12.282  0.00  0.00    +0.000 A 
ATOM      3  C   UNL     1      46.380   6.617  11.008  0.00  0.00    +0.000 A 
ATOM      4  C   UNL     1      45.425   5.645  10.686  0.00  0.00    +0.000 A 
ATOM      5  C   UNL     1      45.019   4.697  11.636  0.00  0.00    +0.000 A 
ATOM      6  C   UNL     1      45.589   4.744  12.914  0.00  0.00    +0.000 A 
ATOM      7  C   UNL     1      46.546   5.713  13.235  0.00  0.00    +0.000 A 
BRANCH   5   8
ATOM      8  C   UNL     1      43.977   3.659  11.291  0.00  0.00    +0.000 C 
BRANCH   8   9
ATOM      9  O   UNL     1      44.066   3.351   9.904  0.00  0.00    +0.000 OA
BRANCH   9  10
ATOM     10  C   UNL     1      44.774   2.134   9.670  0.00  0.00    +0.000 C 
BRANCH  10  11
ATOM     11  C   UNL     1      45.677   2.277   8.467  0.00  0.00    +0.000 A 
ATOM     12  C   UNL     1      46.430   1.193   7.992  0.00  0.00    +0.000 A 
ATOM     13  C   UNL     1      47.230   1.323   6.855  0.00  0.00    +0.000 A 
ATOM     14  C   UNL     1      47.280   2.535   6.171  0.00  0.00    +0.000 A 
ATOM     15  C   UNL     1      46.527   3.618   6.623  0.00  0.00    +0.000 A 
ATOM     16  C   UNL     1      45.726   3.489   7.761  0.00  0.00    +0.000 A 
ENDBRANCH  10  11
ENDBRANCH   9  10
ENDBRANCH   8   9
ENDBRANCH   5   8
ENDBRANCH   1   2
BRANCH   1  19
ATOM     17  C   UNL     1      49.118   7.605  14.822  0.00  0.00    +0.000 C 
ATOM     18  O   UNL     1      48.380   8.464  15.297  0.00  0.00    +0.000 OA
ATOM     19  N   UNL     1      48.980   7.185  13.527  0.00  0.00    +0.000 N 
ATOM     20  H   UNL     1      49.613   6.495  13.149  0.00  0.00    +0.000 HD
BRANCH  17  28
ATOM     21  C   UNL     1      49.169   5.099  17.186  0.00  0.00    +0.000 A 
ATOM     22  N   UNL     1      49.474   4.155  18.098  0.00  0.00    +0.000 NA
ATOM     23  C   UNL     1      50.752   4.023  18.462  0.00  0.00    +0.000 A 
ATOM     24  N   UNL     1      51.787   4.735  18.022  0.00  0.00    +0.000 NA
ATOM     25  C   UNL     1      51.441   5.657  17.108  0.00  0.00    +0.000 A 
ATOM     26  S   UNL     1      52.636   6.659  16.437  0.00  0.00    +0.000 S 
ATOM     27  C   UNL     1      51.491   7.456  15.465  0.00  0.00    +0.000 A 
ATOM     28  C   UNL     1      50.192   6.986  15.622  0.00  0.00    +0.000 A 
ATOM     29  C   UNL     1      50.165   5.912  16.615  0.00  0.00    +0.000 A 
BRANCH  21  31
ATOM     30  C   UNL     1      47.167   3.971  16.744  0.00  0.00    +0.000 C 
ATOM     31  O   UNL     1      47.853   5.220  16.795  0.00  0.00    +0.000 OA
ENDBRANCH  21  31
ENDBRANCH  17  28
ENDBRANCH   1  19
TORSDOF 8
ENDMDL
MODEL 3
REMARK VINA RESULT:    -7.535      2.031      3.661
REMARK INTER + INTRA:         -12.375
REMARK INTER:                 -10.952
REMARK INTRA:                  -1.423
REMARK UNBOUND:                -1.317
REMARK  Name = 
REMARK  9 active torsions:
REMARK  status: ('A' for Active; 'I' for Inactive)
REMARK    1  A    between atoms: C_1  and  O_2
REMARK    2  A    between atoms: O_2  and  C_3
REMARK    3  A    between atoms: C_10  and  C_11
REMARK    4  A    between atoms: N_13  and  C_14
REMARK    5  A    between atoms: C_14  and  C_15
REMARK    6  A    between atoms: C_18  and  C_19
REMARK    7  A    between atoms: C_19  and  O_20
REMARK    8  A    between atoms: O_20  and  C_21
REMARK    9  A    between atoms: C_21  and  C_22
REMARK                            x       y       z     vdW  Elec       q    Type
REMARK                         _______ _______ _______ _____ _____    ______ ____
ROOT
ATOM      1  C   UNL     1      47.259   4.688  14.867  0.00  0.00    +0.000 C 
ENDROOT
BRANCH   1   2
ATOM      2  C   UNL     1      46.283   4.640  13.719  0.00  0.00    +0.000 A 
ATOM      3  C   UNL     1      46.038   3.442  13.035  0.00  0.00    +0.000 A 
ATOM      4  C   UNL     1      45.146   3.405  11.956  0.00  0.00    +0.000 A 
ATOM      5  C   UNL     1      44.489   4.568  11.528  0.00  0.00    +0.000 A 
ATOM      6  C   UNL     1      44.746   5.768  12.203  0.00  0.00    +0.000 A 
ATOM      7  C   UNL     1      45.635   5.804  13.284  0.00  0.00    +0.000 A 
BRANCH   5   8
ATOM      8  C   UNL     1      43.539   4.528  10.355  0.00  0.00    +0.000 C 
BRANCH   8   9
ATOM      9  O   UNL     1      44.042   3.623   9.378  0.00  0.00    +0.000 OA
BRANCH   9  10
ATOM     10  C   UNL     1      45.018   4.234   8.534  0.00  0.00    +0.000 C 
BRANCH  10  11
ATOM     11  C   UNL     1      45.838   3.176   7.832  0.00  0.00    +0.000 A 
ATOM     12  C   UNL     1      46.546   3.469   6.657  0.00  0.00    +0.000 A 
ATOM     13  C   UNL     1      47.333   2.497   6.037  0.00  0.00    +0.000 A 
ATOM     14  C   UNL     1      47.434   1.223   6.590  0.00  0.00    +0.000 A 
ATOM     15  C   UNL     1      46.747   0.921   7.765  0.00  0.00    +0.000 A 
ATOM     16  C   UNL     1      45.957   1.893   8.386  0.00  0.00    +0.000 A 
ENDBRANCH  10  11
ENDBRANCH   9  10
ENDBRANCH   8   9
ENDBRANCH   5   8
ENDBRANCH   1   2
BRANCH   1  19
ATOM     17  C   UNL     1      48.779   6.352  15.873  0.00  0.00    +0.000 C 
ATOM     18  O   UNL     1      49.508   5.474  16.323  0.00  0.00    +0.000 OA
ATOM     19  N   UNL     1      47.659   6.045  15.148  0.00  0.00    +0.000 N 
ATOM     20  H   UNL     1      47.059   6.782  14.806  0.00  0.00    +0.000 HD
BRANCH  17  28
ATOM     21  C   UNL     1      48.678   9.129  13.836  0.00  0.00    +0.000 A 
ATOM     22  N   UNL     1      48.699  10.357  13.281  0.00  0.00    +0.000 NA
ATOM     23  C   UNL     1      49.061  11.387  14.050  0.00  0.00    +0.000 A 
ATOM     24  N   UNL     1      49.417  11.343  15.332  0.00  0.00    +0.000 NA
ATOM     25  C   UNL     1      49.371  10.103  15.848  0.00  0.00    +0.000 A 
ATOM     26  S   UNL     1      49.794   9.857  17.474  0.00  0.00    +0.000 S 
ATOM     27  C   UNL     1      49.495   8.188  17.350  0.00  0.00    +0.000 A 
ATOM     28  C   UNL     1      49.070   7.782  16.090  0.00  0.00    +0.000 A 
ATOM     29  C   UNL     1      49.005   8.933  15.189  0.00  0.00    +0.000 A 
BRANCH  21  31
ATOM     30  C   UNL     1      49.346   7.516  12.277  0.00  0.00    +0.000 C 
ATOM     31  O   UNL     1      48.282   8.070  13.047  0.00  0.00    +0.000 OA
ENDBRANCH  21  31
ENDBRANCH  17  28
ENDBRANCH   1  19
TORSDOF 8
ENDMDL
MODEL 4
REMARK VINA RESULT:    -7.494      1.472      2.335
REMARK INTER + INTRA:         -12.315
REMARK INTER:                 -11.014
REMARK INTRA:                  -1.301
REMARK UNBOUND:                -1.317
REMARK  Name = 
REMARK  9 active torsions:
REMARK  status: ('A' for Active; 'I' for Inactive)
REMARK    1  A    between atoms: C_1  and  O_2
REMARK    2  A    between atoms: O_2  and  C_3
REMARK    3  A    between atoms: C_10  and  C_11
REMARK    4  A    between atoms: N_13  and  C_14
REMARK    5  A    between atoms: C_14  and  C_15
REMARK    6  A    between atoms: C_18  and  C_19
REMARK    7  A    between atoms: C_19  and  O_20
REMARK    8  A    between atoms: O_20  and  C_21
REMARK    9  A    between atoms: C_21  and  C_22
REMARK                            x       y       z     vdW  Elec       q    Type
REMARK                         _______ _______ _______ _____ _____    ______ ____
ROOT
ATOM      1  C   UNL     1      47.550   4.284  15.066  0.00  0.00    +0.000 C 
ENDROOT
BRANCH   1   2
ATOM      2  C   UNL     1      46.584   4.402  13.913  0.00  0.00    +0.000 A 
ATOM      3  C   UNL     1      46.045   5.644  13.553  0.00  0.00    +0.000 A 
ATOM      4  C   UNL     1      45.134   5.747  12.494  0.00  0.00    +0.000 A 
ATOM      5  C   UNL     1      44.730   4.609  11.782  0.00  0.00    +0.000 A 
ATOM      6  C   UNL     1      45.258   3.366  12.153  0.00  0.00    +0.000 A 
ATOM      7  C   UNL     1      46.171   3.263  13.208  0.00  0.00    +0.000 A 
BRANCH   5   8
ATOM      8  C   UNL     1      43.736   4.721  10.651  0.00  0.00    +0.000 C 
BRANCH   8   9
ATOM      9  O   UNL     1      44.063   3.769   9.645  0.00  0.00    +0.000 OA
BRANCH   9  10
ATOM     10  C   UNL     1      44.887   4.330   8.623  0.00  0.00    +0.000 C 
BRANCH  10  11
ATOM     11  C   UNL     1      45.759   3.261   8.008  0.00  0.00    +0.000 A 
ATOM     12  C   UNL     1      45.763   1.951   8.510  0.00  0.00    +0.000 A 
ATOM     13  C   UNL     1      46.540   0.958   7.911  0.00  0.00    +0.000 A 
ATOM     14  C   UNL     1      47.316   1.259   6.795  0.00  0.00    +0.000 A 
ATOM     15  C   UNL     1      47.313   2.553   6.276  0.00  0.00    +0.000 A 
ATOM     16  C   UNL     1      46.536   3.548   6.875  0.00  0.00    +0.000 A 
ENDBRANCH  10  11
ENDBRANCH   9  10
ENDBRANCH   8   9
ENDBRANCH   5   8
ENDBRANCH   1   2
BRANCH   1  19
ATOM     17  C   UNL     1      48.612   6.224  16.157  0.00  0.00    +0.000 C 
ATOM     18  O   UNL     1      49.710   5.939  15.688  0.00  0.00    +0.000 OA
ATOM     19  N   UNL     1      47.507   5.461  15.897  0.00  0.00    +0.000 N 
ATOM     20  H   UNL     1      46.618   5.699  16.313  0.00  0.00    +0.000 HD
BRANCH  17  28
ATOM     21  C   UNL     1      47.725   6.614  19.464  0.00  0.00    +0.000 A 
ATOM     22  N   UNL     1      47.432   7.044  20.707  0.00  0.00    +0.000 NA
ATOM     23  C   UNL     1      47.445   8.359  20.935  0.00  0.00    +0.000 A 
ATOM     24  N   UNL     1      47.716   9.322  20.057  0.00  0.00    +0.000 NA
ATOM     25  C   UNL     1      48.013   8.850  18.834  0.00  0.00    +0.000 A 
ATOM     26  S   UNL     1      48.385   9.937  17.585  0.00  0.00    +0.000 S 
ATOM     27  C   UNL     1      48.622   8.666  16.482  0.00  0.00    +0.000 A 
ATOM     28  C   UNL     1      48.430   7.401  17.028  0.00  0.00    +0.000 A 
ATOM     29  C   UNL     1      48.057   7.517  18.437  0.00  0.00    +0.000 A 
BRANCH  21  31
ATOM     30  C   UNL     1      48.945   4.625  19.643  0.00  0.00    +0.000 C 
ATOM     31  O   UNL     1      47.733   5.255  19.235  0.00  0.00    +0.000 OA
ENDBRANCH  21  31
ENDBRANCH  17  28
ENDBRANCH   1  19
TORSDOF 8
ENDMDL
MODEL 5
REMARK VINA RESULT:    -7.417      1.591      3.069
REMARK INTER + INTRA:         -12.202
REMARK INTER:                 -10.852
REMARK INTRA:                  -1.350
REMARK UNBOUND:                -1.317
REMARK  Name = 
REMARK  9 active torsions:
REMARK  status: ('A' for Active; 'I' for Inactive)
REMARK    1  A    between atoms: C_1  and  O_2
REMARK    2  A    between atoms: O_2  and  C_3
REMARK    3  A    between atoms: C_10  and  C_11
REMARK    4  A    between atoms: N_13  and  C_14
REMARK    5  A    between atoms: C_14  and  C_15
REMARK    6  A    between atoms: C_18  and  C_19
REMARK    7  A    between atoms: C_19  and  O_20
REMARK    8  A    between atoms: O_20  and  C_21
REMARK    9  A    between atoms: C_21  and  C_22
REMARK                            x       y       z     vdW  Elec       q    Type
REMARK                         _______ _______ _______ _____ _____    ______ ____
ROOT
ATOM      1  C   UNL     1      47.357   3.964  14.790  0.00  0.00    +0.000 C 
ENDROOT
BRANCH   1   2
ATOM      2  C   UNL     1      46.398   4.219  13.654  0.00  0.00    +0.000 A 
ATOM      3  C   UNL     1      45.800   3.154  12.967  0.00  0.00    +0.000 A 
ATOM      4  C   UNL     1      44.925   3.394  11.899  0.00  0.00    +0.000 A 
ATOM      5  C   UNL     1      44.641   4.703  11.486  0.00  0.00    +0.000 A 
ATOM      6  C   UNL     1      45.252   5.766  12.163  0.00  0.00    +0.000 A 
ATOM      7  C   UNL     1      46.123   5.527  13.232  0.00  0.00    +0.000 A 
BRANCH   5   8
ATOM      8  C   UNL     1      43.710   4.958  10.325  0.00  0.00    +0.000 C 
BRANCH   8   9
ATOM      9  O   UNL     1      44.092   4.132   9.230  0.00  0.00    +0.000 OA
BRANCH   9  10
ATOM     10  C   UNL     1      45.356   4.513   8.687  0.00  0.00    +0.000 C 
BRANCH  10  11
ATOM     11  C   UNL     1      45.991   3.344   7.970  0.00  0.00    +0.000 A 
ATOM     12  C   UNL     1      46.745   3.532   6.802  0.00  0.00    +0.000 A 
ATOM     13  C   UNL     1      47.361   2.452   6.168  0.00  0.00    +0.000 A 
ATOM     14  C   UNL     1      47.242   1.170   6.700  0.00  0.00    +0.000 A 
ATOM     15  C   UNL     1      46.507   0.969   7.867  0.00  0.00    +0.000 A 
ATOM     16  C   UNL     1      45.888   2.049   8.502  0.00  0.00    +0.000 A 
ENDBRANCH  10  11
ENDBRANCH   9  10
ENDBRANCH   8   9
ENDBRANCH   5   8
ENDBRANCH   1   2
BRANCH   1  19
ATOM     17  C   UNL     1      48.518   5.273  16.529  0.00  0.00    +0.000 C 
ATOM     18  O   UNL     1      49.335   4.377  16.715  0.00  0.00    +0.000 OA
ATOM     19  N   UNL     1      47.519   5.144  15.602  0.00  0.00    +0.000 N 
ATOM     20  H   UNL     1      46.842   5.883  15.481  0.00  0.00    +0.000 HD
BRANCH  17  28
ATOM     21  C   UNL     1      48.758   8.590  15.629  0.00  0.00    +0.000 A 
ATOM     22  N   UNL     1      48.818   9.934  15.557  0.00  0.00    +0.000 NA
ATOM     23  C   UNL     1      48.804  10.624  16.700  0.00  0.00    +0.000 A 
ATOM     24  N   UNL     1      48.742  10.128  17.934  0.00  0.00    +0.000 NA
ATOM     25  C   UNL     1      48.673   8.787  17.959  0.00  0.00    +0.000 A 
ATOM     26  S   UNL     1      48.587   7.981  19.451  0.00  0.00    +0.000 S 
ATOM     27  C   UNL     1      48.527   6.465  18.685  0.00  0.00    +0.000 A 
ATOM     28  C   UNL     1      48.567   6.532  17.296  0.00  0.00    +0.000 A 
ATOM     29  C   UNL     1      48.663   7.927  16.866  0.00  0.00    +0.000 A 
BRANCH  21  31
ATOM     30  C   UNL     1      48.397   8.674  13.318  0.00  0.00    +0.000 C 
ATOM     31  O   UNL     1      48.748   7.879  14.447  0.00  0.00    +0.000 OA
ENDBRANCH  21  31
ENDBRANCH  17  28
ENDBRANCH   1  19
TORSDOF 8
ENDMDL
MODEL 6
REMARK VINA RESULT:    -6.824      2.317      3.236
REMARK INTER + INTRA:         -11.331
REMARK INTER:                 -10.286
REMARK INTRA:                  -1.045
REMARK UNBOUND:                -1.317
REMARK  Name = 
REMARK  9 active torsions:
REMARK  status: ('A' for Active; 'I' for Inactive)
REMARK    1  A    between atoms: C_1  and  O_2
REMARK    2  A    between atoms: O_2  and  C_3
REMARK    3  A    between atoms: C_10  and  C_11
REMARK    4  A    between atoms: N_13  and  C_14
REMARK    5  A    between atoms: C_14  and  C_15
REMARK    6  A    between atoms: C_18  and  C_19
REMARK    7  A    between atoms: C_19  and  O_20
REMARK    8  A    between atoms: O_20  and  C_21
REMARK    9  A    between atoms: C_21  and  C_22
REMARK                            x       y       z     vdW  Elec       q    Type
REMARK                         _______ _______ _______ _____ _____    ______ ____
ROOT
ATOM      1  C   UNL     1      48.948   8.259  15.777  0.00  0.00    +0.000 C 
ENDROOT
BRANCH   1   2
ATOM      2  C   UNL     1      48.130   7.841  14.581  0.00  0.00    +0.000 A 
ATOM      3  C   UNL     1      47.087   8.649  14.107  0.00  0.00    +0.000 A 
ATOM      4  C   UNL     1      46.316   8.249  13.008  0.00  0.00    +0.000 A 
ATOM      5  C   UNL     1      46.563   7.026  12.367  0.00  0.00    +0.000 A 
ATOM      6  C   UNL     1      47.595   6.213  12.850  0.00  0.00    +0.000 A 
ATOM      7  C   UNL     1      48.367   6.614  13.947  0.00  0.00    +0.000 A 
BRANCH   5   8
ATOM      8  C   UNL     1      45.721   6.590  11.192  0.00  0.00    +0.000 C 
BRANCH   8   9
ATOM      9  O   UNL     1      45.488   5.188  11.278  0.00  0.00    +0.000 OA
BRANCH   9  10
ATOM     10  C   UNL     1      44.534   4.743  10.314  0.00  0.00    +0.000 C 
BRANCH  10  11
ATOM     11  C   UNL     1      45.203   3.857   9.289  0.00  0.00    +0.000 A 
ATOM     12  C   UNL     1      45.934   4.403   8.224  0.00  0.00    +0.000 A 
ATOM     13  C   UNL     1      46.583   3.577   7.304  0.00  0.00    +0.000 A 
ATOM     14  C   UNL     1      46.518   2.193   7.443  0.00  0.00    +0.000 A 
ATOM     15  C   UNL     1      45.806   1.635   8.503  0.00  0.00    +0.000 A 
ATOM     16  C   UNL     1      45.156   2.461   9.424  0.00  0.00    +0.000 A 
ENDBRANCH  10  11
ENDBRANCH   9  10
ENDBRANCH   8   9
ENDBRANCH   5   8
ENDBRANCH   1   2
BRANCH   1  19
ATOM     17  C   UNL     1      49.740   6.587  17.409  0.00  0.00    +0.000 C 
ATOM     18  O   UNL     1      48.880   6.912  18.221  0.00  0.00    +0.000 OA
ATOM     19  N   UNL     1      49.836   7.201  16.189  0.00  0.00    +0.000 N 
ATOM     20  H   UNL     1      50.566   6.935  15.544  0.00  0.00    +0.000 HD
BRANCH  17  28
ATOM     21  C   UNL     1      49.758   3.179  16.899  0.00  0.00    +0.000 A 
ATOM     22  N   UNL     1      50.033   1.864  16.799  0.00  0.00    +0.000 NA
ATOM     23  C   UNL     1      51.205   1.431  17.269  0.00  0.00    +0.000 A 
ATOM     24  N   UNL     1      52.157   2.163  17.844  0.00  0.00    +0.000 NA
ATOM     25  C   UNL     1      51.846   3.468  17.913  0.00  0.00    +0.000 A 
ATOM     26  S   UNL     1      52.946   4.553  18.618  0.00  0.00    +0.000 S 
ATOM     27  C   UNL     1      51.906   5.868  18.335  0.00  0.00    +0.000 A 
ATOM     28  C   UNL     1      50.715   5.521  17.705  0.00  0.00    +0.000 A 
ATOM     29  C   UNL     1      50.681   4.079  17.461  0.00  0.00    +0.000 A 
BRANCH  21  31
ATOM     30  C   UNL     1      47.440   3.286  17.209  0.00  0.00    +0.000 C 
ATOM     31  O   UNL     1      48.557   3.629  16.392  0.00  0.00    +0.000 OA
ENDBRANCH  21  31
ENDBRANCH  17  28
ENDBRANCH   1  19
TORSDOF 8
ENDMDL
MODEL 7
REMARK VINA RESULT:    -6.727      4.765      9.330
REMARK INTER + INTRA:         -11.190
REMARK INTER:                 -10.163
REMARK INTRA:                  -1.027
REMARK UNBOUND:                -1.317
REMARK  Name = 
REMARK  9 active torsions:
REMARK  status: ('A' for Active; 'I' for Inactive)
REMARK    1  A    between atoms: C_1  and  O_2
REMARK    2  A    between atoms: O_2  and  C_3
REMARK    3  A    between atoms: C_10  and  C_11
REMARK    4  A    between atoms: N_13  and  C_14
REMARK    5  A    between atoms: C_14  and  C_15
REMARK    6  A    between atoms: C_18  and  C_19
REMARK    7  A    between atoms: C_19  and  O_20
REMARK    8  A    between atoms: O_20  and  C_21
REMARK    9  A    between atoms: C_21  and  C_22
REMARK                            x       y       z     vdW  Elec       q    Type
REMARK                         _______ _______ _______ _____ _____    ______ ____
ROOT
ATOM      1  C   UNL     1      47.242   3.400  16.893  0.00  0.00    +0.000 C 
ENDROOT
BRANCH   1   2
ATOM      2  C   UNL     1      48.714   3.320  17.211  0.00  0.00    +0.000 A 
ATOM      3  C   UNL     1      49.403   4.434  17.708  0.00  0.00    +0.000 A 
ATOM      4  C   UNL     1      50.774   4.362  17.983  0.00  0.00    +0.000 A 
ATOM      5  C   UNL     1      51.490   3.178  17.756  0.00  0.00    +0.000 A 
ATOM      6  C   UNL     1      50.803   2.069  17.245  0.00  0.00    +0.000 A 
ATOM      7  C   UNL     1      49.432   2.140  16.973  0.00  0.00    +0.000 A 
BRANCH   5   8
ATOM      8  C   UNL     1      52.971   3.107  18.039  0.00  0.00    +0.000 C 
BRANCH   8   9
ATOM      9  O   UNL     1      53.235   1.979  18.867  0.00  0.00    +0.000 OA
BRANCH   9  10
ATOM     10  C   UNL     1      54.611   1.600  18.832  0.00  0.00    +0.000 C 
BRANCH  10  11
ATOM     11  C   UNL     1      54.767   0.265  18.142  0.00  0.00    +0.000 A 
ATOM     12  C   UNL     1      54.653  -0.938  18.855  0.00  0.00    +0.000 A 
ATOM     13  C   UNL     1      54.758  -2.168  18.203  0.00  0.00    +0.000 A 
ATOM     14  C   UNL     1      54.969  -2.212  16.827  0.00  0.00    +0.000 A 
ATOM     15  C   UNL     1      55.072  -1.025  16.103  0.00  0.00    +0.000 A 
ATOM     16  C   UNL     1      54.967   0.206  16.755  0.00  0.00    +0.000 A 
ENDBRANCH  10  11
ENDBRANCH   9  10
ENDBRANCH   8   9
ENDBRANCH   5   8
ENDBRANCH   1   2
BRANCH   1  19
ATOM     17  C   UNL     1      46.980   4.203  14.575  0.00  0.00    +0.000 C 
ATOM     18  O   UNL     1      47.207   3.087  14.120  0.00  0.00    +0.000 OA
ATOM     19  N   UNL     1      46.979   4.435  15.924  0.00  0.00    +0.000 N 
ATOM     20  H   UNL     1      46.814   5.366  16.278  0.00  0.00    +0.000 HD
BRANCH  17  28
ATOM     21  C   UNL     1      44.242   5.150  12.710  0.00  0.00    +0.000 A 
ATOM     22  N   UNL     1      43.326   5.756  11.930  0.00  0.00    +0.000 NA
ATOM     23  C   UNL     1      43.664   6.907  11.344  0.00  0.00    +0.000 A 
ATOM     24  N   UNL     1      44.830   7.542  11.439  0.00  0.00    +0.000 NA
ATOM     25  C   UNL     1      45.709   6.909  12.234  0.00  0.00    +0.000 A 
ATOM     26  S   UNL     1      47.253   7.576  12.471  0.00  0.00    +0.000 S 
ATOM     27  C   UNL     1      47.699   6.302  13.504  0.00  0.00    +0.000 A 
ATOM     28  C   UNL     1      46.700   5.352  13.694  0.00  0.00    +0.000 A 
ATOM     29  C   UNL     1      45.511   5.717  12.924  0.00  0.00    +0.000 A 
BRANCH  21  31
ATOM     30  C   UNL     1      43.671   2.899  12.420  0.00  0.00    +0.000 C 
ATOM     31  O   UNL     1      43.884   3.972  13.332  0.00  0.00    +0.000 OA
ENDBRANCH  21  31
ENDBRANCH  17  28
ENDBRANCH   1  19
TORSDOF 8
ENDMDL
MODEL 8
REMARK VINA RESULT:    -6.572      3.756      8.867
REMARK INTER + INTRA:         -10.962
REMARK INTER:                  -9.497
REMARK INTRA:                  -1.465
REMARK UNBOUND:                -1.317
REMARK  Name = 
REMARK  9 active torsions:
REMARK  status: ('A' for Active; 'I' for Inactive)
REMARK    1  A    between atoms: C_1  and  O_2
REMARK    2  A    between atoms: O_2  and  C_3
REMARK    3  A    between atoms: C_10  and  C_11
REMARK    4  A    between atoms: N_13  and  C_14
REMARK    5  A    between atoms: C_14  and  C_15
REMARK    6  A    between atoms: C_18  and  C_19
REMARK    7  A    between atoms: C_19  and  O_20
REMARK    8  A    between atoms: O_20  and  C_21
REMARK    9  A    between atoms: C_21  and  C_22
REMARK                            x       y       z     vdW  Elec       q    Type
REMARK                         _______ _______ _______ _____ _____    ______ ____
ROOT
ATOM      1  C   UNL     1      47.165   3.332  16.822  0.00  0.00    +0.000 C 
ENDROOT
BRANCH   1   2
ATOM      2  C   UNL     1      48.634   3.290  17.160  0.00  0.00    +0.000 A 
ATOM      3  C   UNL     1      49.262   4.386  17.766  0.00  0.00    +0.000 A 
ATOM      4  C   UNL     1      50.631   4.352  18.060  0.00  0.00    +0.000 A 
ATOM      5  C   UNL     1      51.405   3.227  17.744  0.00  0.00    +0.000 A 
ATOM      6  C   UNL     1      50.779   2.137  17.125  0.00  0.00    +0.000 A 
ATOM      7  C   UNL     1      49.410   2.170  16.833  0.00  0.00    +0.000 A 
BRANCH   5   8
ATOM      8  C   UNL     1      52.883   3.198  18.049  0.00  0.00    +0.000 C 
BRANCH   8   9
ATOM      9  O   UNL     1      53.247   4.406  18.710  0.00  0.00    +0.000 OA
BRANCH   9  10
ATOM     10  C   UNL     1      54.391   5.019  18.114  0.00  0.00    +0.000 C 
BRANCH  10  11
ATOM     11  C   UNL     1      53.963   5.976  17.026  0.00  0.00    +0.000 A 
ATOM     12  C   UNL     1      52.936   6.907  17.241  0.00  0.00    +0.000 A 
ATOM     13  C   UNL     1      52.575   7.815  16.244  0.00  0.00    +0.000 A 
ATOM     14  C   UNL     1      53.243   7.811  15.022  0.00  0.00    +0.000 A 
ATOM     15  C   UNL     1      54.275   6.901  14.798  0.00  0.00    +0.000 A 
ATOM     16  C   UNL     1      54.637   5.991  15.795  0.00  0.00    +0.000 A 
ENDBRANCH  10  11
ENDBRANCH   9  10
ENDBRANCH   8   9
ENDBRANCH   5   8
ENDBRANCH   1   2
BRANCH   1  19
ATOM     17  C   UNL     1      46.934   4.178  14.515  0.00  0.00    +0.000 C 
ATOM     18  O   UNL     1      47.223   3.083  14.042  0.00  0.00    +0.000 OA
ATOM     19  N   UNL     1      46.885   4.377  15.869  0.00  0.00    +0.000 N 
ATOM     20  H   UNL     1      46.668   5.291  16.238  0.00  0.00    +0.000 HD
BRANCH  17  28
ATOM     21  C   UNL     1      44.171   5.099  12.676  0.00  0.00    +0.000 A 
ATOM     22  N   UNL     1      43.240   5.699  11.908  0.00  0.00    +0.000 NA
ATOM     23  C   UNL     1      43.553   6.865  11.339  0.00  0.00    +0.000 A 
ATOM     24  N   UNL     1      44.708   7.521  11.438  0.00  0.00    +0.000 NA
ATOM     25  C   UNL     1      45.602   6.893  12.220  0.00  0.00    +0.000 A 
ATOM     26  S   UNL     1      47.134   7.586  12.460  0.00  0.00    +0.000 S 
ATOM     27  C   UNL     1      47.609   6.305  13.472  0.00  0.00    +0.000 A 
ATOM     28  C   UNL     1      46.629   5.334  13.652  0.00  0.00    +0.000 A 
ATOM     29  C   UNL     1      45.430   5.688  12.893  0.00  0.00    +0.000 A 
BRANCH  21  31
ATOM     30  C   UNL     1      43.641   2.842  12.355  0.00  0.00    +0.000 C 
ATOM     31  O   UNL     1      43.838   3.906  13.282  0.00  0.00    +0.000 OA
ENDBRANCH  21  31
ENDBRANCH  17  28
ENDBRANCH   1  19
TORSDOF 8
ENDMDL
MODEL 9
REMARK VINA RESULT:    -6.194      3.986      8.209
REMARK INTER + INTRA:         -10.407
REMARK INTER:                  -8.394
REMARK INTRA:                  -2.014
REMARK UNBOUND:                -1.317
REMARK  Name = 
REMARK  9 active torsions:
REMARK  status: ('A' for Active; 'I' for Inactive)
REMARK    1  A    between atoms: C_1  and  O_2
REMARK    2  A    between atoms: O_2  and  C_3
REMARK    3  A    between atoms: C_10  and  C_11
REMARK    4  A    between atoms: N_13  and  C_14
REMARK    5  A    between atoms: C_14  and  C_15
REMARK    6  A    between atoms: C_18  and  C_19
REMARK    7  A    between atoms: C_19  and  O_20
REMARK    8  A    between atoms: O_20  and  C_21
REMARK    9  A    between atoms: C_21  and  C_22
REMARK                            x       y       z     vdW  Elec       q    Type
REMARK                         _______ _______ _______ _____ _____    ______ ____
ROOT
ATOM      1  C   UNL     1      48.811   8.217  13.156  0.00  0.00    +0.000 C 
ENDROOT
BRANCH   1   2
ATOM      2  C   UNL     1      49.083   8.059  14.631  0.00  0.00    +0.000 A 
ATOM      3  C   UNL     1      50.011   7.117  15.092  0.00  0.00    +0.000 A 
ATOM      4  C   UNL     1      50.247   6.958  16.464  0.00  0.00    +0.000 A 
ATOM      5  C   UNL     1      49.549   7.729  17.405  0.00  0.00    +0.000 A 
ATOM      6  C   UNL     1      48.610   8.660  16.943  0.00  0.00    +0.000 A 
ATOM      7  C   UNL     1      48.377   8.821  15.572  0.00  0.00    +0.000 A 
BRANCH   5   8
ATOM      8  C   UNL     1      49.794   7.545  18.883  0.00  0.00    +0.000 C 
BRANCH   8   9
ATOM      9  O   UNL     1      48.909   6.548  19.383  0.00  0.00    +0.000 OA
BRANCH   9  10
ATOM     10  C   UNL     1      49.613   5.464  19.991  0.00  0.00    +0.000 C 
BRANCH  10  11
ATOM     11  C   UNL     1      49.919   4.399  18.965  0.00  0.00    +0.000 A 
ATOM     12  C   UNL     1      51.242   4.083  18.620  0.00  0.00    +0.000 A 
ATOM     13  C   UNL     1      51.518   3.069  17.701  0.00  0.00    +0.000 A 
ATOM     14  C   UNL     1      50.476   2.349  17.122  0.00  0.00    +0.000 A 
ATOM     15  C   UNL     1      49.157   2.642  17.464  0.00  0.00    +0.000 A 
ATOM     16  C   UNL     1      48.879   3.657  18.384  0.00  0.00    +0.000 A 
ENDBRANCH  10  11
ENDBRANCH   9  10
ENDBRANCH   8   9
ENDBRANCH   5   8
ENDBRANCH   1   2
BRANCH   1  19
ATOM     17  C   UNL     1      46.418   7.816  12.706  0.00  0.00    +0.000 C 
ATOM     18  O   UNL     1      46.123   8.962  13.032  0.00  0.00    +0.000 OA
ATOM     19  N   UNL     1      47.715   7.378  12.740  0.00  0.00    +0.000 N 
ATOM     20  H   UNL     1      47.934   6.424  12.491  0.00  0.00    +0.000 HD
BRANCH  17  28
ATOM     21  C   UNL     1      46.100   4.396  12.985  0.00  0.00    +0.000 A 
ATOM     22  N   UNL     1      45.719   3.104  12.975  0.00  0.00    +0.000 NA
ATOM     23  C   UNL     1      44.560   2.797  12.387  0.00  0.00    +0.000 A 
ATOM     24  N   UNL     1      43.717   3.637  11.791  0.00  0.00    +0.000 NA
ATOM     25  C   UNL     1      44.130   4.914  11.833  0.00  0.00    +0.000 A 
ATOM     26  S   UNL     1      43.178   6.125  11.119  0.00  0.00    +0.000 S 
ATOM     27  C   UNL     1      44.288   7.332  11.569  0.00  0.00    +0.000 A 
ATOM     28  C   UNL     1      45.393   6.852  12.265  0.00  0.00    +0.000 A 
ATOM     29  C   UNL     1      45.297   5.400  12.414  0.00  0.00    +0.000 A 
BRANCH  21  31
ATOM     30  C   UNL     1      47.202   4.655  15.033  0.00  0.00    +0.000 C 
ATOM     31  O   UNL     1      47.286   4.716  13.611  0.00  0.00    +0.000 OA
ENDBRANCH  21  31
ENDBRANCH  17  28
ENDBRANCH   1  19
TORSDOF 8
ENDMDL
