MODEL 1
REMARK VINA RESULT:    -7.836      0.000      0.000
REMARK INTER + INTRA:         -11.209
REMARK INTER:                 -10.355
REMARK INTRA:                  -0.853
REMARK UNBOUND:                -0.853
REMARK  Name = 
REMARK  6 active torsions:
REMARK  status: ('A' for Active; 'I' for Inactive)
REMARK    1  A    between atoms: N_1  and  C_2
REMARK    2  A    between atoms: C_2  and  C_3
REMARK    3  A    between atoms: C_6  and  C_7
REMARK    4  A    between atoms: C_7  and  N_8
REMARK    5  A    between atoms: N_8  and  C_9
REMARK    6  A    between atoms: C_12  and  C_13
REMARK                            x       y       z     vdW  Elec       q    Type
REMARK                         _______ _______ _______ _____ _____    ______ ____
ROOT
ATOM      1  N   UNL     1      43.685   4.963   9.956  0.00  0.00    +0.000 N 
ATOM      2  H   UNL     1      43.771   5.881   9.528  0.00  0.00    +0.000 HD
ENDROOT
BRANCH   1   3
ATOM      3  C   UNL     1      44.533   4.018   9.357  0.00  0.00    +0.000 A 
ATOM      4  C   UNL     1      44.420   2.639   9.573  0.00  0.00    +0.000 A 
ATOM      5  C   UNL     1      45.236   1.722   8.901  0.00  0.00    +0.000 A 
ATOM      6  C   UNL     1      46.178   2.159   7.964  0.00  0.00    +0.000 A 
ATOM      7  C   UNL     1      46.270   3.533   7.707  0.00  0.00    +0.000 A 
ATOM      8  C   UNL     1      45.447   4.443   8.383  0.00  0.00    +0.000 A 
BRANCH   6   9
ATOM      9  C   UNL     1      47.060   1.180   7.229  0.00  0.00    +0.000 C 
ATOM     10  F   UNL     1      46.985  -0.091   7.710  0.00  0.00    +0.000 F 
ATOM     11  F   UNL     1      46.756   1.094   5.905  0.00  0.00    +0.000 F 
ATOM     12  F   UNL     1      48.378   1.522   7.287  0.00  0.00    +0.000 F 
ENDBRANCH   6   9
ENDBRANCH   1   3
BRANCH   1  13
ATOM     13  C   UNL     1      43.686   5.046  11.413  0.00  0.00    +0.000 C 
BRANCH  13  17
ATOM     14  C   UNL     1      47.449   6.357  13.120  0.00  0.00    +0.000 A 
ATOM     15  C   UNL     1      46.829   7.099  12.105  0.00  0.00    +0.000 A 
ATOM     16  C   UNL     1      45.637   6.657  11.523  0.00  0.00    +0.000 A 
ATOM     17  C   UNL     1      45.041   5.460  11.941  0.00  0.00    +0.000 A 
ATOM     18  C   UNL     1      45.678   4.700  12.933  0.00  0.00    +0.000 A 
ATOM     19  C   UNL     1      46.870   5.145  13.516  0.00  0.00    +0.000 A 
BRANCH  14  20
ATOM     20  C   UNL     1      48.714   6.855  13.774  0.00  0.00    +0.000 C 
BRANCH  20  21
ATOM     21  N   UNL     1      49.815   6.944  12.820  0.00  0.00    +0.000 NA
ATOM     22  H   UNL     1      49.573   6.422  11.980  0.00  0.00    +0.000 HD
ATOM     23  H   UNL     1      50.632   6.485  13.221  0.00  0.00    +0.000 HD
ENDBRANCH  20  21
ENDBRANCH  14  20
ENDBRANCH  13  17
ENDBRANCH   1  13
TORSDOF 6
ENDMDL
MODEL 2
REMARK VINA RESULT:    -7.834      0.341      1.402
REMARK INTER + INTRA:         -11.206
REMARK INTER:                 -10.345
REMARK INTRA:                  -0.861
REMARK UNBOUND:                -0.853
REMARK  Name = 
REMARK  6 active torsions:
REMARK  status: ('A' for Active; 'I' for Inactive)
REMARK    1  A    between atoms: N_1  and  C_2
REMARK    2  A    between atoms: C_2  and  C_3
REMARK    3  A    between atoms: C_6  and  C_7
REMARK    4  A    between atoms: C_7  and  N_8
REMARK    5  A    between atoms: N_8  and  C_9
REMARK    6  A    between atoms: C_12  and  C_13
REMARK                            x       y       z     vdW  Elec       q    Type
REMARK                         _______ _______ _______ _____ _____    ______ ____
ROOT
ATOM      1  N   UNL     1      43.611   4.857   9.941  0.00  0.00    +0.000 N 
ATOM      2  H   UNL     1      43.776   5.817   9.648  0.00  0.00    +0.000 HD
ENDROOT
BRANCH   1   3
ATOM      3  C   UNL     1      44.492   3.956   9.324  0.00  0.00    +0.000 A 
ATOM      4  C   UNL     1      44.445   2.572   9.534  0.00  0.00    +0.000 A 
ATOM      5  C   UNL     1      45.293   1.697   8.845  0.00  0.00    +0.000 A 
ATOM      6  C   UNL     1      46.201   2.182   7.898  0.00  0.00    +0.000 A 
ATOM      7  C   UNL     1      46.227   3.560   7.648  0.00  0.00    +0.000 A 
ATOM      8  C   UNL     1      45.372   4.428   8.341  0.00  0.00    +0.000 A 
BRANCH   6   9
ATOM      9  C   UNL     1      47.117   1.249   7.145  0.00  0.00    +0.000 C 
ATOM     10  F   UNL     1      46.854   1.185   5.810  0.00  0.00    +0.000 F 
ATOM     11  F   UNL     1      48.427   1.605   7.249  0.00  0.00    +0.000 F 
ATOM     12  F   UNL     1      47.042  -0.034   7.599  0.00  0.00    +0.000 F 
ENDBRANCH   6   9
ENDBRANCH   1   3
BRANCH   1  13
ATOM     13  C   UNL     1      43.442   4.758  11.387  0.00  0.00    +0.000 C 
BRANCH  13  17
ATOM     14  C   UNL     1      47.044   6.247  13.285  0.00  0.00    +0.000 A 
ATOM     15  C   UNL     1      46.617   4.929  13.499  0.00  0.00    +0.000 A 
ATOM     16  C   UNL     1      45.433   4.459  12.923  0.00  0.00    +0.000 A 
ATOM     17  C   UNL     1      44.649   5.298  12.121  0.00  0.00    +0.000 A 
ATOM     18  C   UNL     1      45.059   6.626  11.933  0.00  0.00    +0.000 A 
ATOM     19  C   UNL     1      46.244   7.095  12.509  0.00  0.00    +0.000 A 
BRANCH  14  20
ATOM     20  C   UNL     1      48.342   6.741  13.875  0.00  0.00    +0.000 C 
BRANCH  20  21
ATOM     21  N   UNL     1      49.438   6.650  12.916  0.00  0.00    +0.000 NA
ATOM     22  H   UNL     1      49.929   7.542  12.884  0.00  0.00    +0.000 HD
ATOM     23  H   UNL     1      49.048   6.501  11.987  0.00  0.00    +0.000 HD
ENDBRANCH  20  21
ENDBRANCH  14  20
ENDBRANCH  13  17
ENDBRANCH   1  13
TORSDOF 6
ENDMDL
MODEL 3
REMARK VINA RESULT:    -7.363      3.920      6.610
REMARK INTER + INTRA:         -10.584
REMARK INTER:                  -9.827
REMARK INTRA:                  -0.757
REMARK UNBOUND:                -0.853
REMARK  Name = 
REMARK  6 active torsions:
REMARK  status: ('A' for Active; 'I' for Inactive)
REMARK    1  A    between atoms: N_1  and  C_2
REMARK    2  A    between atoms: C_2  and  C_3
REMARK    3  A    between atoms: C_6  and  C_7
REMARK    4  A    between atoms: C_7  and  N_8
REMARK    5  A    between atoms: N_8  and  C_9
REMARK    6  A    between atoms: C_12  and  C_13
REMARK                            x       y       z     vdW  Elec       q    Type
REMARK                         _______ _______ _______ _____ _____    ______ ____
ROOT
ATOM      1  N   UNL     1      44.085   4.064  11.402  0.00  0.00    +0.000 N 
ATOM      2  H   UNL     1      44.109   3.060  11.563  0.00  0.00    +0.000 HD
ENDROOT
BRANCH   1   3
ATOM      3  C   UNL     1      45.157   4.725  12.020  0.00  0.00    +0.000 A 
ATOM      4  C   UNL     1      45.576   6.013  11.659  0.00  0.00    +0.000 A 
ATOM      5  C   UNL     1      46.602   6.670  12.347  0.00  0.00    +0.000 A 
ATOM      6  C   UNL     1      47.226   6.066  13.443  0.00  0.00    +0.000 A 
ATOM      7  C   UNL     1      46.787   4.796  13.841  0.00  0.00    +0.000 A 
ATOM      8  C   UNL     1      45.756   4.147  13.147  0.00  0.00    +0.000 A 
BRANCH   6   9
ATOM      9  C   UNL     1      48.331   6.766  14.196  0.00  0.00    +0.000 C 
ATOM     10  F   UNL     1      48.023   8.042  14.556  0.00  0.00    +0.000 F 
ATOM     11  F   UNL     1      48.664   6.124  15.350  0.00  0.00    +0.000 F 
ATOM     12  F   UNL     1      49.482   6.852  13.472  0.00  0.00    +0.000 F 
ENDBRANCH   6   9
ENDBRANCH   1   3
BRANCH   1  13
ATOM     13  C   UNL     1      43.809   4.379  10.004  0.00  0.00    +0.000 C 
BRANCH  13  17
ATOM     14  C   UNL     1      46.672   2.269   7.525  0.00  0.00    +0.000 A 
ATOM     15  C   UNL     1      46.486   3.652   7.382  0.00  0.00    +0.000 A 
ATOM     16  C   UNL     1      45.533   4.328   8.150  0.00  0.00    +0.000 A 
ATOM     17  C   UNL     1      44.743   3.635   9.077  0.00  0.00    +0.000 A 
ATOM     18  C   UNL     1      44.906   2.247   9.197  0.00  0.00    +0.000 A 
ATOM     19  C   UNL     1      45.861   1.572   8.429  0.00  0.00    +0.000 A 
BRANCH  14  20
ATOM     20  C   UNL     1      47.727   1.549   6.723  0.00  0.00    +0.000 C 
BRANCH  20  21
ATOM     21  N   UNL     1      48.761   2.463   6.249  0.00  0.00    +0.000 NA
ATOM     22  H   UNL     1      49.656   1.978   6.237  0.00  0.00    +0.000 HD
ATOM     23  H   UNL     1      48.854   3.226   6.918  0.00  0.00    +0.000 HD
ENDBRANCH  20  21
ENDBRANCH  14  20
ENDBRANCH  13  17
ENDBRANCH   1  13
TORSDOF 6
ENDMDL
MODEL 4
REMARK VINA RESULT:    -5.841      4.303      5.941
REMARK INTER + INTRA:          -8.573
REMARK INTER:                  -8.057
REMARK INTRA:                  -0.515
REMARK UNBOUND:                -0.853
REMARK  Name = 
REMARK  6 active torsions:
REMARK  status: ('A' for Active; 'I' for Inactive)
REMARK    1  A    between atoms: N_1  and  C_2
REMARK    2  A    between atoms: C_2  and  C_3
REMARK    3  A    between atoms: C_6  and  C_7
REMARK    4  A    between atoms: C_7  and  N_8
REMARK    5  A    between atoms: N_8  and  C_9
REMARK    6  A    between atoms: C_12  and  C_13
REMARK                            x       y       z     vdW  Elec       q    Type
REMARK                         _______ _______ _______ _____ _____    ______ ____
ROOT
ATOM      1  N   UNL     1      47.177   5.211  15.095  0.00  0.00    +0.000 N 
ATOM      2  H   UNL     1      48.140   5.524  15.004  0.00  0.00    +0.000 HD
ENDROOT
BRANCH   1   3
ATOM      3  C   UNL     1      46.544   5.079  13.850  0.00  0.00    +0.000 A 
ATOM      4  C   UNL     1      46.606   6.058  12.849  0.00  0.00    +0.000 A 
ATOM      5  C   UNL     1      46.023   5.859  11.592  0.00  0.00    +0.000 A 
ATOM      6  C   UNL     1      45.380   4.656  11.287  0.00  0.00    +0.000 A 
ATOM      7  C   UNL     1      45.348   3.653  12.264  0.00  0.00    +0.000 A 
ATOM      8  C   UNL     1      45.938   3.860  13.519  0.00  0.00    +0.000 A 
BRANCH   6   9
ATOM      9  C   UNL     1      44.752   4.428   9.934  0.00  0.00    +0.000 C 
ATOM     10  F   UNL     1      45.363   5.109   8.926  0.00  0.00    +0.000 F 
ATOM     11  F   UNL     1      44.771   3.118   9.563  0.00  0.00    +0.000 F 
ATOM     12  F   UNL     1      43.443   4.807   9.896  0.00  0.00    +0.000 F 
ENDBRANCH   6   9
ENDBRANCH   1   3
BRANCH   1  13
ATOM     13  C   UNL     1      47.059   4.102  16.037  0.00  0.00    +0.000 C 
BRANCH  13  17
ATOM     14  C   UNL     1      50.997   3.153  17.579  0.00  0.00    +0.000 A 
ATOM     15  C   UNL     1      50.139   2.135  17.138  0.00  0.00    +0.000 A 
ATOM     16  C   UNL     1      48.852   2.435  16.680  0.00  0.00    +0.000 A 
ATOM     17  C   UNL     1      48.395   3.759  16.655  0.00  0.00    +0.000 A 
ATOM     18  C   UNL     1      49.241   4.773  17.126  0.00  0.00    +0.000 A 
ATOM     19  C   UNL     1      50.528   4.473  17.583  0.00  0.00    +0.000 A 
BRANCH  14  20
ATOM     20  C   UNL     1      52.399   2.833  18.035  0.00  0.00    +0.000 C 
BRANCH  20  21
ATOM     21  N   UNL     1      52.558   1.413  18.329  0.00  0.00    +0.000 NA
ATOM     22  H   UNL     1      52.451   0.879  17.469  0.00  0.00    +0.000 HD
ATOM     23  H   UNL     1      51.802   1.120  18.947  0.00  0.00    +0.000 HD
ENDBRANCH  20  21
ENDBRANCH  14  20
ENDBRANCH  13  17
ENDBRANCH   1  13
TORSDOF 6
ENDMDL
MODEL 5
REMARK VINA RESULT:    -5.812      3.181      4.397
REMARK INTER + INTRA:          -8.534
REMARK INTER:                  -8.026
REMARK INTRA:                  -0.509
REMARK UNBOUND:                -0.853
REMARK  Name = 
REMARK  6 active torsions:
REMARK  status: ('A' for Active; 'I' for Inactive)
REMARK    1  A    between atoms: N_1  and  C_2
REMARK    2  A    between atoms: C_2  and  C_3
REMARK    3  A    between atoms: C_6  and  C_7
REMARK    4  A    between atoms: C_7  and  N_8
REMARK    5  A    between atoms: N_8  and  C_9
REMARK    6  A    between atoms: C_12  and  C_13
REMARK                            x       y       z     vdW  Elec       q    Type
REMARK                         _______ _______ _______ _____ _____    ______ ____
ROOT
ATOM      1  N   UNL     1      45.869   6.158  13.323  0.00  0.00    +0.000 N 
ATOM      2  H   UNL     1      45.327   7.017  13.386  0.00  0.00    +0.000 HD
ENDROOT
BRANCH   1   3
ATOM      3  C   UNL     1      45.584   5.437  12.153  0.00  0.00    +0.000 A 
ATOM      4  C   UNL     1      45.810   5.942  10.866  0.00  0.00    +0.000 A 
ATOM      5  C   UNL     1      45.583   5.166   9.724  0.00  0.00    +0.000 A 
ATOM      6  C   UNL     1      45.146   3.843   9.836  0.00  0.00    +0.000 A 
ATOM      7  C   UNL     1      44.958   3.313  11.119  0.00  0.00    +0.000 A 
ATOM      8  C   UNL     1      45.191   4.097  12.258  0.00  0.00    +0.000 A 
BRANCH   6   9
ATOM      9  C   UNL     1      44.902   2.994   8.613  0.00  0.00    +0.000 C 
ATOM     10  F   UNL     1      44.390   3.689   7.559  0.00  0.00    +0.000 F 
ATOM     11  F   UNL     1      46.038   2.403   8.151  0.00  0.00    +0.000 F 
ATOM     12  F   UNL     1      44.023   1.980   8.849  0.00  0.00    +0.000 F 
ENDBRANCH   6   9
ENDBRANCH   1   3
BRANCH   1  13
ATOM     13  C   UNL     1      47.272   6.382  13.656  0.00  0.00    +0.000 C 
BRANCH  13  17
ATOM     14  C   UNL     1      48.594   4.149  17.129  0.00  0.00    +0.000 A 
ATOM     15  C   UNL     1      47.595   3.637  16.288  0.00  0.00    +0.000 A 
ATOM     16  C   UNL     1      47.137   4.373  15.192  0.00  0.00    +0.000 A 
ATOM     17  C   UNL     1      47.665   5.641  14.914  0.00  0.00    +0.000 A 
ATOM     18  C   UNL     1      48.640   6.168  15.773  0.00  0.00    +0.000 A 
ATOM     19  C   UNL     1      49.100   5.429  16.868  0.00  0.00    +0.000 A 
BRANCH  14  20
ATOM     20  C   UNL     1      49.115   3.337  18.288  0.00  0.00    +0.000 C 
BRANCH  20  21
ATOM     21  N   UNL     1      48.331   3.560  19.498  0.00  0.00    +0.000 NA
ATOM     22  H   UNL     1      47.509   2.960  19.479  0.00  0.00    +0.000 HD
ATOM     23  H   UNL     1      47.989   4.520  19.494  0.00  0.00    +0.000 HD
ENDBRANCH  20  21
ENDBRANCH  14  20
ENDBRANCH  13  17
ENDBRANCH   1  13
TORSDOF 6
ENDMDL
MODEL 6
REMARK VINA RESULT:    -5.597      2.231      3.594
REMARK INTER + INTRA:          -8.250
REMARK INTER:                  -7.663
REMARK INTRA:                  -0.587
REMARK UNBOUND:                -0.853
REMARK  Name = 
REMARK  6 active torsions:
REMARK  status: ('A' for Active; 'I' for Inactive)
REMARK    1  A    between atoms: N_1  and  C_2
REMARK    2  A    between atoms: C_2  and  C_3
REMARK    3  A    between atoms: C_6  and  C_7
REMARK    4  A    between atoms: C_7  and  N_8
REMARK    5  A    between atoms: N_8  and  C_9
REMARK    6  A    between atoms: C_12  and  C_13
REMARK                            x       y       z     vdW  Elec       q    Type
REMARK                         _______ _______ _______ _____ _____    ______ ____
ROOT
ATOM      1  N   UNL     1      45.370   6.379  13.163  0.00  0.00    +0.000 N 
ATOM      2  H   UNL     1      44.611   6.301  13.836  0.00  0.00    +0.000 HD
ENDROOT
BRANCH   1   3
ATOM      3  C   UNL     1      45.223   5.481  12.095  0.00  0.00    +0.000 A 
ATOM      4  C   UNL     1      45.421   5.842  10.756  0.00  0.00    +0.000 A 
ATOM      5  C   UNL     1      45.338   4.901   9.723  0.00  0.00    +0.000 A 
ATOM      6  C   UNL     1      45.079   3.556  10.003  0.00  0.00    +0.000 A 
ATOM      7  C   UNL     1      44.922   3.175  11.342  0.00  0.00    +0.000 A 
ATOM      8  C   UNL     1      45.010   4.124  12.370  0.00  0.00    +0.000 A 
BRANCH   6   9
ATOM      9  C   UNL     1      44.992   2.531   8.899  0.00  0.00    +0.000 C 
ATOM     10  F   UNL     1      46.192   1.980   8.568  0.00  0.00    +0.000 F 
ATOM     11  F   UNL     1      44.180   1.486   9.219  0.00  0.00    +0.000 F 
ATOM     12  F   UNL     1      44.492   3.051   7.743  0.00  0.00    +0.000 F 
ENDBRANCH   6   9
ENDBRANCH   1   3
BRANCH   1  13
ATOM     13  C   UNL     1      45.663   7.772  12.842  0.00  0.00    +0.000 C 
BRANCH  13  17
ATOM     14  C   UNL     1      49.941   8.327  12.412  0.00  0.00    +0.000 A 
ATOM     15  C   UNL     1      49.432   7.320  13.245  0.00  0.00    +0.000 A 
ATOM     16  C   UNL     1      48.054   7.166  13.419  0.00  0.00    +0.000 A 
ATOM     17  C   UNL     1      47.153   8.018  12.766  0.00  0.00    +0.000 A 
ATOM     18  C   UNL     1      47.663   9.046  11.959  0.00  0.00    +0.000 A 
ATOM     19  C   UNL     1      49.042   9.198  11.784  0.00  0.00    +0.000 A 
BRANCH  14  20
ATOM     20  C   UNL     1      51.427   8.467  12.195  0.00  0.00    +0.000 C 
BRANCH  20  21
ATOM     21  N   UNL     1      52.185   8.044  13.368  0.00  0.00    +0.000 NA
ATOM     22  H   UNL     1      51.649   8.255  14.207  0.00  0.00    +0.000 HD
ATOM     23  H   UNL     1      53.039   8.597  13.423  0.00  0.00    +0.000 HD
ENDBRANCH  20  21
ENDBRANCH  14  20
ENDBRANCH  13  17
ENDBRANCH   1  13
TORSDOF 6
ENDMDL
MODEL 7
REMARK VINA RESULT:    -5.345      4.239      6.885
REMARK INTER + INTRA:          -7.916
REMARK INTER:                  -7.227
REMARK INTRA:                  -0.689
REMARK UNBOUND:                -0.853
REMARK  Name = 
REMARK  6 active torsions:
REMARK  status: ('A' for Active; 'I' for Inactive)
REMARK    1  A    between atoms: N_1  and  C_2
REMARK    2  A    between atoms: C_2  and  C_3
REMARK    3  A    between atoms: C_6  and  C_7
REMARK    4  A    between atoms: C_7  and  N_8
REMARK    5  A    between atoms: N_8  and  C_9
REMARK    6  A    between atoms: C_12  and  C_13
REMARK                            x       y       z     vdW  Elec       q    Type
REMARK                         _______ _______ _______ _____ _____    ______ ____
ROOT
ATOM      1  N   UNL     1      44.587   6.190  12.619  0.00  0.00    +0.000 N 
ATOM      2  H   UNL     1      44.878   5.305  13.028  0.00  0.00    +0.000 HD
ENDROOT
BRANCH   1   3
ATOM      3  C   UNL     1      45.668   7.066  12.431  0.00  0.00    +0.000 A 
ATOM      4  C   UNL     1      45.556   8.458  12.544  0.00  0.00    +0.000 A 
ATOM      5  C   UNL     1      46.671   9.296  12.422  0.00  0.00    +0.000 A 
ATOM      6  C   UNL     1      47.944   8.760  12.210  0.00  0.00    +0.000 A 
ATOM      7  C   UNL     1      48.076   7.367  12.138  0.00  0.00    +0.000 A 
ATOM      8  C   UNL     1      46.954   6.537  12.264  0.00  0.00    +0.000 A 
BRANCH   6   9
ATOM      9  C   UNL     1      49.155   9.652  12.082  0.00  0.00    +0.000 C 
ATOM     10  F   UNL     1      49.957   9.646  13.182  0.00  0.00    +0.000 F 
ATOM     11  F   UNL     1      49.954   9.301  11.037  0.00  0.00    +0.000 F 
ATOM     12  F   UNL     1      48.821  10.957  11.874  0.00  0.00    +0.000 F 
ENDBRANCH   6   9
ENDBRANCH   1   3
BRANCH   1  13
ATOM     13  C   UNL     1      43.674   5.991  11.499  0.00  0.00    +0.000 C 
BRANCH  13  17
ATOM     14  C   UNL     1      45.115   2.625   9.177  0.00  0.00    +0.000 A 
ATOM     15  C   UNL     1      45.451   3.938   8.816  0.00  0.00    +0.000 A 
ATOM     16  C   UNL     1      44.953   5.027   9.537  0.00  0.00    +0.000 A 
ATOM     17  C   UNL     1      44.106   4.828  10.635  0.00  0.00    +0.000 A 
ATOM     18  C   UNL     1      43.743   3.517  10.976  0.00  0.00    +0.000 A 
ATOM     19  C   UNL     1      44.243   2.428  10.255  0.00  0.00    +0.000 A 
BRANCH  14  20
ATOM     20  C   UNL     1      45.685   1.451   8.423  0.00  0.00    +0.000 C 
BRANCH  20  21
ATOM     21  N   UNL     1      46.855   1.831   7.638  0.00  0.00    +0.000 NA
ATOM     22  H   UNL     1      46.612   2.611   7.031  0.00  0.00    +0.000 HD
ATOM     23  H   UNL     1      47.105   1.055   7.027  0.00  0.00    +0.000 HD
ENDBRANCH  20  21
ENDBRANCH  14  20
ENDBRANCH  13  17
ENDBRANCH   1  13
TORSDOF 6
ENDMDL
MODEL 8
REMARK VINA RESULT:    -5.083      6.194      8.151
REMARK INTER + INTRA:          -7.571
REMARK INTER:                  -6.960
REMARK INTRA:                  -0.611
REMARK UNBOUND:                -0.853
REMARK  Name = 
REMARK  6 active torsions:
REMARK  status: ('A' for Active; 'I' for Inactive)
REMARK    1  A    between atoms: N_1  and  C_2
REMARK    2  A    between atoms: C_2  and  C_3
REMARK    3  A    between atoms: C_6  and  C_7
REMARK    4  A    between atoms: C_7  and  N_8
REMARK    5  A    between atoms: N_8  and  C_9
REMARK    6  A    between atoms: C_12  and  C_13
REMARK                            x       y       z     vdW  Elec       q    Type
REMARK                         _______ _______ _______ _____ _____    ______ ____
ROOT
ATOM      1  N   UNL     1      46.643   4.318  15.537  0.00  0.00    +0.000 N 
ATOM      2  H   UNL     1      45.885   3.751  15.908  0.00  0.00    +0.000 HD
ENDROOT
BRANCH   1   3
ATOM      3  C   UNL     1      47.820   4.187  16.291  0.00  0.00    +0.000 A 
ATOM      4  C   UNL     1      48.346   2.950  16.685  0.00  0.00    +0.000 A 
ATOM      5  C   UNL     1      49.561   2.856  17.374  0.00  0.00    +0.000 A 
ATOM      6  C   UNL     1      50.305   4.003  17.667  0.00  0.00    +0.000 A 
ATOM      7  C   UNL     1      49.810   5.242  17.240  0.00  0.00    +0.000 A 
ATOM      8  C   UNL     1      48.594   5.326  16.548  0.00  0.00    +0.000 A 
BRANCH   6   9
ATOM      9  C   UNL     1      51.618   3.914  18.405  0.00  0.00    +0.000 C 
ATOM     10  F   UNL     1      51.530   4.255  19.720  0.00  0.00    +0.000 F 
ATOM     11  F   UNL     1      52.148   2.660  18.381  0.00  0.00    +0.000 F 
ATOM     12  F   UNL     1      52.570   4.732  17.873  0.00  0.00    +0.000 F 
ENDBRANCH   6   9
ENDBRANCH   1   3
BRANCH   1  13
ATOM     13  C   UNL     1      46.751   4.191  14.087  0.00  0.00    +0.000 C 
BRANCH  13  17
ATOM     14  C   UNL     1      45.764   8.030  12.331  0.00  0.00    +0.000 A 
ATOM     15  C   UNL     1      44.793   7.024  12.441  0.00  0.00    +0.000 A 
ATOM     16  C   UNL     1      45.119   5.771  12.967  0.00  0.00    +0.000 A 
ATOM     17  C   UNL     1      46.424   5.495  13.394  0.00  0.00    +0.000 A 
ATOM     18  C   UNL     1      47.403   6.489  13.254  0.00  0.00    +0.000 A 
ATOM     19  C   UNL     1      47.076   7.743  12.728  0.00  0.00    +0.000 A 
BRANCH  14  20
ATOM     20  C   UNL     1      45.402   9.394  11.800  0.00  0.00    +0.000 C 
BRANCH  20  21
ATOM     21  N   UNL     1      44.359  10.025  12.601  0.00  0.00    +0.000 NA
ATOM     22  H   UNL     1      44.771  10.767  13.163  0.00  0.00    +0.000 HD
ATOM     23  H   UNL     1      43.989   9.337  13.257  0.00  0.00    +0.000 HD
ENDBRANCH  20  21
ENDBRANCH  14  20
ENDBRANCH  13  17
ENDBRANCH   1  13
TORSDOF 6
ENDMDL
MODEL 9
REMARK VINA RESULT:    -5.001      4.242      6.075
REMARK INTER + INTRA:          -7.463
REMARK INTER:                  -6.921
REMARK INTRA:                  -0.542
REMARK UNBOUND:                -0.853
REMARK  Name = 
REMARK  6 active torsions:
REMARK  status: ('A' for Active; 'I' for Inactive)
REMARK    1  A    between atoms: N_1  and  C_2
REMARK    2  A    between atoms: C_2  and  C_3
REMARK    3  A    between atoms: C_6  and  C_7
REMARK    4  A    between atoms: C_7  and  N_8
REMARK    5  A    between atoms: N_8  and  C_9
REMARK    6  A    between atoms: C_12  and  C_13
REMARK                            x       y       z     vdW  Elec       q    Type
REMARK                         _______ _______ _______ _____ _____    ______ ____
ROOT
ATOM      1  N   UNL     1      48.288   6.249  13.684  0.00  0.00    +0.000 N 
ATOM      2  H   UNL     1      48.785   5.412  13.980  0.00  0.00    +0.000 HD
ENDROOT
BRANCH   1   3
ATOM      3  C   UNL     1      47.062   5.947  13.070  0.00  0.00    +0.000 A 
ATOM      4  C   UNL     1      46.719   6.386  11.785  0.00  0.00    +0.000 A 
ATOM      5  C   UNL     1      45.518   6.004  11.176  0.00  0.00    +0.000 A 
ATOM      6  C   UNL     1      44.631   5.142  11.828  0.00  0.00    +0.000 A 
ATOM      7  C   UNL     1      44.983   4.661  13.096  0.00  0.00    +0.000 A 
ATOM      8  C   UNL     1      46.189   5.047  13.697  0.00  0.00    +0.000 A 
BRANCH   6   9
ATOM      9  C   UNL     1      43.335   4.718  11.181  0.00  0.00    +0.000 C 
ATOM     10  F   UNL     1      42.283   5.527  11.484  0.00  0.00    +0.000 F 
ATOM     11  F   UNL     1      43.411   4.700   9.821  0.00  0.00    +0.000 F 
ATOM     12  F   UNL     1      42.955   3.462  11.550  0.00  0.00    +0.000 F 
ENDBRANCH   6   9
ENDBRANCH   1   3
BRANCH   1  13
ATOM     13  C   UNL     1      48.290   7.273  14.724  0.00  0.00    +0.000 C 
BRANCH  13  17
ATOM     14  C   UNL     1      49.135   5.616  18.640  0.00  0.00    +0.000 A 
ATOM     15  C   UNL     1      49.203   6.999  18.420  0.00  0.00    +0.000 A 
ATOM     16  C   UNL     1      48.973   7.533  17.148  0.00  0.00    +0.000 A 
ATOM     17  C   UNL     1      48.672   6.694  16.067  0.00  0.00    +0.000 A 
ATOM     18  C   UNL     1      48.637   5.308  16.279  0.00  0.00    +0.000 A 
ATOM     19  C   UNL     1      48.865   4.775  17.552  0.00  0.00    +0.000 A 
BRANCH  14  20
ATOM     20  C   UNL     1      49.344   5.046  20.020  0.00  0.00    +0.000 C 
BRANCH  20  21
ATOM     21  N   UNL     1      48.492   3.886  20.258  0.00  0.00    +0.000 NA
ATOM     22  H   UNL     1      47.695   4.167  20.827  0.00  0.00    +0.000 HD
ATOM     23  H   UNL     1      49.013   3.204  20.808  0.00  0.00    +0.000 HD
ENDBRANCH  20  21
ENDBRANCH  14  20
ENDBRANCH  13  17
ENDBRANCH   1  13
TORSDOF 6
ENDMDL
