MODEL 1
REMARK VINA RESULT:    -8.959      0.000      0.000
REMARK INTER + INTRA:         -12.492
REMARK INTER:                 -11.578
REMARK INTRA:                  -0.914
REMARK UNBOUND:                -0.914
REMARK  Name = 
REMARK  5 active torsions:
REMARK  status: ('A' for Active; 'I' for Inactive)
REMARK    1  A    between atoms: C_2  and  C_4
REMARK    2  A    between atoms: C_7  and  O_8
REMARK    3  A    between atoms: O_8  and  C_9
REMARK    4  A    between atoms: C_9  and  C_10
REMARK    5  A    between atoms: C_14  and  C_15
REMARK                            x       y       z     vdW  Elec       q    Type
REMARK                         _______ _______ _______ _____ _____    ______ ____
ROOT
ATOM      1  C   UNL     1      43.608   4.366  11.170  0.00  0.00    +0.000 C 
ENDROOT
BRANCH   1   2
ATOM      2  C   UNL     1      44.816   4.747  11.999  0.00  0.00    +0.000 A 
ATOM      3  C   UNL     1      45.444   3.845  12.861  0.00  0.00    +0.000 A 
ATOM      4  C   UNL     1      46.601   4.219  13.537  0.00  0.00    +0.000 A 
ATOM      5  C   UNL     1      47.151   5.490  13.343  0.00  0.00    +0.000 A 
ATOM      6  C   UNL     1      46.573   6.418  12.461  0.00  0.00    +0.000 A 
ATOM      7  C   UNL     1      45.392   6.019  11.806  0.00  0.00    +0.000 A 
BRANCH   6   8
ATOM      8  C   UNL     1      47.190   7.745  12.209  0.00  0.00    +0.000 A 
ATOM      9  C   UNL     1      48.515   7.864  11.743  0.00  0.00    +0.000 A 
ATOM     10  C   UNL     1      49.101   9.116  11.507  0.00  0.00    +0.000 A 
ATOM     11  C   UNL     1      48.373  10.283  11.721  0.00  0.00    +0.000 A 
ATOM     12  C   UNL     1      47.066  10.197  12.184  0.00  0.00    +0.000 A 
ATOM     13  C   UNL     1      46.493   8.947  12.431  0.00  0.00    +0.000 A 
ATOM     14  F   UNL     1      45.238   8.935  12.909  0.00  0.00    +0.000 F 
ENDBRANCH   6   8
ENDBRANCH   1   2
BRANCH   1  15
ATOM     15  O   UNL     1      43.740   4.772   9.803  0.00  0.00    +0.000 OA
BRANCH  15  19
ATOM     16  C   UNL     1      46.356   2.305   7.791  0.00  0.00    +0.000 A 
ATOM     17  C   UNL     1      45.452   1.758   8.705  0.00  0.00    +0.000 A 
ATOM     18  C   UNL     1      44.568   2.602   9.381  0.00  0.00    +0.000 A 
ATOM     19  C   UNL     1      44.624   3.963   9.117  0.00  0.00    +0.000 A 
ATOM     20  N   UNL     1      45.490   4.518   8.244  0.00  0.00    +0.000 NA
ATOM     21  C   UNL     1      46.345   3.680   7.607  0.00  0.00    +0.000 A 
BRANCH  16  23
ATOM     22  N   UNL     1      48.428   2.161   6.529  0.00  0.00    +0.000 N 
ATOM     23  C   UNL     1      47.336   1.508   7.024  0.00  0.00    +0.000 C 
ATOM     24  O   UNL     1      47.197   0.303   6.875  0.00  0.00    +0.000 OA
ATOM     25  H   UNL     1      49.139   1.577   6.108  0.00  0.00    +0.000 HD
ATOM     26  H   UNL     1      48.704   3.081   6.842  0.00  0.00    +0.000 HD
ENDBRANCH  16  23
ENDBRANCH  15  19
ENDBRANCH   1  15
TORSDOF 5
ENDMDL
MODEL 2
REMARK VINA RESULT:    -8.267      1.782      2.395
REMARK INTER + INTRA:         -11.597
REMARK INTER:                 -10.658
REMARK INTRA:                  -0.938
REMARK UNBOUND:                -0.914
REMARK  Name = 
REMARK  5 active torsions:
REMARK  status: ('A' for Active; 'I' for Inactive)
REMARK    1  A    between atoms: C_2  and  C_4
REMARK    2  A    between atoms: C_7  and  O_8
REMARK    3  A    between atoms: O_8  and  C_9
REMARK    4  A    between atoms: C_9  and  C_10
REMARK    5  A    between atoms: C_14  and  C_15
REMARK                            x       y       z     vdW  Elec       q    Type
REMARK                         _______ _______ _______ _____ _____    ______ ____
ROOT
ATOM      1  C   UNL     1      44.305   3.115  11.320  0.00  0.00    +0.000 C 
ENDROOT
BRANCH   1   2
ATOM      2  C   UNL     1      44.536   4.608  11.414  0.00  0.00    +0.000 A 
ATOM      3  C   UNL     1      43.496   5.532  11.297  0.00  0.00    +0.000 A 
ATOM      4  C   UNL     1      43.746   6.889  11.476  0.00  0.00    +0.000 A 
ATOM      5  C   UNL     1      45.035   7.332  11.791  0.00  0.00    +0.000 A 
ATOM      6  C   UNL     1      46.106   6.436  11.952  0.00  0.00    +0.000 A 
ATOM      7  C   UNL     1      45.826   5.072  11.745  0.00  0.00    +0.000 A 
BRANCH   6   8
ATOM      8  C   UNL     1      47.460   6.900  12.346  0.00  0.00    +0.000 A 
ATOM      9  C   UNL     1      48.281   7.618  11.454  0.00  0.00    +0.000 A 
ATOM     10  C   UNL     1      49.561   8.055  11.822  0.00  0.00    +0.000 A 
ATOM     11  C   UNL     1      50.051   7.793  13.099  0.00  0.00    +0.000 A 
ATOM     12  C   UNL     1      49.265   7.084  13.999  0.00  0.00    +0.000 A 
ATOM     13  C   UNL     1      47.996   6.640  13.621  0.00  0.00    +0.000 A 
ATOM     14  F   UNL     1      47.303   5.932  14.526  0.00  0.00    +0.000 F 
ENDBRANCH   6   8
ENDBRANCH   1   2
BRANCH   1  15
ATOM     15  O   UNL     1      43.743   2.732  10.060  0.00  0.00    +0.000 OA
BRANCH  15  19
ATOM     16  C   UNL     1      46.627   2.465   7.128  0.00  0.00    +0.000 A 
ATOM     17  C   UNL     1      45.930   3.663   7.308  0.00  0.00    +0.000 A 
ATOM     18  C   UNL     1      44.956   3.744   8.305  0.00  0.00    +0.000 A 
ATOM     19  C   UNL     1      44.714   2.622   9.085  0.00  0.00    +0.000 A 
ATOM     20  N   UNL     1      45.368   1.452   8.930  0.00  0.00    +0.000 NA
ATOM     21  C   UNL     1      46.302   1.394   7.948  0.00  0.00    +0.000 A 
BRANCH  16  23
ATOM     22  N   UNL     1      47.716   3.154   5.069  0.00  0.00    +0.000 N 
ATOM     23  C   UNL     1      47.673   2.266   6.105  0.00  0.00    +0.000 C 
ATOM     24  O   UNL     1      48.494   1.366   6.202  0.00  0.00    +0.000 OA
ATOM     25  H   UNL     1      48.509   3.066   4.445  0.00  0.00    +0.000 HD
ATOM     26  H   UNL     1      47.233   4.040   5.087  0.00  0.00    +0.000 HD
ENDBRANCH  16  23
ENDBRANCH  15  19
ENDBRANCH   1  15
TORSDOF 5
ENDMDL
MODEL 3
REMARK VINA RESULT:    -8.051      2.100      3.737
REMARK INTER + INTRA:         -11.318
REMARK INTER:                 -11.007
REMARK INTRA:                  -0.311
REMARK UNBOUND:                -0.914
REMARK  Name = 
REMARK  5 active torsions:
REMARK  status: ('A' for Active; 'I' for Inactive)
REMARK    1  A    between atoms: C_2  and  C_4
REMARK    2  A    between atoms: C_7  and  O_8
REMARK    3  A    between atoms: O_8  and  C_9
REMARK    4  A    between atoms: C_9  and  C_10
REMARK    5  A    between atoms: C_14  and  C_15
REMARK                            x       y       z     vdW  Elec       q    Type
REMARK                         _______ _______ _______ _____ _____    ______ ____
ROOT
ATOM      1  C   UNL     1      44.306   4.029  11.461  0.00  0.00    +0.000 C 
ENDROOT
BRANCH   1   2
ATOM      2  C   UNL     1      45.417   4.869  12.056  0.00  0.00    +0.000 A 
ATOM      3  C   UNL     1      45.786   6.104  11.519  0.00  0.00    +0.000 A 
ATOM      4  C   UNL     1      46.755   6.877  12.152  0.00  0.00    +0.000 A 
ATOM      5  C   UNL     1      47.348   6.430  13.337  0.00  0.00    +0.000 A 
ATOM      6  C   UNL     1      46.984   5.210  13.932  0.00  0.00    +0.000 A 
ATOM      7  C   UNL     1      46.016   4.441  13.258  0.00  0.00    +0.000 A 
BRANCH   6   8
ATOM      8  C   UNL     1      47.569   4.765  15.222  0.00  0.00    +0.000 A 
ATOM      9  C   UNL     1      47.427   3.438  15.675  0.00  0.00    +0.000 A 
ATOM     10  C   UNL     1      47.977   3.014  16.893  0.00  0.00    +0.000 A 
ATOM     11  C   UNL     1      48.692   3.906  17.688  0.00  0.00    +0.000 A 
ATOM     12  C   UNL     1      48.845   5.222  17.269  0.00  0.00    +0.000 A 
ATOM     13  C   UNL     1      48.283   5.640  16.060  0.00  0.00    +0.000 A 
ATOM     14  F   UNL     1      48.439   6.932  15.730  0.00  0.00    +0.000 F 
ENDBRANCH   6   8
ENDBRANCH   1   2
BRANCH   1  15
ATOM     15  O   UNL     1      43.996   4.415  10.118  0.00  0.00    +0.000 OA
BRANCH  15  19
ATOM     16  C   UNL     1      46.628   2.704   7.448  0.00  0.00    +0.000 A 
ATOM     17  C   UNL     1      45.915   1.893   8.336  0.00  0.00    +0.000 A 
ATOM     18  C   UNL     1      45.024   2.482   9.235  0.00  0.00    +0.000 A 
ATOM     19  C   UNL     1      44.881   3.862   9.215  0.00  0.00    +0.000 A 
ATOM     20  N   UNL     1      45.560   4.669   8.373  0.00  0.00    +0.000 NA
ATOM     21  C   UNL     1      46.427   4.075   7.515  0.00  0.00    +0.000 A 
BRANCH  16  23
ATOM     22  N   UNL     1      47.758   2.904   5.307  0.00  0.00    +0.000 N 
ATOM     23  C   UNL     1      47.596   2.189   6.459  0.00  0.00    +0.000 C 
ATOM     24  O   UNL     1      48.259   1.186   6.680  0.00  0.00    +0.000 OA
ATOM     25  H   UNL     1      48.506   2.597   4.698  0.00  0.00    +0.000 HD
ATOM     26  H   UNL     1      47.429   3.852   5.200  0.00  0.00    +0.000 HD
ENDBRANCH  16  23
ENDBRANCH  15  19
ENDBRANCH   1  15
TORSDOF 5
ENDMDL
MODEL 4
REMARK VINA RESULT:    -7.541      4.823      8.059
REMARK INTER + INTRA:         -10.659
REMARK INTER:                  -9.873
REMARK INTRA:                  -0.787
REMARK UNBOUND:                -0.914
REMARK  Name = 
REMARK  5 active torsions:
REMARK  status: ('A' for Active; 'I' for Inactive)
REMARK    1  A    between atoms: C_2  and  C_4
REMARK    2  A    between atoms: C_7  and  O_8
REMARK    3  A    between atoms: O_8  and  C_9
REMARK    4  A    between atoms: C_9  and  C_10
REMARK    5  A    between atoms: C_14  and  C_15
REMARK                            x       y       z     vdW  Elec       q    Type
REMARK                         _______ _______ _______ _____ _____    ______ ____
ROOT
ATOM      1  C   UNL     1      45.874   5.133  14.064  0.00  0.00    +0.000 C 
ENDROOT
BRANCH   1   2
ATOM      2  C   UNL     1      44.965   4.831  12.891  0.00  0.00    +0.000 A 
ATOM      3  C   UNL     1      43.622   5.214  12.871  0.00  0.00    +0.000 A 
ATOM      4  C   UNL     1      42.851   4.989  11.735  0.00  0.00    +0.000 A 
ATOM      5  C   UNL     1      43.420   4.396  10.603  0.00  0.00    +0.000 A 
ATOM      6  C   UNL     1      44.775   4.025  10.565  0.00  0.00    +0.000 A 
ATOM      7  C   UNL     1      45.525   4.247  11.737  0.00  0.00    +0.000 A 
BRANCH   6   8
ATOM      8  C   UNL     1      45.394   3.453   9.344  0.00  0.00    +0.000 A 
ATOM      9  C   UNL     1      45.396   2.064   9.102  0.00  0.00    +0.000 A 
ATOM     10  C   UNL     1      45.983   1.520   7.950  0.00  0.00    +0.000 A 
ATOM     11  C   UNL     1      46.576   2.352   7.005  0.00  0.00    +0.000 A 
ATOM     12  C   UNL     1      46.592   3.725   7.218  0.00  0.00    +0.000 A 
ATOM     13  C   UNL     1      46.018   4.259   8.374  0.00  0.00    +0.000 A 
ATOM     14  F   UNL     1      46.098   5.590   8.536  0.00  0.00    +0.000 F 
ENDBRANCH   6   8
ENDBRANCH   1   2
BRANCH   1  15
ATOM     15  O   UNL     1      46.682   4.008  14.425  0.00  0.00    +0.000 OA
BRANCH  15  19
ATOM     16  C   UNL     1      48.386   4.540  18.140  0.00  0.00    +0.000 A 
ATOM     17  C   UNL     1      48.610   5.483  17.133  0.00  0.00    +0.000 A 
ATOM     18  C   UNL     1      48.027   5.295  15.878  0.00  0.00    +0.000 A 
ATOM     19  C   UNL     1      47.242   4.169  15.677  0.00  0.00    +0.000 A 
ATOM     20  N   UNL     1      47.014   3.240  16.630  0.00  0.00    +0.000 NA
ATOM     21  C   UNL     1      47.598   3.439  17.837  0.00  0.00    +0.000 A 
BRANCH  16  23
ATOM     22  N   UNL     1      48.582   3.685  20.405  0.00  0.00    +0.000 N 
ATOM     23  C   UNL     1      48.954   4.637  19.500  0.00  0.00    +0.000 C 
ATOM     24  O   UNL     1      49.758   5.509  19.792  0.00  0.00    +0.000 OA
ATOM     25  H   UNL     1      49.070   3.705  21.292  0.00  0.00    +0.000 HD
ATOM     26  H   UNL     1      48.134   2.821  20.139  0.00  0.00    +0.000 HD
ENDBRANCH  16  23
ENDBRANCH  15  19
ENDBRANCH   1  15
TORSDOF 5
ENDMDL
MODEL 5
REMARK VINA RESULT:    -7.321      4.119      7.361
REMARK INTER + INTRA:         -10.375
REMARK INTER:                  -9.614
REMARK INTRA:                  -0.760
REMARK UNBOUND:                -0.914
REMARK  Name = 
REMARK  5 active torsions:
REMARK  status: ('A' for Active; 'I' for Inactive)
REMARK    1  A    between atoms: C_2  and  C_4
REMARK    2  A    between atoms: C_7  and  O_8
REMARK    3  A    between atoms: O_8  and  C_9
REMARK    4  A    between atoms: C_9  and  C_10
REMARK    5  A    between atoms: C_14  and  C_15
REMARK                            x       y       z     vdW  Elec       q    Type
REMARK                         _______ _______ _______ _____ _____    ______ ____
ROOT
ATOM      1  C   UNL     1      46.235   7.197  12.368  0.00  0.00    +0.000 C 
ENDROOT
BRANCH   1   2
ATOM      2  C   UNL     1      45.314   6.260  11.616  0.00  0.00    +0.000 A 
ATOM      3  C   UNL     1      43.928   6.275  11.794  0.00  0.00    +0.000 A 
ATOM      4  C   UNL     1      43.118   5.453  11.016  0.00  0.00    +0.000 A 
ATOM      5  C   UNL     1      43.684   4.624  10.042  0.00  0.00    +0.000 A 
ATOM      6  C   UNL     1      45.068   4.601   9.804  0.00  0.00    +0.000 A 
ATOM      7  C   UNL     1      45.864   5.428  10.620  0.00  0.00    +0.000 A 
BRANCH   6   8
ATOM      8  C   UNL     1      45.663   3.767   8.729  0.00  0.00    +0.000 A 
ATOM      9  C   UNL     1      46.340   4.347   7.638  0.00  0.00    +0.000 A 
ATOM     10  C   UNL     1      46.901   3.562   6.620  0.00  0.00    +0.000 A 
ATOM     11  C   UNL     1      46.806   2.174   6.672  0.00  0.00    +0.000 A 
ATOM     12  C   UNL     1      46.141   1.575   7.734  0.00  0.00    +0.000 A 
ATOM     13  C   UNL     1      45.573   2.363   8.737  0.00  0.00    +0.000 A 
ATOM     14  F   UNL     1      44.915   1.723   9.717  0.00  0.00    +0.000 F 
ENDBRANCH   6   8
ENDBRANCH   1   2
BRANCH   1  15
ATOM     15  O   UNL     1      47.546   6.647  12.535  0.00  0.00    +0.000 OA
BRANCH  15  19
ATOM     16  C   UNL     1      47.996   4.988  16.280  0.00  0.00    +0.000 A 
ATOM     17  C   UNL     1      47.135   4.390  15.356  0.00  0.00    +0.000 A 
ATOM     18  C   UNL     1      46.991   4.958  14.089  0.00  0.00    +0.000 A 
ATOM     19  C   UNL     1      47.713   6.106  13.794  0.00  0.00    +0.000 A 
ATOM     20  N   UNL     1      48.546   6.708  14.669  0.00  0.00    +0.000 NA
ATOM     21  C   UNL     1      48.662   6.144  15.897  0.00  0.00    +0.000 A 
BRANCH  16  23
ATOM     22  N   UNL     1      47.160   4.482  18.505  0.00  0.00    +0.000 N 
ATOM     23  C   UNL     1      48.222   4.476  17.647  0.00  0.00    +0.000 C 
ATOM     24  O   UNL     1      49.306   4.024  17.985  0.00  0.00    +0.000 OA
ATOM     25  H   UNL     1      47.308   4.022  19.395  0.00  0.00    +0.000 HD
ATOM     26  H   UNL     1      46.207   4.603  18.195  0.00  0.00    +0.000 HD
ENDBRANCH  16  23
ENDBRANCH  15  19
ENDBRANCH   1  15
TORSDOF 5
ENDMDL
MODEL 6
REMARK VINA RESULT:    -6.962      5.028      8.197
REMARK INTER + INTRA:          -9.911
REMARK INTER:                  -8.988
REMARK INTRA:                  -0.923
REMARK UNBOUND:                -0.914
REMARK  Name = 
REMARK  5 active torsions:
REMARK  status: ('A' for Active; 'I' for Inactive)
REMARK    1  A    between atoms: C_2  and  C_4
REMARK    2  A    between atoms: C_7  and  O_8
REMARK    3  A    between atoms: O_8  and  C_9
REMARK    4  A    between atoms: C_9  and  C_10
REMARK    5  A    between atoms: C_14  and  C_15
REMARK                            x       y       z     vdW  Elec       q    Type
REMARK                         _______ _______ _______ _____ _____    ______ ____
ROOT
ATOM      1  C   UNL     1      48.164   7.246  14.129  0.00  0.00    +0.000 C 
ENDROOT
BRANCH   1   2
ATOM      2  C   UNL     1      46.955   7.344  13.222  0.00  0.00    +0.000 A 
ATOM      3  C   UNL     1      46.218   8.523  13.088  0.00  0.00    +0.000 A 
ATOM      4  C   UNL     1      45.168   8.587  12.177  0.00  0.00    +0.000 A 
ATOM      5  C   UNL     1      44.858   7.480  11.380  0.00  0.00    +0.000 A 
ATOM      6  C   UNL     1      45.594   6.285  11.455  0.00  0.00    +0.000 A 
ATOM      7  C   UNL     1      46.638   6.244  12.400  0.00  0.00    +0.000 A 
BRANCH   6   8
ATOM      8  C   UNL     1      45.305   5.132  10.567  0.00  0.00    +0.000 A 
ATOM      9  C   UNL     1      45.683   5.136   9.209  0.00  0.00    +0.000 A 
ATOM     10  C   UNL     1      45.409   4.050   8.366  0.00  0.00    +0.000 A 
ATOM     11  C   UNL     1      44.757   2.924   8.862  0.00  0.00    +0.000 A 
ATOM     12  C   UNL     1      44.369   2.893  10.196  0.00  0.00    +0.000 A 
ATOM     13  C   UNL     1      44.633   3.985  11.026  0.00  0.00    +0.000 A 
ATOM     14  F   UNL     1      44.201   3.904  12.295  0.00  0.00    +0.000 F 
ENDBRANCH   6   8
ENDBRANCH   1   2
BRANCH   1  15
ATOM     15  O   UNL     1      48.504   5.889  14.432  0.00  0.00    +0.000 OA
BRANCH  15  19
ATOM     16  C   UNL     1      48.550   5.271  18.506  0.00  0.00    +0.000 A 
ATOM     17  C   UNL     1      48.842   6.538  17.994  0.00  0.00    +0.000 A 
ATOM     18  C   UNL     1      48.822   6.738  16.613  0.00  0.00    +0.000 A 
ATOM     19  C   UNL     1      48.512   5.661  15.794  0.00  0.00    +0.000 A 
ATOM     20  N   UNL     1      48.231   4.426  16.262  0.00  0.00    +0.000 NA
ATOM     21  C   UNL     1      48.267   4.254  17.606  0.00  0.00    +0.000 A 
BRANCH  16  23
ATOM     22  N   UNL     1      48.490   3.627  20.294  0.00  0.00    +0.000 N 
ATOM     23  C   UNL     1      48.545   4.946  19.947  0.00  0.00    +0.000 C 
ATOM     24  O   UNL     1      48.631   5.821  20.796  0.00  0.00    +0.000 OA
ATOM     25  H   UNL     1      48.603   3.424  21.280  0.00  0.00    +0.000 HD
ATOM     26  H   UNL     1      48.674   2.881  19.640  0.00  0.00    +0.000 HD
ENDBRANCH  16  23
ENDBRANCH  15  19
ENDBRANCH   1  15
TORSDOF 5
ENDMDL
MODEL 7
REMARK VINA RESULT:    -6.936      3.114      7.110
REMARK INTER + INTRA:          -9.877
REMARK INTER:                  -9.303
REMARK INTRA:                  -0.575
REMARK UNBOUND:                -0.914
REMARK  Name = 
REMARK  5 active torsions:
REMARK  status: ('A' for Active; 'I' for Inactive)
REMARK    1  A    between atoms: C_2  and  C_4
REMARK    2  A    between atoms: C_7  and  O_8
REMARK    3  A    between atoms: O_8  and  C_9
REMARK    4  A    between atoms: C_9  and  C_10
REMARK    5  A    between atoms: C_14  and  C_15
REMARK                            x       y       z     vdW  Elec       q    Type
REMARK                         _______ _______ _______ _____ _____    ______ ____
ROOT
ATOM      1  C   UNL     1      45.932   4.675  13.298  0.00  0.00    +0.000 C 
ENDROOT
BRANCH   1   2
ATOM      2  C   UNL     1      45.195   3.815  12.294  0.00  0.00    +0.000 A 
ATOM      3  C   UNL     1      43.889   3.368  12.512  0.00  0.00    +0.000 A 
ATOM      4  C   UNL     1      43.224   2.652  11.522  0.00  0.00    +0.000 A 
ATOM      5  C   UNL     1      43.851   2.392  10.299  0.00  0.00    +0.000 A 
ATOM      6  C   UNL     1      45.150   2.850  10.022  0.00  0.00    +0.000 A 
ATOM      7  C   UNL     1      45.805   3.555  11.050  0.00  0.00    +0.000 A 
BRANCH   6   8
ATOM      8  C   UNL     1      45.793   2.627   8.703  0.00  0.00    +0.000 A 
ATOM      9  C   UNL     1      46.208   1.344   8.294  0.00  0.00    +0.000 A 
ATOM     10  C   UNL     1      46.818   1.130   7.049  0.00  0.00    +0.000 A 
ATOM     11  C   UNL     1      47.019   2.195   6.175  0.00  0.00    +0.000 A 
ATOM     12  C   UNL     1      46.623   3.472   6.553  0.00  0.00    +0.000 A 
ATOM     13  C   UNL     1      46.029   3.679   7.799  0.00  0.00    +0.000 A 
ATOM     14  F   UNL     1      45.701   4.942   8.116  0.00  0.00    +0.000 F 
ENDBRANCH   6   8
ENDBRANCH   1   2
BRANCH   1  15
ATOM     15  O   UNL     1      46.863   5.563  12.669  0.00  0.00    +0.000 OA
BRANCH  15  19
ATOM     16  C   UNL     1      45.226   9.278  11.964  0.00  0.00    +0.000 A 
ATOM     17  C   UNL     1      46.498   9.178  12.532  0.00  0.00    +0.000 A 
ATOM     18  C   UNL     1      47.046   7.915  12.766  0.00  0.00    +0.000 A 
ATOM     19  C   UNL     1      46.297   6.798  12.423  0.00  0.00    +0.000 A 
ATOM     20  N   UNL     1      45.064   6.866  11.878  0.00  0.00    +0.000 NA
ATOM     21  C   UNL     1      44.549   8.103  11.670  0.00  0.00    +0.000 A 
BRANCH  16  23
ATOM     22  N   UNL     1      43.222  10.653  11.981  0.00  0.00    +0.000 N 
ATOM     23  C   UNL     1      44.550  10.560  11.677  0.00  0.00    +0.000 C 
ATOM     24  O   UNL     1      45.164  11.515  11.225  0.00  0.00    +0.000 OA
ATOM     25  H   UNL     1      42.810  11.572  11.883  0.00  0.00    +0.000 HD
ATOM     26  H   UNL     1      42.750   9.991  12.580  0.00  0.00    +0.000 HD
ENDBRANCH  16  23
ENDBRANCH  15  19
ENDBRANCH   1  15
TORSDOF 5
ENDMDL
MODEL 8
REMARK VINA RESULT:    -6.501      5.272      7.665
REMARK INTER + INTRA:          -9.315
REMARK INTER:                  -8.308
REMARK INTRA:                  -1.007
REMARK UNBOUND:                -0.914
REMARK  Name = 
REMARK  5 active torsions:
REMARK  status: ('A' for Active; 'I' for Inactive)
REMARK    1  A    between atoms: C_2  and  C_4
REMARK    2  A    between atoms: C_7  and  O_8
REMARK    3  A    between atoms: O_8  and  C_9
REMARK    4  A    between atoms: C_9  and  C_10
REMARK    5  A    between atoms: C_14  and  C_15
REMARK                            x       y       z     vdW  Elec       q    Type
REMARK                         _______ _______ _______ _____ _____    ______ ____
ROOT
ATOM      1  C   UNL     1      48.864   7.425  15.170  0.00  0.00    +0.000 C 
ENDROOT
BRANCH   1   2
ATOM      2  C   UNL     1      49.082   6.752  16.508  0.00  0.00    +0.000 A 
ATOM      3  C   UNL     1      48.381   7.131  17.656  0.00  0.00    +0.000 A 
ATOM      4  C   UNL     1      48.555   6.425  18.842  0.00  0.00    +0.000 A 
ATOM      5  C   UNL     1      49.415   5.323  18.887  0.00  0.00    +0.000 A 
ATOM      6  C   UNL     1      50.114   4.885  17.750  0.00  0.00    +0.000 A 
ATOM      7  C   UNL     1      49.934   5.631  16.569  0.00  0.00    +0.000 A 
BRANCH   6   8
ATOM      8  C   UNL     1      50.980   3.679  17.781  0.00  0.00    +0.000 A 
ATOM      9  C   UNL     1      52.310   3.740  18.241  0.00  0.00    +0.000 A 
ATOM     10  C   UNL     1      53.131   2.604  18.270  0.00  0.00    +0.000 A 
ATOM     11  C   UNL     1      52.639   1.372  17.847  0.00  0.00    +0.000 A 
ATOM     12  C   UNL     1      51.332   1.282  17.385  0.00  0.00    +0.000 A 
ATOM     13  C   UNL     1      50.525   2.421  17.347  0.00  0.00    +0.000 A 
ATOM     14  F   UNL     1      49.283   2.272  16.857  0.00  0.00    +0.000 F 
ENDBRANCH   6   8
ENDBRANCH   1   2
BRANCH   1  15
ATOM     15  O   UNL     1      48.968   6.505  14.078  0.00  0.00    +0.000 OA
BRANCH  15  19
ATOM     16  C   UNL     1      45.298   4.872  13.156  0.00  0.00    +0.000 A 
ATOM     17  C   UNL     1      45.545   6.221  12.885  0.00  0.00    +0.000 A 
ATOM     18  C   UNL     1      46.792   6.765  13.199  0.00  0.00    +0.000 A 
ATOM     19  C   UNL     1      47.746   5.938  13.775  0.00  0.00    +0.000 A 
ATOM     20  N   UNL     1      47.533   4.634  14.052  0.00  0.00    +0.000 NA
ATOM     21  C   UNL     1      46.311   4.131  13.747  0.00  0.00    +0.000 A 
BRANCH  16  23
ATOM     22  N   UNL     1      44.066   2.872  12.539  0.00  0.00    +0.000 N 
ATOM     23  C   UNL     1      44.017   4.195  12.868  0.00  0.00    +0.000 C 
ATOM     24  O   UNL     1      42.952   4.786  12.963  0.00  0.00    +0.000 OA
ATOM     25  H   UNL     1      43.172   2.403  12.459  0.00  0.00    +0.000 HD
ATOM     26  H   UNL     1      44.881   2.297  12.698  0.00  0.00    +0.000 HD
ENDBRANCH  16  23
ENDBRANCH  15  19
ENDBRANCH   1  15
TORSDOF 5
ENDMDL
MODEL 9
REMARK VINA RESULT:    -6.470      5.370      7.092
REMARK INTER + INTRA:          -9.274
REMARK INTER:                  -8.336
REMARK INTRA:                  -0.939
REMARK UNBOUND:                -0.914
REMARK  Name = 
REMARK  5 active torsions:
REMARK  status: ('A' for Active; 'I' for Inactive)
REMARK    1  A    between atoms: C_2  and  C_4
REMARK    2  A    between atoms: C_7  and  O_8
REMARK    3  A    between atoms: O_8  and  C_9
REMARK    4  A    between atoms: C_9  and  C_10
REMARK    5  A    between atoms: C_14  and  C_15
REMARK                            x       y       z     vdW  Elec       q    Type
REMARK                         _______ _______ _______ _____ _____    ______ ____
ROOT
ATOM      1  C   UNL     1      47.060   4.403  15.830  0.00  0.00    +0.000 C 
ENDROOT
BRANCH   1   2
ATOM      2  C   UNL     1      46.850   4.880  14.409  0.00  0.00    +0.000 A 
ATOM      3  C   UNL     1      45.861   4.344  13.582  0.00  0.00    +0.000 A 
ATOM      4  C   UNL     1      45.651   4.876  12.313  0.00  0.00    +0.000 A 
ATOM      5  C   UNL     1      46.415   5.960  11.868  0.00  0.00    +0.000 A 
ATOM      6  C   UNL     1      47.397   6.554  12.679  0.00  0.00    +0.000 A 
ATOM      7  C   UNL     1      47.600   5.982  13.949  0.00  0.00    +0.000 A 
BRANCH   6   8
ATOM      8  C   UNL     1      48.166   7.742  12.231  0.00  0.00    +0.000 A 
ATOM      9  C   UNL     1      49.517   7.642  11.845  0.00  0.00    +0.000 A 
ATOM     10  C   UNL     1      50.247   8.763  11.424  0.00  0.00    +0.000 A 
ATOM     11  C   UNL     1      49.640  10.015  11.369  0.00  0.00    +0.000 A 
ATOM     12  C   UNL     1      48.309  10.145  11.747  0.00  0.00    +0.000 A 
ATOM     13  C   UNL     1      47.593   9.026  12.178  0.00  0.00    +0.000 A 
ATOM     14  F   UNL     1      46.321   9.227  12.561  0.00  0.00    +0.000 F 
ENDBRANCH   6   8
ENDBRANCH   1   2
BRANCH   1  15
ATOM     15  O   UNL     1      47.485   3.036  15.884  0.00  0.00    +0.000 OA
BRANCH  15  19
ATOM     16  C   UNL     1      51.204   2.741  17.635  0.00  0.00    +0.000 A 
ATOM     17  C   UNL     1      50.438   3.894  17.825  0.00  0.00    +0.000 A 
ATOM     18  C   UNL     1      49.179   3.984  17.230  0.00  0.00    +0.000 A 
ATOM     19  C   UNL     1      48.733   2.917  16.463  0.00  0.00    +0.000 A 
ATOM     20  N   UNL     1      49.454   1.794  16.259  0.00  0.00    +0.000 NA
ATOM     21  C   UNL     1      50.678   1.734  16.839  0.00  0.00    +0.000 A 
BRANCH  16  23
ATOM     22  N   UNL     1      52.923   1.260  18.504  0.00  0.00    +0.000 N 
ATOM     23  C   UNL     1      52.548   2.540  18.214  0.00  0.00    +0.000 C 
ATOM     24  O   UNL     1      53.312   3.478  18.387  0.00  0.00    +0.000 OA
ATOM     25  H   UNL     1      53.886   1.136  18.791  0.00  0.00    +0.000 HD
ATOM     26  H   UNL     1      52.435   0.452  18.146  0.00  0.00    +0.000 HD
ENDBRANCH  16  23
ENDBRANCH  15  19
ENDBRANCH   1  15
TORSDOF 5
ENDMDL
