MODEL 1
REMARK VINA RESULT:    -8.524      0.000      0.000
REMARK INTER + INTRA:         -12.960
REMARK INTER:                 -12.262
REMARK INTRA:                  -0.698
REMARK UNBOUND:                -0.698
REMARK  Name = 
REMARK  9 active torsions:
REMARK  status: ('A' for Active; 'I' for Inactive)
REMARK    1  A    between atoms: C_1  and  C_2
REMARK    2  A    between atoms: C_2  and  O_3
REMARK    3  A    between atoms: O_3  and  C_4
REMARK    4  A    between atoms: C_8  and  C_9
REMARK    5  A    between atoms: C_9  and  C_10
REMARK    6  A    between atoms: C_10  and  N_11
REMARK    7  A    between atoms: N_11  and  C_12
REMARK    8  A    between atoms: C_15  and  C_16
REMARK    9  A    between atoms: C_23  and  O_24
REMARK                            x       y       z     vdW  Elec       q    Type
REMARK                         _______ _______ _______ _____ _____    ______ ____
ROOT
ATOM      1  C   UNL     1      43.572   5.155  12.631  0.00  0.00    +0.000 C 
ENDROOT
BRANCH   1   6
ATOM      2  C   UNL     1      47.150   5.056  14.057  0.00  0.00    +0.000 A 
ATOM      3  C   UNL     1      47.759   6.046  13.294  0.00  0.00    +0.000 A 
ATOM      4  C   UNL     1      47.000   6.787  12.383  0.00  0.00    +0.000 A 
ATOM      5  C   UNL     1      45.644   6.511  12.204  0.00  0.00    +0.000 A 
ATOM      6  C   UNL     1      45.027   5.479  12.921  0.00  0.00    +0.000 A 
ATOM      7  C   UNL     1      45.797   4.772  13.860  0.00  0.00    +0.000 A 
BRANCH   2   8
ATOM      8  O   UNL     1      47.756   4.289  15.023  0.00  0.00    +0.000 OA
BRANCH   8  10
ATOM      9  C   UNL     1      49.070   6.045  16.099  0.00  0.00    +0.000 C 
ATOM     10  C   UNL     1      48.134   4.857  16.304  0.00  0.00    +0.000 C 
ATOM     11  C   UNL     1      47.016   4.988  17.382  0.00  0.00    +0.000 C 
ATOM     12  C   UNL     1      47.497   3.678  18.023  0.00  0.00    +0.000 C 
ATOM     13  C   UNL     1      48.814   3.815  17.247  0.00  0.00    +0.000 C 
BRANCH  12  14
ATOM     14  O   UNL     1      46.717   2.499  17.749  0.00  0.00    +0.000 OA
ATOM     15  H   UNL     1      46.577   2.496  16.785  0.00  0.00    +0.000 HD
ENDBRANCH  12  14
ENDBRANCH   8  10
ENDBRANCH   2   8
ENDBRANCH   1   6
BRANCH   1  16
ATOM     16  C   UNL     1      43.361   4.109  11.532  0.00  0.00    +0.000 C 
BRANCH  16  17
ATOM     17  N   UNL     1      43.684   4.620  10.205  0.00  0.00    +0.000 N 
ATOM     18  H   UNL     1      42.893   4.924   9.646  0.00  0.00    +0.000 HD
BRANCH  17  19
ATOM     19  C   UNL     1      44.665   3.956   9.459  0.00  0.00    +0.000 A 
ATOM     20  C   UNL     1      45.518   4.598   8.551  0.00  0.00    +0.000 A 
ATOM     21  C   UNL     1      46.413   3.878   7.751  0.00  0.00    +0.000 A 
ATOM     22  C   UNL     1      46.454   2.488   7.824  0.00  0.00    +0.000 A 
ATOM     23  C   UNL     1      45.592   1.824   8.700  0.00  0.00    +0.000 A 
ATOM     24  C   UNL     1      44.707   2.554   9.505  0.00  0.00    +0.000 A 
BRANCH  22  25
ATOM     25  C   UNL     1      47.391   1.768   6.914  0.00  0.00    +0.000 C 
ATOM     26  N   UNL     1      48.461   2.472   6.433  0.00  0.00    +0.000 N 
ATOM     27  O   UNL     1      47.199   0.609   6.578  0.00  0.00    +0.000 OA
ATOM     28  H   UNL     1      48.521   3.476   6.481  0.00  0.00    +0.000 HD
ATOM     29  H   UNL     1      49.022   1.996   5.738  0.00  0.00    +0.000 HD
ENDBRANCH  22  25
ENDBRANCH  17  19
ENDBRANCH  16  17
ENDBRANCH   1  16
TORSDOF 8
ENDMDL
MODEL 2
REMARK VINA RESULT:    -8.159      2.423      3.878
REMARK INTER + INTRA:         -12.433
REMARK INTER:                 -11.486
REMARK INTRA:                  -0.948
REMARK UNBOUND:                -0.698
REMARK  Name = 
REMARK  9 active torsions:
REMARK  status: ('A' for Active; 'I' for Inactive)
REMARK    1  A    between atoms: C_1  and  C_2
REMARK    2  A    between atoms: C_2  and  O_3
REMARK    3  A    between atoms: O_3  and  C_4
REMARK    4  A    between atoms: C_8  and  C_9
REMARK    5  A    between atoms: C_9  and  C_10
REMARK    6  A    between atoms: C_10  and  N_11
REMARK    7  A    between atoms: N_11  and  C_12
REMARK    8  A    between atoms: C_15  and  C_16
REMARK    9  A    between atoms: C_23  and  O_24
REMARK                            x       y       z     vdW  Elec       q    Type
REMARK                         _______ _______ _______ _____ _____    ______ ____
ROOT
ATOM      1  C   UNL     1      43.536   5.450  12.354  0.00  0.00    +0.000 C 
ENDROOT
BRANCH   1   6
ATOM      2  C   UNL     1      47.231   6.541  12.439  0.00  0.00    +0.000 A 
ATOM      3  C   UNL     1      47.727   5.692  13.422  0.00  0.00    +0.000 A 
ATOM      4  C   UNL     1      46.892   4.730  13.997  0.00  0.00    +0.000 A 
ATOM      5  C   UNL     1      45.552   4.641  13.618  0.00  0.00    +0.000 A 
ATOM      6  C   UNL     1      45.019   5.525  12.671  0.00  0.00    +0.000 A 
ATOM      7  C   UNL     1      45.884   6.459  12.078  0.00  0.00    +0.000 A 
BRANCH   2   8
ATOM      8  O   UNL     1      47.945   7.493  11.753  0.00  0.00    +0.000 OA
BRANCH   8  10
ATOM      9  C   UNL     1      47.885   9.465  13.195  0.00  0.00    +0.000 C 
ATOM     10  C   UNL     1      48.767   8.463  12.453  0.00  0.00    +0.000 C 
ATOM     11  C   UNL     1      50.033   7.926  13.186  0.00  0.00    +0.000 C 
ATOM     12  C   UNL     1      50.890   8.338  11.980  0.00  0.00    +0.000 C 
ATOM     13  C   UNL     1      49.738   9.229  11.501  0.00  0.00    +0.000 C 
BRANCH  12  14
ATOM     14  O   UNL     1      51.295   7.285  11.084  0.00  0.00    +0.000 OA
ATOM     15  H   UNL     1      50.468   6.880  10.766  0.00  0.00    +0.000 HD
ENDBRANCH  12  14
ENDBRANCH   8  10
ENDBRANCH   2   8
ENDBRANCH   1   6
BRANCH   1  16
ATOM     16  C   UNL     1      43.173   4.458  11.245  0.00  0.00    +0.000 C 
BRANCH  16  17
ATOM     17  N   UNL     1      43.673   4.870   9.940  0.00  0.00    +0.000 N 
ATOM     18  H   UNL     1      43.014   5.377   9.356  0.00  0.00    +0.000 HD
BRANCH  17  19
ATOM     19  C   UNL     1      44.471   3.972   9.220  0.00  0.00    +0.000 A 
ATOM     20  C   UNL     1      44.469   2.588   9.433  0.00  0.00    +0.000 A 
ATOM     21  C   UNL     1      45.359   1.741   8.762  0.00  0.00    +0.000 A 
ATOM     22  C   UNL     1      46.296   2.271   7.877  0.00  0.00    +0.000 A 
ATOM     23  C   UNL     1      46.336   3.652   7.671  0.00  0.00    +0.000 A 
ATOM     24  C   UNL     1      45.433   4.490   8.339  0.00  0.00    +0.000 A 
BRANCH  22  25
ATOM     25  C   UNL     1      47.252   1.330   7.226  0.00  0.00    +0.000 C 
ATOM     26  N   UNL     1      48.318   1.877   6.565  0.00  0.00    +0.000 N 
ATOM     27  O   UNL     1      47.078   0.120   7.244  0.00  0.00    +0.000 OA
ATOM     28  H   UNL     1      48.364   2.852   6.316  0.00  0.00    +0.000 HD
ATOM     29  H   UNL     1      48.893   1.227   6.045  0.00  0.00    +0.000 HD
ENDBRANCH  22  25
ENDBRANCH  17  19
ENDBRANCH  16  17
ENDBRANCH   1  16
TORSDOF 8
ENDMDL
MODEL 3
REMARK VINA RESULT:    -7.814      1.974      2.741
REMARK INTER + INTRA:         -11.937
REMARK INTER:                 -10.851
REMARK INTRA:                  -1.086
REMARK UNBOUND:                -0.698
REMARK  Name = 
REMARK  9 active torsions:
REMARK  status: ('A' for Active; 'I' for Inactive)
REMARK    1  A    between atoms: C_1  and  C_2
REMARK    2  A    between atoms: C_2  and  O_3
REMARK    3  A    between atoms: O_3  and  C_4
REMARK    4  A    between atoms: C_8  and  C_9
REMARK    5  A    between atoms: C_9  and  C_10
REMARK    6  A    between atoms: C_10  and  N_11
REMARK    7  A    between atoms: N_11  and  C_12
REMARK    8  A    between atoms: C_15  and  C_16
REMARK    9  A    between atoms: C_23  and  O_24
REMARK                            x       y       z     vdW  Elec       q    Type
REMARK                         _______ _______ _______ _____ _____    ______ ____
ROOT
ATOM      1  C   UNL     1      45.323   4.918  11.881  0.00  0.00    +0.000 C 
ENDROOT
BRANCH   1   6
ATOM      2  C   UNL     1      47.751   7.848  12.487  0.00  0.00    +0.000 A 
ATOM      3  C   UNL     1      46.902   8.931  12.289  0.00  0.00    +0.000 A 
ATOM      4  C   UNL     1      45.545   8.713  12.036  0.00  0.00    +0.000 A 
ATOM      5  C   UNL     1      45.043   7.415  11.941  0.00  0.00    +0.000 A 
ATOM      6  C   UNL     1      45.894   6.311  12.080  0.00  0.00    +0.000 A 
ATOM      7  C   UNL     1      47.247   6.551  12.372  0.00  0.00    +0.000 A 
BRANCH   2   8
ATOM      8  O   UNL     1      49.089   7.911  12.793  0.00  0.00    +0.000 OA
BRANCH   8  10
ATOM      9  C   UNL     1      50.157   9.873  13.784  0.00  0.00    +0.000 C 
ATOM     10  C   UNL     1      49.546   8.497  14.040  0.00  0.00    +0.000 C 
ATOM     11  C   UNL     1      48.624   8.330  15.285  0.00  0.00    +0.000 C 
ATOM     12  C   UNL     1      49.477   7.137  15.741  0.00  0.00    +0.000 C 
ATOM     13  C   UNL     1      50.583   7.597  14.784  0.00  0.00    +0.000 C 
BRANCH  12  14
ATOM     14  O   UNL     1      48.934   5.824  15.502  0.00  0.00    +0.000 OA
ATOM     15  H   UNL     1      48.726   5.462  16.382  0.00  0.00    +0.000 HD
ENDBRANCH  12  14
ENDBRANCH   8  10
ENDBRANCH   2   8
ENDBRANCH   1   6
BRANCH   1  16
ATOM     16  C   UNL     1      43.867   4.890  11.405  0.00  0.00    +0.000 C 
BRANCH  16  17
ATOM     17  N   UNL     1      43.755   4.775   9.956  0.00  0.00    +0.000 N 
ATOM     18  H   UNL     1      42.812   4.658   9.596  0.00  0.00    +0.000 HD
BRANCH  17  19
ATOM     19  C   UNL     1      44.706   4.006   9.275  0.00  0.00    +0.000 A 
ATOM     20  C   UNL     1      45.629   4.538   8.366  0.00  0.00    +0.000 A 
ATOM     21  C   UNL     1      46.492   3.717   7.631  0.00  0.00    +0.000 A 
ATOM     22  C   UNL     1      46.429   2.332   7.772  0.00  0.00    +0.000 A 
ATOM     23  C   UNL     1      45.496   1.778   8.651  0.00  0.00    +0.000 A 
ATOM     24  C   UNL     1      44.644   2.608   9.390  0.00  0.00    +0.000 A 
BRANCH  22  25
ATOM     25  C   UNL     1      47.337   1.502   6.929  0.00  0.00    +0.000 C 
ATOM     26  N   UNL     1      48.423   2.125   6.377  0.00  0.00    +0.000 N 
ATOM     27  O   UNL     1      47.109   0.323   6.705  0.00  0.00    +0.000 OA
ATOM     28  H   UNL     1      48.511   3.128   6.329  0.00  0.00    +0.000 HD
ATOM     29  H   UNL     1      48.964   1.570   5.727  0.00  0.00    +0.000 HD
ENDBRANCH  22  25
ENDBRANCH  17  19
ENDBRANCH  16  17
ENDBRANCH   1  16
TORSDOF 8
ENDMDL
MODEL 4
REMARK VINA RESULT:    -7.644      1.914      2.376
REMARK INTER + INTRA:         -11.693
REMARK INTER:                 -10.838
REMARK INTRA:                  -0.855
REMARK UNBOUND:                -0.698
REMARK  Name = 
REMARK  9 active torsions:
REMARK  status: ('A' for Active; 'I' for Inactive)
REMARK    1  A    between atoms: C_1  and  C_2
REMARK    2  A    between atoms: C_2  and  O_3
REMARK    3  A    between atoms: O_3  and  C_4
REMARK    4  A    between atoms: C_8  and  C_9
REMARK    5  A    between atoms: C_9  and  C_10
REMARK    6  A    between atoms: C_10  and  N_11
REMARK    7  A    between atoms: N_11  and  C_12
REMARK    8  A    between atoms: C_15  and  C_16
REMARK    9  A    between atoms: C_23  and  O_24
REMARK                            x       y       z     vdW  Elec       q    Type
REMARK                         _______ _______ _______ _____ _____    ______ ____
ROOT
ATOM      1  C   UNL     1      45.423   5.366  12.021  0.00  0.00    +0.000 C 
ENDROOT
BRANCH   1   6
ATOM      2  C   UNL     1      48.676   6.492  13.752  0.00  0.00    +0.000 A 
ATOM      3  C   UNL     1      49.163   7.399  12.818  0.00  0.00    +0.000 A 
ATOM      4  C   UNL     1      48.411   7.697  11.678  0.00  0.00    +0.000 A 
ATOM      5  C   UNL     1      47.191   7.059  11.451  0.00  0.00    +0.000 A 
ATOM      6  C   UNL     1      46.710   6.099  12.351  0.00  0.00    +0.000 A 
ATOM      7  C   UNL     1      47.464   5.843  13.510  0.00  0.00    +0.000 A 
BRANCH   2   8
ATOM      8  O   UNL     1      49.279   6.144  14.936  0.00  0.00    +0.000 OA
BRANCH   8  10
ATOM      9  C   UNL     1      51.032   7.782  15.401  0.00  0.00    +0.000 C 
ATOM     10  C   UNL     1      49.723   7.156  15.878  0.00  0.00    +0.000 C 
ATOM     11  C   UNL     1      48.636   8.103  16.470  0.00  0.00    +0.000 C 
ATOM     12  C   UNL     1      48.569   7.221  17.725  0.00  0.00    +0.000 C 
ATOM     13  C   UNL     1      49.910   6.594  17.322  0.00  0.00    +0.000 C 
BRANCH  12  14
ATOM     14  O   UNL     1      47.450   6.319  17.824  0.00  0.00    +0.000 OA
ATOM     15  H   UNL     1      47.712   5.646  18.478  0.00  0.00    +0.000 HD
ENDBRANCH  12  14
ENDBRANCH   8  10
ENDBRANCH   2   8
ENDBRANCH   1   6
BRANCH   1  16
ATOM     16  C   UNL     1      44.626   5.973  10.861  0.00  0.00    +0.000 C 
BRANCH  16  17
ATOM     17  N   UNL     1      43.868   4.973  10.121  0.00  0.00    +0.000 N 
ATOM     18  H   UNL     1      43.048   4.603  10.593  0.00  0.00    +0.000 HD
BRANCH  17  19
ATOM     19  C   UNL     1      44.574   4.003   9.399  0.00  0.00    +0.000 A 
ATOM     20  C   UNL     1      44.490   2.629   9.658  0.00  0.00    +0.000 A 
ATOM     21  C   UNL     1      45.293   1.704   8.979  0.00  0.00    +0.000 A 
ATOM     22  C   UNL     1      46.224   2.143   8.040  0.00  0.00    +0.000 A 
ATOM     23  C   UNL     1      46.345   3.512   7.787  0.00  0.00    +0.000 A 
ATOM     24  C   UNL     1      45.529   4.428   8.463  0.00  0.00    +0.000 A 
BRANCH  22  25
ATOM     25  C   UNL     1      47.088   1.121   7.382  0.00  0.00    +0.000 C 
ATOM     26  N   UNL     1      46.816  -0.193   7.646  0.00  0.00    +0.000 N 
ATOM     27  O   UNL     1      48.026   1.436   6.664  0.00  0.00    +0.000 OA
ATOM     28  H   UNL     1      46.228  -0.486   8.410  0.00  0.00    +0.000 HD
ATOM     29  H   UNL     1      47.478  -0.862   7.274  0.00  0.00    +0.000 HD
ENDBRANCH  22  25
ENDBRANCH  17  19
ENDBRANCH  16  17
ENDBRANCH   1  16
TORSDOF 8
ENDMDL
MODEL 5
REMARK VINA RESULT:    -7.490      2.720      4.318
REMARK INTER + INTRA:         -11.472
REMARK INTER:                 -10.583
REMARK INTRA:                  -0.889
REMARK UNBOUND:                -0.698
REMARK  Name = 
REMARK  9 active torsions:
REMARK  status: ('A' for Active; 'I' for Inactive)
REMARK    1  A    between atoms: C_1  and  C_2
REMARK    2  A    between atoms: C_2  and  O_3
REMARK    3  A    between atoms: O_3  and  C_4
REMARK    4  A    between atoms: C_8  and  C_9
REMARK    5  A    between atoms: C_9  and  C_10
REMARK    6  A    between atoms: C_10  and  N_11
REMARK    7  A    between atoms: N_11  and  C_12
REMARK    8  A    between atoms: C_15  and  C_16
REMARK    9  A    between atoms: C_23  and  O_24
REMARK                            x       y       z     vdW  Elec       q    Type
REMARK                         _______ _______ _______ _____ _____    ______ ____
ROOT
ATOM      1  C   UNL     1      44.975   5.054  12.018  0.00  0.00    +0.000 C 
ENDROOT
BRANCH   1   6
ATOM      2  C   UNL     1      48.138   7.238  12.291  0.00  0.00    +0.000 A 
ATOM      3  C   UNL     1      48.589   6.881  13.557  0.00  0.00    +0.000 A 
ATOM      4  C   UNL     1      47.918   5.891  14.281  0.00  0.00    +0.000 A 
ATOM      5  C   UNL     1      46.774   5.287  13.759  0.00  0.00    +0.000 A 
ATOM      6  C   UNL     1      46.271   5.674  12.510  0.00  0.00    +0.000 A 
ATOM      7  C   UNL     1      46.983   6.643  11.782  0.00  0.00    +0.000 A 
BRANCH   2   8
ATOM      8  O   UNL     1      48.725   8.150  11.449  0.00  0.00    +0.000 OA
BRANCH   8  10
ATOM      9  C   UNL     1      50.454   9.644  12.316  0.00  0.00    +0.000 C 
ATOM     10  C   UNL     1      48.995   9.509  11.885  0.00  0.00    +0.000 C 
ATOM     11  C   UNL     1      48.376  10.663  11.041  0.00  0.00    +0.000 C 
ATOM     12  C   UNL     1      47.220  10.761  12.047  0.00  0.00    +0.000 C 
ATOM     13  C   UNL     1      48.063   9.964  13.050  0.00  0.00    +0.000 C 
BRANCH  12  14
ATOM     14  O   UNL     1      45.968  10.167  11.655  0.00  0.00    +0.000 OA
ATOM     15  H   UNL     1      46.163   9.227  11.492  0.00  0.00    +0.000 HD
ENDBRANCH  12  14
ENDBRANCH   8  10
ENDBRANCH   2   8
ENDBRANCH   1   6
BRANCH   1  16
ATOM     16  C   UNL     1      44.285   5.833  10.894  0.00  0.00    +0.000 C 
BRANCH  16  17
ATOM     17  N   UNL     1      43.790   4.964   9.834  0.00  0.00    +0.000 N 
ATOM     18  H   UNL     1      42.847   4.607   9.962  0.00  0.00    +0.000 HD
BRANCH  17  19
ATOM     19  C   UNL     1      44.667   4.023   9.282  0.00  0.00    +0.000 A 
ATOM     20  C   UNL     1      45.650   4.338   8.336  0.00  0.00    +0.000 A 
ATOM     21  C   UNL     1      46.435   3.347   7.735  0.00  0.00    +0.000 A 
ATOM     22  C   UNL     1      46.231   2.006   8.051  0.00  0.00    +0.000 A 
ATOM     23  C   UNL     1      45.236   1.665   8.970  0.00  0.00    +0.000 A 
ATOM     24  C   UNL     1      44.463   2.665   9.575  0.00  0.00    +0.000 A 
BRANCH  22  25
ATOM     25  C   UNL     1      47.061   0.987   7.346  0.00  0.00    +0.000 C 
ATOM     26  N   UNL     1      46.776  -0.329   7.586  0.00  0.00    +0.000 N 
ATOM     27  O   UNL     1      47.984   1.306   6.612  0.00  0.00    +0.000 OA
ATOM     28  H   UNL     1      46.204  -0.632   8.358  0.00  0.00    +0.000 HD
ATOM     29  H   UNL     1      47.417  -0.998   7.180  0.00  0.00    +0.000 HD
ENDBRANCH  22  25
ENDBRANCH  17  19
ENDBRANCH  16  17
ENDBRANCH   1  16
TORSDOF 8
ENDMDL
MODEL 6
REMARK VINA RESULT:    -7.246      2.744      7.772
REMARK INTER + INTRA:         -11.121
REMARK INTER:                  -9.976
REMARK INTRA:                  -1.145
REMARK UNBOUND:                -0.698
REMARK  Name = 
REMARK  9 active torsions:
REMARK  status: ('A' for Active; 'I' for Inactive)
REMARK    1  A    between atoms: C_1  and  C_2
REMARK    2  A    between atoms: C_2  and  O_3
REMARK    3  A    between atoms: O_3  and  C_4
REMARK    4  A    between atoms: C_8  and  C_9
REMARK    5  A    between atoms: C_9  and  C_10
REMARK    6  A    between atoms: C_10  and  N_11
REMARK    7  A    between atoms: N_11  and  C_12
REMARK    8  A    between atoms: C_15  and  C_16
REMARK    9  A    between atoms: C_23  and  O_24
REMARK                            x       y       z     vdW  Elec       q    Type
REMARK                         _______ _______ _______ _____ _____    ______ ____
ROOT
ATOM      1  C   UNL     1      46.023   7.665  11.765  0.00  0.00    +0.000 C 
ENDROOT
BRANCH   1   6
ATOM      2  C   UNL     1      44.804   4.196  10.613  0.00  0.00    +0.000 A 
ATOM      3  C   UNL     1      43.443   4.300  10.879  0.00  0.00    +0.000 A 
ATOM      4  C   UNL     1      42.917   5.504  11.355  0.00  0.00    +0.000 A 
ATOM      5  C   UNL     1      43.756   6.591  11.604  0.00  0.00    +0.000 A 
ATOM      6  C   UNL     1      45.137   6.488  11.398  0.00  0.00    +0.000 A 
ATOM      7  C   UNL     1      45.640   5.281  10.882  0.00  0.00    +0.000 A 
BRANCH   2   8
ATOM      8  O   UNL     1      45.448   3.099  10.095  0.00  0.00    +0.000 OA
BRANCH   8  10
ATOM      9  C   UNL     1      44.218   1.323   8.952  0.00  0.00    +0.000 C 
ATOM     10  C   UNL     1      45.092   2.565   8.792  0.00  0.00    +0.000 C 
ATOM     11  C   UNL     1      44.705   3.590   7.685  0.00  0.00    +0.000 C 
ATOM     12  C   UNL     1      46.134   3.510   7.128  0.00  0.00    +0.000 C 
ATOM     13  C   UNL     1      46.341   2.215   7.924  0.00  0.00    +0.000 C 
BRANCH  12  14
ATOM     14  O   UNL     1      47.017   4.602   7.450  0.00  0.00    +0.000 OA
ATOM     15  H   UNL     1      46.436   5.356   7.659  0.00  0.00    +0.000 HD
ENDBRANCH  12  14
ENDBRANCH   8  10
ENDBRANCH   2   8
ENDBRANCH   1   6
BRANCH   1  16
ATOM     16  C   UNL     1      47.500   7.312  11.961  0.00  0.00    +0.000 C 
BRANCH  16  17
ATOM     17  N   UNL     1      47.958   7.555  13.323  0.00  0.00    +0.000 N 
ATOM     18  H   UNL     1      48.788   8.133  13.412  0.00  0.00    +0.000 HD
BRANCH  17  19
ATOM     19  C   UNL     1      47.925   6.493  14.235  0.00  0.00    +0.000 A 
ATOM     20  C   UNL     1      47.129   5.352  14.071  0.00  0.00    +0.000 A 
ATOM     21  C   UNL     1      47.050   4.364  15.059  0.00  0.00    +0.000 A 
ATOM     22  C   UNL     1      47.750   4.513  16.255  0.00  0.00    +0.000 A 
ATOM     23  C   UNL     1      48.526   5.657  16.453  0.00  0.00    +0.000 A 
ATOM     24  C   UNL     1      48.608   6.635  15.453  0.00  0.00    +0.000 A 
BRANCH  22  25
ATOM     25  C   UNL     1      47.592   3.454  17.293  0.00  0.00    +0.000 C 
ATOM     26  N   UNL     1      48.708   3.101  18.001  0.00  0.00    +0.000 N 
ATOM     27  O   UNL     1      46.523   2.895  17.485  0.00  0.00    +0.000 OA
ATOM     28  H   UNL     1      49.640   3.349  17.713  0.00  0.00    +0.000 HD
ATOM     29  H   UNL     1      48.600   2.310  18.625  0.00  0.00    +0.000 HD
ENDBRANCH  22  25
ENDBRANCH  17  19
ENDBRANCH  16  17
ENDBRANCH   1  16
TORSDOF 8
ENDMDL
MODEL 7
REMARK VINA RESULT:    -7.054      1.557      2.084
REMARK INTER + INTRA:         -10.844
REMARK INTER:                 -10.170
REMARK INTRA:                  -0.675
REMARK UNBOUND:                -0.698
REMARK  Name = 
REMARK  9 active torsions:
REMARK  status: ('A' for Active; 'I' for Inactive)
REMARK    1  A    between atoms: C_1  and  C_2
REMARK    2  A    between atoms: C_2  and  O_3
REMARK    3  A    between atoms: O_3  and  C_4
REMARK    4  A    between atoms: C_8  and  C_9
REMARK    5  A    between atoms: C_9  and  C_10
REMARK    6  A    between atoms: C_10  and  N_11
REMARK    7  A    between atoms: N_11  and  C_12
REMARK    8  A    between atoms: C_15  and  C_16
REMARK    9  A    between atoms: C_23  and  O_24
REMARK                            x       y       z     vdW  Elec       q    Type
REMARK                         _______ _______ _______ _____ _____    ______ ____
ROOT
ATOM      1  C   UNL     1      45.935   4.055  12.526  0.00  0.00    +0.000 C 
ENDROOT
BRANCH   1   6
ATOM      2  C   UNL     1      47.762   5.266  15.695  0.00  0.00    +0.000 A 
ATOM      3  C   UNL     1      48.489   6.334  15.181  0.00  0.00    +0.000 A 
ATOM      4  C   UNL     1      48.332   6.702  13.841  0.00  0.00    +0.000 A 
ATOM      5  C   UNL     1      47.480   5.979  13.006  0.00  0.00    +0.000 A 
ATOM      6  C   UNL     1      46.783   4.865  13.491  0.00  0.00    +0.000 A 
ATOM      7  C   UNL     1      46.925   4.536  14.850  0.00  0.00    +0.000 A 
BRANCH   2   8
ATOM      8  O   UNL     1      47.776   4.828  16.997  0.00  0.00    +0.000 OA
BRANCH   8  10
ATOM      9  C   UNL     1      48.619   2.537  16.874  0.00  0.00    +0.000 C 
ATOM     10  C   UNL     1      48.810   3.928  17.475  0.00  0.00    +0.000 C 
ATOM     11  C   UNL     1      50.260   4.491  17.560  0.00  0.00    +0.000 C 
ATOM     12  C   UNL     1      50.055   4.762  19.057  0.00  0.00    +0.000 C 
ATOM     13  C   UNL     1      48.843   3.821  19.032  0.00  0.00    +0.000 C 
BRANCH  12  14
ATOM     14  O   UNL     1      49.793   6.126  19.439  0.00  0.00    +0.000 OA
ATOM     15  H   UNL     1      49.329   6.075  20.294  0.00  0.00    +0.000 HD
ENDBRANCH  12  14
ENDBRANCH   8  10
ENDBRANCH   2   8
ENDBRANCH   1   6
BRANCH   1  16
ATOM     16  C   UNL     1      44.680   4.775  12.025  0.00  0.00    +0.000 C 
BRANCH  16  17
ATOM     17  N   UNL     1      44.090   4.127  10.861  0.00  0.00    +0.000 N 
ATOM     18  H   UNL     1      43.394   3.414  11.059  0.00  0.00    +0.000 HD
BRANCH  17  19
ATOM     19  C   UNL     1      44.928   3.796   9.788  0.00  0.00    +0.000 A 
ATOM     20  C   UNL     1      45.525   4.745   8.948  0.00  0.00    +0.000 A 
ATOM     21  C   UNL     1      46.271   4.364   7.827  0.00  0.00    +0.000 A 
ATOM     22  C   UNL     1      46.411   3.016   7.504  0.00  0.00    +0.000 A 
ATOM     23  C   UNL     1      45.799   2.054   8.310  0.00  0.00    +0.000 A 
ATOM     24  C   UNL     1      45.064   2.444   9.437  0.00  0.00    +0.000 A 
BRANCH  22  25
ATOM     25  C   UNL     1      47.175   2.669   6.271  0.00  0.00    +0.000 C 
ATOM     26  N   UNL     1      48.531   2.539   6.390  0.00  0.00    +0.000 N 
ATOM     27  O   UNL     1      46.624   2.541   5.187  0.00  0.00    +0.000 OA
ATOM     28  H   UNL     1      49.044   2.874   7.189  0.00  0.00    +0.000 HD
ATOM     29  H   UNL     1      49.037   2.407   5.523  0.00  0.00    +0.000 HD
ENDBRANCH  22  25
ENDBRANCH  17  19
ENDBRANCH  16  17
ENDBRANCH   1  16
TORSDOF 8
ENDMDL
MODEL 8
REMARK VINA RESULT:    -6.998      4.207      7.945
REMARK INTER + INTRA:         -10.764
REMARK INTER:                  -9.752
REMARK INTRA:                  -1.012
REMARK UNBOUND:                -0.698
REMARK  Name = 
REMARK  9 active torsions:
REMARK  status: ('A' for Active; 'I' for Inactive)
REMARK    1  A    between atoms: C_1  and  C_2
REMARK    2  A    between atoms: C_2  and  O_3
REMARK    3  A    between atoms: O_3  and  C_4
REMARK    4  A    between atoms: C_8  and  C_9
REMARK    5  A    between atoms: C_9  and  C_10
REMARK    6  A    between atoms: C_10  and  N_11
REMARK    7  A    between atoms: N_11  and  C_12
REMARK    8  A    between atoms: C_15  and  C_16
REMARK    9  A    between atoms: C_23  and  O_24
REMARK                            x       y       z     vdW  Elec       q    Type
REMARK                         _______ _______ _______ _____ _____    ______ ____
ROOT
ATOM      1  C   UNL     1      48.981   6.947  14.502  0.00  0.00    +0.000 C 
ENDROOT
BRANCH   1   6
ATOM      2  C   UNL     1      45.949   6.596  12.150  0.00  0.00    +0.000 A 
ATOM      3  C   UNL     1      45.399   7.869  12.247  0.00  0.00    +0.000 A 
ATOM      4  C   UNL     1      46.045   8.850  13.005  0.00  0.00    +0.000 A 
ATOM      5  C   UNL     1      47.217   8.548  13.699  0.00  0.00    +0.000 A 
ATOM      6  C   UNL     1      47.754   7.255  13.661  0.00  0.00    +0.000 A 
ATOM      7  C   UNL     1      47.111   6.294  12.862  0.00  0.00    +0.000 A 
BRANCH   2   8
ATOM      8  O   UNL     1      45.455   5.554  11.403  0.00  0.00    +0.000 OA
BRANCH   8  10
ATOM      9  C   UNL     1      45.163   3.267  12.213  0.00  0.00    +0.000 C 
ATOM     10  C   UNL     1      44.496   4.618  11.961  0.00  0.00    +0.000 C 
ATOM     11  C   UNL     1      43.520   5.162  13.047  0.00  0.00    +0.000 C 
ATOM     12  C   UNL     1      42.442   5.346  11.969  0.00  0.00    +0.000 C 
ATOM     13  C   UNL     1      43.246   4.419  11.047  0.00  0.00    +0.000 C 
BRANCH  12  14
ATOM     14  O   UNL     1      42.227   6.687  11.491  0.00  0.00    +0.000 OA
ATOM     15  H   UNL     1      41.260   6.802  11.459  0.00  0.00    +0.000 HD
ENDBRANCH  12  14
ENDBRANCH   8  10
ENDBRANCH   2   8
ENDBRANCH   1   6
BRANCH   1  16
ATOM     16  C   UNL     1      48.873   7.385  15.966  0.00  0.00    +0.000 C 
BRANCH  16  17
ATOM     17  N   UNL     1      48.384   6.321  16.833  0.00  0.00    +0.000 N 
ATOM     18  H   UNL     1      47.818   6.620  17.622  0.00  0.00    +0.000 HD
BRANCH  17  19
ATOM     19  C   UNL     1      49.252   5.267  17.146  0.00  0.00    +0.000 A 
ATOM     20  C   UNL     1      50.631   5.425  17.334  0.00  0.00    +0.000 A 
ATOM     21  C   UNL     1      51.473   4.327  17.542  0.00  0.00    +0.000 A 
ATOM     22  C   UNL     1      50.953   3.035  17.538  0.00  0.00    +0.000 A 
ATOM     23  C   UNL     1      49.585   2.851  17.322  0.00  0.00    +0.000 A 
ATOM     24  C   UNL     1      48.748   3.957  17.126  0.00  0.00    +0.000 A 
BRANCH  22  25
ATOM     25  C   UNL     1      51.902   1.898  17.715  0.00  0.00    +0.000 C 
ATOM     26  N   UNL     1      51.364   0.646  17.829  0.00  0.00    +0.000 N 
ATOM     27  O   UNL     1      53.109   2.074  17.794  0.00  0.00    +0.000 OA
ATOM     28  H   UNL     1      50.388   0.485  18.018  0.00  0.00    +0.000 HD
ATOM     29  H   UNL     1      52.018  -0.094  18.053  0.00  0.00    +0.000 HD
ENDBRANCH  22  25
ENDBRANCH  17  19
ENDBRANCH  16  17
ENDBRANCH   1  16
TORSDOF 8
ENDMDL
MODEL 9
REMARK VINA RESULT:    -6.813      2.800      4.249
REMARK INTER + INTRA:         -10.497
REMARK INTER:                  -9.390
REMARK INTRA:                  -1.107
REMARK UNBOUND:                -0.698
REMARK  Name = 
REMARK  9 active torsions:
REMARK  status: ('A' for Active; 'I' for Inactive)
REMARK    1  A    between atoms: C_1  and  C_2
REMARK    2  A    between atoms: C_2  and  O_3
REMARK    3  A    between atoms: O_3  and  C_4
REMARK    4  A    between atoms: C_8  and  C_9
REMARK    5  A    between atoms: C_9  and  C_10
REMARK    6  A    between atoms: C_10  and  N_11
REMARK    7  A    between atoms: N_11  and  C_12
REMARK    8  A    between atoms: C_15  and  C_16
REMARK    9  A    between atoms: C_23  and  O_24
REMARK                            x       y       z     vdW  Elec       q    Type
REMARK                         _______ _______ _______ _____ _____    ______ ____
ROOT
ATOM      1  C   UNL     1      48.521   8.123  12.723  0.00  0.00    +0.000 C 
ENDROOT
BRANCH   1   6
ATOM      2  C   UNL     1      49.294   6.593  16.174  0.00  0.00    +0.000 A 
ATOM      3  C   UNL     1      49.380   7.742  16.952  0.00  0.00    +0.000 A 
ATOM      4  C   UNL     1      49.118   8.991  16.380  0.00  0.00    +0.000 A 
ATOM      5  C   UNL     1      48.809   9.095  15.023  0.00  0.00    +0.000 A 
ATOM      6  C   UNL     1      48.774   7.954  14.211  0.00  0.00    +0.000 A 
ATOM      7  C   UNL     1      49.003   6.706  14.813  0.00  0.00    +0.000 A 
BRANCH   2   8
ATOM      8  O   UNL     1      49.473   5.303  16.611  0.00  0.00    +0.000 OA
BRANCH   8  10
ATOM      9  C   UNL     1      47.585   5.428  18.157  0.00  0.00    +0.000 C 
ATOM     10  C   UNL     1      48.378   4.549  17.193  0.00  0.00    +0.000 C 
ATOM     11  C   UNL     1      47.579   3.607  16.243  0.00  0.00    +0.000 C 
ATOM     12  C   UNL     1      48.420   2.419  16.733  0.00  0.00    +0.000 C 
ATOM     13  C   UNL     1      48.859   3.263  17.936  0.00  0.00    +0.000 C 
BRANCH  12  14
ATOM     14  O   UNL     1      49.470   1.964  15.859  0.00  0.00    +0.000 OA
ATOM     15  H   UNL     1      50.039   1.393  16.406  0.00  0.00    +0.000 HD
ENDBRANCH  12  14
ENDBRANCH   8  10
ENDBRANCH   2   8
ENDBRANCH   1   6
BRANCH   1  16
ATOM     16  C   UNL     1      47.074   8.474  12.361  0.00  0.00    +0.000 C 
BRANCH  16  17
ATOM     17  N   UNL     1      46.103   7.682  13.105  0.00  0.00    +0.000 N 
ATOM     18  H   UNL     1      46.252   7.633  14.109  0.00  0.00    +0.000 HD
BRANCH  17  19
ATOM     19  C   UNL     1      45.668   6.472  12.551  0.00  0.00    +0.000 A 
ATOM     20  C   UNL     1      45.362   6.305  11.194  0.00  0.00    +0.000 A 
ATOM     21  C   UNL     1      44.831   5.105  10.705  0.00  0.00    +0.000 A 
ATOM     22  C   UNL     1      44.568   4.050  11.576  0.00  0.00    +0.000 A 
ATOM     23  C   UNL     1      44.838   4.205  12.937  0.00  0.00    +0.000 A 
ATOM     24  C   UNL     1      45.379   5.405  13.416  0.00  0.00    +0.000 A 
BRANCH  22  25
ATOM     25  C   UNL     1      43.958   2.812  11.010  0.00  0.00    +0.000 C 
ATOM     26  N   UNL     1      44.531   2.290   9.883  0.00  0.00    +0.000 N 
ATOM     27  O   UNL     1      42.964   2.301  11.503  0.00  0.00    +0.000 OA
ATOM     28  H   UNL     1      45.181   2.806   9.311  0.00  0.00    +0.000 HD
ATOM     29  H   UNL     1      44.039   1.514   9.459  0.00  0.00    +0.000 HD
ENDBRANCH  22  25
ENDBRANCH  17  19
ENDBRANCH  16  17
ENDBRANCH   1  16
TORSDOF 8
ENDMDL
