MODEL 1
REMARK VINA RESULT:    -8.315      0.000      0.000
REMARK INTER + INTRA:         -12.855
REMARK INTER:                 -11.718
REMARK INTRA:                  -1.136
REMARK UNBOUND:                -1.136
REMARK  Name = 
REMARK  10 active torsions:
REMARK  status: ('A' for Active; 'I' for Inactive)
REMARK    1  A    between atoms: C_1  and  O_2
REMARK    2  A    between atoms: O_2  and  C_3
REMARK    3  A    between atoms: C_6  and  C_7
REMARK    4  A    between atoms: C_11  and  C_12
REMARK    5  A    between atoms: C_12  and  C_13
REMARK    6  A    between atoms: C_12  and  C_14
REMARK    7  A    between atoms: C_12  and  C_15
REMARK    8  A    between atoms: C_15  and  N_16
REMARK    9  A    between atoms: N_16  and  C_17
REMARK   10  A    between atoms: C_20  and  C_21
REMARK                            x       y       z     vdW  Elec       q    Type
REMARK                         _______ _______ _______ _____ _____    ______ ____
ROOT
ATOM      1  C   UNL     1      43.820   4.722  11.952  0.00  0.00    +0.000 C 
ATOM      2  C   UNL     1      43.722   3.287  12.525  0.00  0.00    +0.000 C 
ATOM      3  C   UNL     1      42.657   5.562  12.536  0.00  0.00    +0.000 C 
ENDROOT
BRANCH   1   8
ATOM      4  C   UNL     1      47.055   5.441  13.971  0.00  0.00    +0.000 A 
ATOM      5  C   UNL     1      47.765   6.213  13.044  0.00  0.00    +0.000 A 
ATOM      6  C   UNL     1      47.180   6.598  11.839  0.00  0.00    +0.000 A 
ATOM      7  C   UNL     1      45.902   6.150  11.506  0.00  0.00    +0.000 A 
ATOM      8  C   UNL     1      45.162   5.344  12.386  0.00  0.00    +0.000 A 
ATOM      9  C   UNL     1      45.732   5.089  13.644  0.00  0.00    +0.000 A 
BRANCH   4  13
ATOM     10  C   UNL     1      48.773   4.132  17.619  0.00  0.00    +0.000 A 
ATOM     11  C   UNL     1      48.069   3.209  16.871  0.00  0.00    +0.000 A 
ATOM     12  C   UNL     1      47.524   3.637  15.665  0.00  0.00    +0.000 A 
ATOM     13  C   UNL     1      47.660   4.967  15.232  0.00  0.00    +0.000 A 
ATOM     14  C   UNL     1      48.400   5.795  16.069  0.00  0.00    +0.000 A 
ATOM     15  N   UNL     1      48.962   5.411  17.238  0.00  0.00    +0.000 NA
BRANCH  10  17
ATOM     16  C   UNL     1      49.749   4.771  19.631  0.00  0.00    +0.000 C 
ATOM     17  O   UNL     1      49.285   3.697  18.822  0.00  0.00    +0.000 OA
ENDBRANCH  10  17
ENDBRANCH   4  13
ENDBRANCH   1   8
BRANCH   1  18
ATOM     18  C   UNL     1      43.597   4.603  10.403  0.00  0.00    +0.000 C 
BRANCH  18  19
ATOM     19  N   UNL     1      43.755   3.229   9.887  0.00  0.00    +0.000 N 
ATOM     20  H   UNL     1      42.880   2.795   9.607  0.00  0.00    +0.000 HD
BRANCH  19  21
ATOM     21  C   UNL     1      44.814   2.987   9.002  0.00  0.00    +0.000 A 
ATOM     22  C   UNL     1      45.400   1.729   8.859  0.00  0.00    +0.000 A 
ATOM     23  C   UNL     1      46.383   1.505   7.896  0.00  0.00    +0.000 A 
ATOM     24  C   UNL     1      46.769   2.563   7.088  0.00  0.00    +0.000 A 
ATOM     25  N   UNL     1      46.245   3.814   7.184  0.00  0.00    +0.000 NA
ATOM     26  C   UNL     1      45.273   3.975   8.118  0.00  0.00    +0.000 A 
BRANCH  24  27
ATOM     27  C   UNL     1      47.780   2.331   6.009  0.00  0.00    +0.000 C 
ATOM     28  N   UNL     1      47.708   3.178   4.937  0.00  0.00    +0.000 N 
ATOM     29  O   UNL     1      48.613   1.435   6.066  0.00  0.00    +0.000 OA
ATOM     30  H   UNL     1      46.983   3.885   4.905  0.00  0.00    +0.000 HD
ATOM     31  H   UNL     1      48.328   3.040   4.153  0.00  0.00    +0.000 HD
ENDBRANCH  24  27
ENDBRANCH  19  21
ENDBRANCH  18  19
ENDBRANCH   1  18
TORSDOF 7
ENDMDL
MODEL 2
REMARK VINA RESULT:    -7.191      2.370      8.313
REMARK INTER + INTRA:         -11.270
REMARK INTER:                  -9.623
REMARK INTRA:                  -1.647
REMARK UNBOUND:                -1.136
REMARK  Name = 
REMARK  10 active torsions:
REMARK  status: ('A' for Active; 'I' for Inactive)
REMARK    1  A    between atoms: C_1  and  O_2
REMARK    2  A    between atoms: O_2  and  C_3
REMARK    3  A    between atoms: C_6  and  C_7
REMARK    4  A    between atoms: C_11  and  C_12
REMARK    5  A    between atoms: C_12  and  C_13
REMARK    6  A    between atoms: C_12  and  C_14
REMARK    7  A    between atoms: C_12  and  C_15
REMARK    8  A    between atoms: C_15  and  N_16
REMARK    9  A    between atoms: N_16  and  C_17
REMARK   10  A    between atoms: C_20  and  C_21
REMARK                            x       y       z     vdW  Elec       q    Type
REMARK                         _______ _______ _______ _____ _____    ______ ____
ROOT
ATOM      1  C   UNL     1      49.212   8.792  12.116  0.00  0.00    +0.000 C 
ATOM      2  C   UNL     1      50.018   7.727  11.331  0.00  0.00    +0.000 C 
ATOM      3  C   UNL     1      49.437  10.168  11.442  0.00  0.00    +0.000 C 
ENDROOT
BRANCH   1   8
ATOM      4  C   UNL     1      45.926   6.829  11.475  0.00  0.00    +0.000 A 
ATOM      5  C   UNL     1      45.023   7.602  12.214  0.00  0.00    +0.000 A 
ATOM      6  C   UNL     1      45.426   8.795  12.813  0.00  0.00    +0.000 A 
ATOM      7  C   UNL     1      46.761   9.194  12.749  0.00  0.00    +0.000 A 
ATOM      8  C   UNL     1      47.714   8.434  12.052  0.00  0.00    +0.000 A 
ATOM      9  C   UNL     1      47.243   7.312  11.351  0.00  0.00    +0.000 A 
BRANCH   4  13
ATOM     10  C   UNL     1      44.903   3.111   9.716  0.00  0.00    +0.000 A 
ATOM     11  C   UNL     1      44.694   3.260  11.073  0.00  0.00    +0.000 A 
ATOM     12  C   UNL     1      45.012   4.488  11.643  0.00  0.00    +0.000 A 
ATOM     13  C   UNL     1      45.552   5.534  10.875  0.00  0.00    +0.000 A 
ATOM     14  C   UNL     1      45.704   5.262   9.519  0.00  0.00    +0.000 A 
ATOM     15  N   UNL     1      45.388   4.088   8.925  0.00  0.00    +0.000 NA
BRANCH  10  17
ATOM     16  C   UNL     1      45.685   1.350   8.414  0.00  0.00    +0.000 C 
ATOM     17  O   UNL     1      44.605   1.880   9.172  0.00  0.00    +0.000 OA
ENDBRANCH  10  17
ENDBRANCH   4  13
ENDBRANCH   1   8
BRANCH   1  18
ATOM     18  C   UNL     1      49.834   8.854  13.556  0.00  0.00    +0.000 C 
BRANCH  18  19
ATOM     19  N   UNL     1      50.323   7.549  14.045  0.00  0.00    +0.000 N 
ATOM     20  H   UNL     1      51.295   7.563  14.343  0.00  0.00    +0.000 HD
BRANCH  19  21
ATOM     21  C   UNL     1      49.483   6.820  14.896  0.00  0.00    +0.000 A 
ATOM     22  C   UNL     1      48.319   6.196  14.448  0.00  0.00    +0.000 A 
ATOM     23  C   UNL     1      47.563   5.395  15.303  0.00  0.00    +0.000 A 
ATOM     24  C   UNL     1      47.992   5.238  16.612  0.00  0.00    +0.000 A 
ATOM     25  N   UNL     1      49.110   5.828  17.114  0.00  0.00    +0.000 NA
ATOM     26  C   UNL     1      49.826   6.576  16.235  0.00  0.00    +0.000 A 
BRANCH  24  27
ATOM     27  C   UNL     1      47.230   4.337  17.532  0.00  0.00    +0.000 C 
ATOM     28  N   UNL     1      47.104   4.774  18.821  0.00  0.00    +0.000 N 
ATOM     29  O   UNL     1      46.756   3.268  17.166  0.00  0.00    +0.000 OA
ATOM     30  H   UNL     1      47.540   5.646  19.100  0.00  0.00    +0.000 HD
ATOM     31  H   UNL     1      46.646   4.187  19.502  0.00  0.00    +0.000 HD
ENDBRANCH  24  27
ENDBRANCH  19  21
ENDBRANCH  18  19
ENDBRANCH   1  18
TORSDOF 7
ENDMDL
MODEL 3
REMARK VINA RESULT:    -6.983      3.813      8.264
REMARK INTER + INTRA:         -10.977
REMARK INTER:                  -9.317
REMARK INTRA:                  -1.660
REMARK UNBOUND:                -1.136
REMARK  Name = 
REMARK  10 active torsions:
REMARK  status: ('A' for Active; 'I' for Inactive)
REMARK    1  A    between atoms: C_1  and  O_2
REMARK    2  A    between atoms: O_2  and  C_3
REMARK    3  A    between atoms: C_6  and  C_7
REMARK    4  A    between atoms: C_11  and  C_12
REMARK    5  A    between atoms: C_12  and  C_13
REMARK    6  A    between atoms: C_12  and  C_14
REMARK    7  A    between atoms: C_12  and  C_15
REMARK    8  A    between atoms: C_15  and  N_16
REMARK    9  A    between atoms: N_16  and  C_17
REMARK   10  A    between atoms: C_20  and  C_21
REMARK                            x       y       z     vdW  Elec       q    Type
REMARK                         _______ _______ _______ _____ _____    ______ ____
ROOT
ATOM      1  C   UNL     1      49.701   9.257  15.599  0.00  0.00    +0.000 C 
ATOM      2  C   UNL     1      50.408  10.611  15.348  0.00  0.00    +0.000 C 
ATOM      3  C   UNL     1      48.359   9.533  16.321  0.00  0.00    +0.000 C 
ENDROOT
BRANCH   1   8
ATOM      4  C   UNL     1      48.110   6.982  12.887  0.00  0.00    +0.000 A 
ATOM      5  C   UNL     1      48.643   7.559  11.729  0.00  0.00    +0.000 A 
ATOM      6  C   UNL     1      49.585   8.583  11.810  0.00  0.00    +0.000 A 
ATOM      7  C   UNL     1      49.951   9.101  13.052  0.00  0.00    +0.000 A 
ATOM      8  C   UNL     1      49.417   8.581  14.243  0.00  0.00    +0.000 A 
ATOM      9  C   UNL     1      48.575   7.464  14.125  0.00  0.00    +0.000 A 
BRANCH   4  13
ATOM     10  C   UNL     1      45.113   3.984  12.820  0.00  0.00    +0.000 A 
ATOM     11  C   UNL     1      45.116   4.914  11.798  0.00  0.00    +0.000 A 
ATOM     12  C   UNL     1      46.114   5.883  11.813  0.00  0.00    +0.000 A 
ATOM     13  C   UNL     1      47.069   5.936  12.842  0.00  0.00    +0.000 A 
ATOM     14  C   UNL     1      46.964   4.937  13.806  0.00  0.00    +0.000 A 
ATOM     15  N   UNL     1      46.022   3.967  13.815  0.00  0.00    +0.000 NA
BRANCH  10  17
ATOM     16  C   UNL     1      43.438   2.993  11.548  0.00  0.00    +0.000 C 
ATOM     17  O   UNL     1      44.104   3.046  12.803  0.00  0.00    +0.000 OA
ENDBRANCH  10  17
ENDBRANCH   4  13
ENDBRANCH   1   8
BRANCH   1  18
ATOM     18  C   UNL     1      50.618   8.447  16.582  0.00  0.00    +0.000 C 
BRANCH  18  19
ATOM     19  N   UNL     1      49.867   7.689  17.602  0.00  0.00    +0.000 N 
ATOM     20  H   UNL     1      48.958   8.088  17.821  0.00  0.00    +0.000 HD
BRANCH  19  21
ATOM     21  C   UNL     1      49.858   6.292  17.497  0.00  0.00    +0.000 A 
ATOM     22  C   UNL     1      48.685   5.560  17.317  0.00  0.00    +0.000 A 
ATOM     23  C   UNL     1      48.728   4.181  17.116  0.00  0.00    +0.000 A 
ATOM     24  C   UNL     1      49.964   3.553  17.104  0.00  0.00    +0.000 A 
ATOM     25  N   UNL     1      51.143   4.208  17.284  0.00  0.00    +0.000 NA
ATOM     26  C   UNL     1      51.050   5.552  17.450  0.00  0.00    +0.000 A 
BRANCH  24  27
ATOM     27  C   UNL     1      50.039   2.084  16.831  0.00  0.00    +0.000 C 
ATOM     28  N   UNL     1      50.942   1.386  17.585  0.00  0.00    +0.000 N 
ATOM     29  O   UNL     1      49.349   1.534  15.981  0.00  0.00    +0.000 OA
ATOM     30  H   UNL     1      51.523   1.878  18.254  0.00  0.00    +0.000 HD
ATOM     31  H   UNL     1      51.077   0.401  17.411  0.00  0.00    +0.000 HD
ENDBRANCH  24  27
ENDBRANCH  19  21
ENDBRANCH  18  19
ENDBRANCH   1  18
TORSDOF 7
ENDMDL
MODEL 4
REMARK VINA RESULT:    -6.967      1.726      8.425
REMARK INTER + INTRA:         -10.954
REMARK INTER:                 -10.048
REMARK INTRA:                  -0.906
REMARK UNBOUND:                -1.136
REMARK  Name = 
REMARK  10 active torsions:
REMARK  status: ('A' for Active; 'I' for Inactive)
REMARK    1  A    between atoms: C_1  and  O_2
REMARK    2  A    between atoms: O_2  and  C_3
REMARK    3  A    between atoms: C_6  and  C_7
REMARK    4  A    between atoms: C_11  and  C_12
REMARK    5  A    between atoms: C_12  and  C_13
REMARK    6  A    between atoms: C_12  and  C_14
REMARK    7  A    between atoms: C_12  and  C_15
REMARK    8  A    between atoms: C_15  and  N_16
REMARK    9  A    between atoms: N_16  and  C_17
REMARK   10  A    between atoms: C_20  and  C_21
REMARK                            x       y       z     vdW  Elec       q    Type
REMARK                         _______ _______ _______ _____ _____    ______ ____
ROOT
ATOM      1  C   UNL     1      46.380   7.633  12.198  0.00  0.00    +0.000 C 
ATOM      2  C   UNL     1      47.701   7.690  11.392  0.00  0.00    +0.000 C 
ATOM      3  C   UNL     1      45.801   9.067  12.288  0.00  0.00    +0.000 C 
ENDROOT
BRANCH   1   8
ATOM      4  C   UNL     1      44.936   4.789   9.988  0.00  0.00    +0.000 A 
ATOM      5  C   UNL     1      43.585   4.851  10.348  0.00  0.00    +0.000 A 
ATOM      6  C   UNL     1      43.116   5.856  11.192  0.00  0.00    +0.000 A 
ATOM      7  C   UNL     1      44.007   6.770  11.755  0.00  0.00    +0.000 A 
ATOM      8  C   UNL     1      45.379   6.727  11.455  0.00  0.00    +0.000 A 
ATOM      9  C   UNL     1      45.790   5.786  10.498  0.00  0.00    +0.000 A 
BRANCH   4  13
ATOM     10  C   UNL     1      46.443   1.653   7.566  0.00  0.00    +0.000 A 
ATOM     11  C   UNL     1      46.734   2.950   7.194  0.00  0.00    +0.000 A 
ATOM     12  C   UNL     1      46.256   3.976   8.002  0.00  0.00    +0.000 A 
ATOM     13  C   UNL     1      45.480   3.708   9.143  0.00  0.00    +0.000 A 
ATOM     14  C   UNL     1      45.266   2.360   9.416  0.00  0.00    +0.000 A 
ATOM     15  N   UNL     1      45.731   1.335   8.666  0.00  0.00    +0.000 NA
BRANCH  10  17
ATOM     16  C   UNL     1      46.657  -0.644   7.274  0.00  0.00    +0.000 C 
ATOM     17  O   UNL     1      46.904   0.650   6.741  0.00  0.00    +0.000 OA
ENDBRANCH  10  17
ENDBRANCH   4  13
ENDBRANCH   1   8
BRANCH   1  18
ATOM     18  C   UNL     1      46.760   7.177  13.651  0.00  0.00    +0.000 C 
BRANCH  18  19
ATOM     19  N   UNL     1      46.587   5.728  13.880  0.00  0.00    +0.000 N 
ATOM     20  H   UNL     1      46.612   5.175  13.028  0.00  0.00    +0.000 HD
BRANCH  19  21
ATOM     21  C   UNL     1      47.288   5.152  14.948  0.00  0.00    +0.000 A 
ATOM     22  C   UNL     1      47.109   3.825  15.334  0.00  0.00    +0.000 A 
ATOM     23  C   UNL     1      47.897   3.260  16.336  0.00  0.00    +0.000 A 
ATOM     24  C   UNL     1      48.859   4.051  16.944  0.00  0.00    +0.000 A 
ATOM     25  N   UNL     1      49.076   5.355  16.622  0.00  0.00    +0.000 NA
ATOM     26  C   UNL     1      48.301   5.851  15.623  0.00  0.00    +0.000 A 
BRANCH  24  27
ATOM     27  C   UNL     1      49.756   3.451  17.981  0.00  0.00    +0.000 C 
ATOM     28  N   UNL     1      49.358   3.618  19.278  0.00  0.00    +0.000 N 
ATOM     29  O   UNL     1      50.789   2.856  17.696  0.00  0.00    +0.000 OA
ATOM     30  H   UNL     1      48.517   4.147  19.480  0.00  0.00    +0.000 HD
ATOM     31  H   UNL     1      49.948   3.282  20.025  0.00  0.00    +0.000 HD
ENDBRANCH  24  27
ENDBRANCH  19  21
ENDBRANCH  18  19
ENDBRANCH   1  18
TORSDOF 7
ENDMDL
MODEL 5
REMARK VINA RESULT:    -6.732      3.070      5.063
REMARK INTER + INTRA:         -10.623
REMARK INTER:                  -9.239
REMARK INTRA:                  -1.384
REMARK UNBOUND:                -1.136
REMARK  Name = 
REMARK  10 active torsions:
REMARK  status: ('A' for Active; 'I' for Inactive)
REMARK    1  A    between atoms: C_1  and  O_2
REMARK    2  A    between atoms: O_2  and  C_3
REMARK    3  A    between atoms: C_6  and  C_7
REMARK    4  A    between atoms: C_11  and  C_12
REMARK    5  A    between atoms: C_12  and  C_13
REMARK    6  A    between atoms: C_12  and  C_14
REMARK    7  A    between atoms: C_12  and  C_15
REMARK    8  A    between atoms: C_15  and  N_16
REMARK    9  A    between atoms: N_16  and  C_17
REMARK   10  A    between atoms: C_20  and  C_21
REMARK                            x       y       z     vdW  Elec       q    Type
REMARK                         _______ _______ _______ _____ _____    ______ ____
ROOT
ATOM      1  C   UNL     1      48.209   8.659  13.147  0.00  0.00    +0.000 C 
ATOM      2  C   UNL     1      48.820  10.071  12.976  0.00  0.00    +0.000 C 
ATOM      3  C   UNL     1      49.037   7.663  12.298  0.00  0.00    +0.000 C 
ENDROOT
BRANCH   1   8
ATOM      4  C   UNL     1      48.847   6.573  16.356  0.00  0.00    +0.000 A 
ATOM      5  C   UNL     1      48.776   7.577  17.328  0.00  0.00    +0.000 A 
ATOM      6  C   UNL     1      48.416   8.880  16.985  0.00  0.00    +0.000 A 
ATOM      7  C   UNL     1      48.198   9.217  15.649  0.00  0.00    +0.000 A 
ATOM      8  C   UNL     1      48.293   8.253  14.631  0.00  0.00    +0.000 A 
ATOM      9  C   UNL     1      48.526   6.927  15.032  0.00  0.00    +0.000 A 
BRANCH   4  13
ATOM     10  C   UNL     1      50.062   2.602  17.207  0.00  0.00    +0.000 A 
ATOM     11  C   UNL     1      50.948   3.622  17.496  0.00  0.00    +0.000 A 
ATOM     12  C   UNL     1      50.537   4.925  17.234  0.00  0.00    +0.000 A 
ATOM     13  C   UNL     1      49.279   5.197  16.672  0.00  0.00    +0.000 A 
ATOM     14  C   UNL     1      48.476   4.085  16.438  0.00  0.00    +0.000 A 
ATOM     15  N   UNL     1      48.831   2.806  16.697  0.00  0.00    +0.000 NA
BRANCH  10  17
ATOM     16  C   UNL     1      51.907   1.240  17.592  0.00  0.00    +0.000 C 
ATOM     17  O   UNL     1      50.494   1.316  17.451  0.00  0.00    +0.000 OA
ENDBRANCH  10  17
ENDBRANCH   4  13
ENDBRANCH   1   8
BRANCH   1  18
ATOM     18  C   UNL     1      46.762   8.720  12.541  0.00  0.00    +0.000 C 
BRANCH  18  19
ATOM     19  N   UNL     1      45.785   7.877  13.259  0.00  0.00    +0.000 N 
ATOM     20  H   UNL     1      44.977   8.389  13.601  0.00  0.00    +0.000 HD
BRANCH  19  21
ATOM     21  C   UNL     1      45.468   6.632  12.700  0.00  0.00    +0.000 A 
ATOM     22  C   UNL     1      45.605   5.436  13.404  0.00  0.00    +0.000 A 
ATOM     23  C   UNL     1      45.185   4.228  12.849  0.00  0.00    +0.000 A 
ATOM     24  C   UNL     1      44.633   4.242  11.577  0.00  0.00    +0.000 A 
ATOM     25  N   UNL     1      44.482   5.372  10.835  0.00  0.00    +0.000 NA
ATOM     26  C   UNL     1      44.882   6.525  11.429  0.00  0.00    +0.000 A 
BRANCH  24  27
ATOM     27  C   UNL     1      44.121   2.967  10.984  0.00  0.00    +0.000 C 
ATOM     28  N   UNL     1      44.884   2.430   9.985  0.00  0.00    +0.000 N 
ATOM     29  O   UNL     1      43.080   2.438  11.355  0.00  0.00    +0.000 OA
ATOM     30  H   UNL     1      45.720   2.912   9.678  0.00  0.00    +0.000 HD
ATOM     31  H   UNL     1      44.565   1.598   9.509  0.00  0.00    +0.000 HD
ENDBRANCH  24  27
ENDBRANCH  19  21
ENDBRANCH  18  19
ENDBRANCH   1  18
TORSDOF 7
ENDMDL
MODEL 6
REMARK VINA RESULT:    -6.380      3.777      6.213
REMARK INTER + INTRA:         -10.127
REMARK INTER:                  -9.239
REMARK INTRA:                  -0.888
REMARK UNBOUND:                -1.136
REMARK  Name = 
REMARK  10 active torsions:
REMARK  status: ('A' for Active; 'I' for Inactive)
REMARK    1  A    between atoms: C_1  and  O_2
REMARK    2  A    between atoms: O_2  and  C_3
REMARK    3  A    between atoms: C_6  and  C_7
REMARK    4  A    between atoms: C_11  and  C_12
REMARK    5  A    between atoms: C_12  and  C_13
REMARK    6  A    between atoms: C_12  and  C_14
REMARK    7  A    between atoms: C_12  and  C_15
REMARK    8  A    between atoms: C_15  and  N_16
REMARK    9  A    between atoms: N_16  and  C_17
REMARK   10  A    between atoms: C_20  and  C_21
REMARK                            x       y       z     vdW  Elec       q    Type
REMARK                         _______ _______ _______ _____ _____    ______ ____
ROOT
ATOM      1  C   UNL     1      48.050   4.432  16.904  0.00  0.00    +0.000 C 
ATOM      2  C   UNL     1      47.771   2.909  16.942  0.00  0.00    +0.000 C 
ATOM      3  C   UNL     1      47.193   5.112  18.001  0.00  0.00    +0.000 C 
ENDROOT
BRANCH   1   8
ATOM      4  C   UNL     1      51.792   3.781  17.701  0.00  0.00    +0.000 A 
ATOM      5  C   UNL     1      52.331   5.044  17.430  0.00  0.00    +0.000 A 
ATOM      6  C   UNL     1      51.503   6.120  17.110  0.00  0.00    +0.000 A 
ATOM      7  C   UNL     1      50.128   5.931  16.979  0.00  0.00    +0.000 A 
ATOM      8  C   UNL     1      49.542   4.674  17.204  0.00  0.00    +0.000 A 
ATOM      9  C   UNL     1      50.391   3.650  17.653  0.00  0.00    +0.000 A 
BRANCH   4  13
ATOM     10  C   UNL     1      54.199   0.377  18.469  0.00  0.00    +0.000 A 
ATOM     11  C   UNL     1      54.764   1.622  18.664  0.00  0.00    +0.000 A 
ATOM     12  C   UNL     1      53.964   2.736  18.431  0.00  0.00    +0.000 A 
ATOM     13  C   UNL     1      52.638   2.606  17.986  0.00  0.00    +0.000 A 
ATOM     14  C   UNL     1      52.184   1.299  17.838  0.00  0.00    +0.000 A 
ATOM     15  N   UNL     1      52.923   0.191  18.074  0.00  0.00    +0.000 NA
BRANCH  10  17
ATOM     16  C   UNL     1      54.277  -1.865  19.080  0.00  0.00    +0.000 C 
ATOM     17  O   UNL     1      55.012  -0.715  18.682  0.00  0.00    +0.000 OA
ENDBRANCH  10  17
ENDBRANCH   4  13
ENDBRANCH   1   8
BRANCH   1  18
ATOM     18  C   UNL     1      47.544   4.946  15.511  0.00  0.00    +0.000 C 
BRANCH  18  19
ATOM     19  N   UNL     1      46.502   4.092  14.907  0.00  0.00    +0.000 N 
ATOM     20  H   UNL     1      45.718   3.906  15.526  0.00  0.00    +0.000 HD
BRANCH  19  21
ATOM     21  C   UNL     1      46.126   4.364  13.585  0.00  0.00    +0.000 A 
ATOM     22  C   UNL     1      46.403   5.579  12.961  0.00  0.00    +0.000 A 
ATOM     23  C   UNL     1      46.102   5.775  11.613  0.00  0.00    +0.000 A 
ATOM     24  C   UNL     1      45.515   4.735  10.910  0.00  0.00    +0.000 A 
ATOM     25  N   UNL     1      45.210   3.530  11.463  0.00  0.00    +0.000 NA
ATOM     26  C   UNL     1      45.546   3.380  12.770  0.00  0.00    +0.000 A 
BRANCH  24  27
ATOM     27  C   UNL     1      45.237   4.901   9.449  0.00  0.00    +0.000 C 
ATOM     28  N   UNL     1      43.993   4.511   9.034  0.00  0.00    +0.000 N 
ATOM     29  O   UNL     1      46.068   5.344   8.665  0.00  0.00    +0.000 OA
ATOM     30  H   UNL     1      43.343   4.115   9.703  0.00  0.00    +0.000 HD
ATOM     31  H   UNL     1      43.764   4.550   8.052  0.00  0.00    +0.000 HD
ENDBRANCH  24  27
ENDBRANCH  19  21
ENDBRANCH  18  19
ENDBRANCH   1  18
TORSDOF 7
ENDMDL
MODEL 7
REMARK VINA RESULT:    -6.277      5.027      7.170
REMARK INTER + INTRA:          -9.982
REMARK INTER:                  -9.113
REMARK INTRA:                  -0.869
REMARK UNBOUND:                -1.136
REMARK  Name = 
REMARK  10 active torsions:
REMARK  status: ('A' for Active; 'I' for Inactive)
REMARK    1  A    between atoms: C_1  and  O_2
REMARK    2  A    between atoms: O_2  and  C_3
REMARK    3  A    between atoms: C_6  and  C_7
REMARK    4  A    between atoms: C_11  and  C_12
REMARK    5  A    between atoms: C_12  and  C_13
REMARK    6  A    between atoms: C_12  and  C_14
REMARK    7  A    between atoms: C_12  and  C_15
REMARK    8  A    between atoms: C_15  and  N_16
REMARK    9  A    between atoms: N_16  and  C_17
REMARK   10  A    between atoms: C_20  and  C_21
REMARK                            x       y       z     vdW  Elec       q    Type
REMARK                         _______ _______ _______ _____ _____    ______ ____
ROOT
ATOM      1  C   UNL     1      51.264   8.928  11.226  0.00  0.00    +0.000 C 
ATOM      2  C   UNL     1      51.682  10.149  10.371  0.00  0.00    +0.000 C 
ATOM      3  C   UNL     1      52.045   8.978  12.563  0.00  0.00    +0.000 C 
ENDROOT
BRANCH   1   8
ATOM      4  C   UNL     1      47.616   7.898  12.056  0.00  0.00    +0.000 A 
ATOM      5  C   UNL     1      47.068   9.146  12.376  0.00  0.00    +0.000 A 
ATOM      6  C   UNL     1      47.813  10.314  12.220  0.00  0.00    +0.000 A 
ATOM      7  C   UNL     1      49.146  10.246  11.816  0.00  0.00    +0.000 A 
ATOM      8  C   UNL     1      49.753   9.015  11.518  0.00  0.00    +0.000 A 
ATOM      9  C   UNL     1      48.932   7.876  11.559  0.00  0.00    +0.000 A 
BRANCH   4  13
ATOM     10  C   UNL     1      45.501   4.262  12.584  0.00  0.00    +0.000 A 
ATOM     11  C   UNL     1      46.506   4.559  13.483  0.00  0.00    +0.000 A 
ATOM     12  C   UNL     1      47.184   5.762  13.319  0.00  0.00    +0.000 A 
ATOM     13  C   UNL     1      46.879   6.636  12.262  0.00  0.00    +0.000 A 
ATOM     14  C   UNL     1      45.839   6.228  11.431  0.00  0.00    +0.000 A 
ATOM     15  N   UNL     1      45.144   5.076  11.571  0.00  0.00    +0.000 NA
BRANCH  10  17
ATOM     16  C   UNL     1      43.598   3.022  12.086  0.00  0.00    +0.000 C 
ATOM     17  O   UNL     1      44.856   3.056  12.748  0.00  0.00    +0.000 OA
ENDBRANCH  10  17
ENDBRANCH   4  13
ENDBRANCH   1   8
BRANCH   1  18
ATOM     18  C   UNL     1      51.732   7.650  10.444  0.00  0.00    +0.000 C 
BRANCH  18  19
ATOM     19  N   UNL     1      52.782   7.922   9.443  0.00  0.00    +0.000 N 
ATOM     20  H   UNL     1      53.538   8.504   9.791  0.00  0.00    +0.000 HD
BRANCH  19  21
ATOM     21  C   UNL     1      53.215   6.851   8.650  0.00  0.00    +0.000 A 
ATOM     22  C   UNL     1      54.375   6.129   8.931  0.00  0.00    +0.000 A 
ATOM     23  C   UNL     1      54.718   5.007   8.177  0.00  0.00    +0.000 A 
ATOM     24  C   UNL     1      53.882   4.629   7.138  0.00  0.00    +0.000 A 
ATOM     25  N   UNL     1      52.744   5.296   6.806  0.00  0.00    +0.000 NA
ATOM     26  C   UNL     1      52.440   6.365   7.585  0.00  0.00    +0.000 A 
BRANCH  24  27
ATOM     27  C   UNL     1      54.198   3.395   6.353  0.00  0.00    +0.000 C 
ATOM     28  N   UNL     1      53.396   2.315   6.598  0.00  0.00    +0.000 N 
ATOM     29  O   UNL     1      55.123   3.341   5.551  0.00  0.00    +0.000 OA
ATOM     30  H   UNL     1      52.663   2.382   7.295  0.00  0.00    +0.000 HD
ATOM     31  H   UNL     1      53.591   1.437   6.139  0.00  0.00    +0.000 HD
ENDBRANCH  24  27
ENDBRANCH  19  21
ENDBRANCH  18  19
ENDBRANCH   1  18
TORSDOF 7
ENDMDL
MODEL 8
REMARK VINA RESULT:    -6.217      3.540      6.358
REMARK INTER + INTRA:          -9.897
REMARK INTER:                  -8.615
REMARK INTRA:                  -1.283
REMARK UNBOUND:                -1.136
REMARK  Name = 
REMARK  10 active torsions:
REMARK  status: ('A' for Active; 'I' for Inactive)
REMARK    1  A    between atoms: C_1  and  O_2
REMARK    2  A    between atoms: O_2  and  C_3
REMARK    3  A    between atoms: C_6  and  C_7
REMARK    4  A    between atoms: C_11  and  C_12
REMARK    5  A    between atoms: C_12  and  C_13
REMARK    6  A    between atoms: C_12  and  C_14
REMARK    7  A    between atoms: C_12  and  C_15
REMARK    8  A    between atoms: C_15  and  N_16
REMARK    9  A    between atoms: N_16  and  C_17
REMARK   10  A    between atoms: C_20  and  C_21
REMARK                            x       y       z     vdW  Elec       q    Type
REMARK                         _______ _______ _______ _____ _____    ______ ____
ROOT
ATOM      1  C   UNL     1      49.304   7.673  15.966  0.00  0.00    +0.000 C 
ATOM      2  C   UNL     1      48.373   8.809  16.456  0.00  0.00    +0.000 C 
ATOM      3  C   UNL     1      50.764   8.188  16.006  0.00  0.00    +0.000 C 
ENDROOT
BRANCH   1   8
ATOM      4  C   UNL     1      50.044   4.334  17.798  0.00  0.00    +0.000 A 
ATOM      5  C   UNL     1      49.126   4.415  18.852  0.00  0.00    +0.000 A 
ATOM      6  C   UNL     1      48.204   5.459  18.916  0.00  0.00    +0.000 A 
ATOM      7  C   UNL     1      48.238   6.483  17.970  0.00  0.00    +0.000 A 
ATOM      8  C   UNL     1      49.164   6.467  16.914  0.00  0.00    +0.000 A 
ATOM      9  C   UNL     1      49.986   5.333  16.808  0.00  0.00    +0.000 A 
BRANCH   4  13
ATOM     10  C   UNL     1      52.970   1.277  17.536  0.00  0.00    +0.000 A 
ATOM     11  C   UNL     1      53.386   2.534  17.931  0.00  0.00    +0.000 A 
ATOM     12  C   UNL     1      52.420   3.529  18.035  0.00  0.00    +0.000 A 
ATOM     13  C   UNL     1      51.072   3.277  17.726  0.00  0.00    +0.000 A 
ATOM     14  C   UNL     1      50.780   1.969  17.352  0.00  0.00    +0.000 A 
ATOM     15  N   UNL     1      51.688   0.970  17.258  0.00  0.00    +0.000 NA
BRANCH  10  17
ATOM     16  C   UNL     1      53.805  -0.720  18.386  0.00  0.00    +0.000 C 
ATOM     17  O   UNL     1      53.944   0.310  17.415  0.00  0.00    +0.000 OA
ENDBRANCH  10  17
ENDBRANCH   4  13
ENDBRANCH   1   8
BRANCH   1  18
ATOM     18  C   UNL     1      48.930   7.404  14.465  0.00  0.00    +0.000 C 
BRANCH  18  19
ATOM     19  N   UNL     1      47.482   7.490  14.192  0.00  0.00    +0.000 N 
ATOM     20  H   UNL     1      47.188   8.392  13.827  0.00  0.00    +0.000 HD
BRANCH  19  21
ATOM     21  C   UNL     1      46.876   6.400  13.555  0.00  0.00    +0.000 A 
ATOM     22  C   UNL     1      47.094   5.081  13.953  0.00  0.00    +0.000 A 
ATOM     23  C   UNL     1      46.395   4.031  13.359  0.00  0.00    +0.000 A 
ATOM     24  C   UNL     1      45.482   4.327  12.359  0.00  0.00    +0.000 A 
ATOM     25  N   UNL     1      45.231   5.589  11.919  0.00  0.00    +0.000 NA
ATOM     26  C   UNL     1      45.917   6.579  12.545  0.00  0.00    +0.000 A 
BRANCH  24  27
ATOM     27  C   UNL     1      44.677   3.223  11.749  0.00  0.00    +0.000 C 
ATOM     28  N   UNL     1      43.849   2.550  12.605  0.00  0.00    +0.000 N 
ATOM     29  O   UNL     1      44.757   2.924  10.564  0.00  0.00    +0.000 OA
ATOM     30  H   UNL     1      43.834   2.799  13.588  0.00  0.00    +0.000 HD
ATOM     31  H   UNL     1      43.320   1.761  12.266  0.00  0.00    +0.000 HD
ENDBRANCH  24  27
ENDBRANCH  19  21
ENDBRANCH  18  19
ENDBRANCH   1  18
TORSDOF 7
ENDMDL
MODEL 9
REMARK VINA RESULT:    -5.839      3.528      8.920
REMARK INTER + INTRA:          -9.365
REMARK INTER:                  -8.417
REMARK INTRA:                  -0.948
REMARK UNBOUND:                -1.136
REMARK  Name = 
REMARK  10 active torsions:
REMARK  status: ('A' for Active; 'I' for Inactive)
REMARK    1  A    between atoms: C_1  and  O_2
REMARK    2  A    between atoms: O_2  and  C_3
REMARK    3  A    between atoms: C_6  and  C_7
REMARK    4  A    between atoms: C_11  and  C_12
REMARK    5  A    between atoms: C_12  and  C_13
REMARK    6  A    between atoms: C_12  and  C_14
REMARK    7  A    between atoms: C_12  and  C_15
REMARK    8  A    between atoms: C_15  and  N_16
REMARK    9  A    between atoms: N_16  and  C_17
REMARK   10  A    between atoms: C_20  and  C_21
REMARK                            x       y       z     vdW  Elec       q    Type
REMARK                         _______ _______ _______ _____ _____    ______ ____
ROOT
ATOM      1  C   UNL     1      49.102   6.142  16.926  0.00  0.00    +0.000 C 
ATOM      2  C   UNL     1      50.436   6.829  17.308  0.00  0.00    +0.000 C 
ATOM      3  C   UNL     1      48.042   6.506  17.994  0.00  0.00    +0.000 C 
ENDROOT
BRANCH   1   8
ATOM      4  C   UNL     1      47.320   6.379  13.486  0.00  0.00    +0.000 A 
ATOM      5  C   UNL     1      47.516   7.733  13.193  0.00  0.00    +0.000 A 
ATOM      6  C   UNL     1      48.303   8.536  14.018  0.00  0.00    +0.000 A 
ATOM      7  C   UNL     1      48.841   8.015  15.195  0.00  0.00    +0.000 A 
ATOM      8  C   UNL     1      48.642   6.672  15.553  0.00  0.00    +0.000 A 
ATOM      9  C   UNL     1      47.958   5.863  14.630  0.00  0.00    +0.000 A 
BRANCH   4  13
ATOM     10  C   UNL     1      44.850   3.906  11.087  0.00  0.00    +0.000 A 
ATOM     11  C   UNL     1      45.262   3.412  12.309  0.00  0.00    +0.000 A 
ATOM     12  C   UNL     1      46.055   4.234  13.102  0.00  0.00    +0.000 A 
ATOM     13  C   UNL     1      46.448   5.512  12.669  0.00  0.00    +0.000 A 
ATOM     14  C   UNL     1      45.959   5.897  11.425  0.00  0.00    +0.000 A 
ATOM     15  N   UNL     1      45.169   5.135  10.634  0.00  0.00    +0.000 NA
BRANCH  10  17
ATOM     16  C   UNL     1      44.859   2.388   9.326  0.00  0.00    +0.000 C 
ATOM     17  O   UNL     1      44.085   3.069  10.304  0.00  0.00    +0.000 OA
ENDBRANCH  10  17
ENDBRANCH   4  13
ENDBRANCH   1   8
BRANCH   1  18
ATOM     18  C   UNL     1      49.354   4.595  17.006  0.00  0.00    +0.000 C 
BRANCH  18  19
ATOM     19  N   UNL     1      50.266   4.201  18.099  0.00  0.00    +0.000 N 
ATOM     20  H   UNL     1      49.806   4.105  19.000  0.00  0.00    +0.000 HD
BRANCH  19  21
ATOM     21  C   UNL     1      51.200   3.192  17.831  0.00  0.00    +0.000 A 
ATOM     22  C   UNL     1      52.568   3.360  18.044  0.00  0.00    +0.000 A 
ATOM     23  C   UNL     1      53.455   2.299  17.862  0.00  0.00    +0.000 A 
ATOM     24  C   UNL     1      52.945   1.074  17.458  0.00  0.00    +0.000 A 
ATOM     25  N   UNL     1      51.624   0.849  17.224  0.00  0.00    +0.000 NA
ATOM     26  C   UNL     1      50.799   1.905  17.441  0.00  0.00    +0.000 A 
BRANCH  24  27
ATOM     27  C   UNL     1      53.869  -0.094  17.313  0.00  0.00    +0.000 C 
ATOM     28  N   UNL     1      54.151  -0.471  16.029  0.00  0.00    +0.000 N 
ATOM     29  O   UNL     1      54.338  -0.688  18.276  0.00  0.00    +0.000 OA
ATOM     30  H   UNL     1      53.717   0.020  15.256  0.00  0.00    +0.000 HD
ATOM     31  H   UNL     1      54.726  -1.284  15.866  0.00  0.00    +0.000 HD
ENDBRANCH  24  27
ENDBRANCH  19  21
ENDBRANCH  18  19
ENDBRANCH   1  18
TORSDOF 7
ENDMDL
