MODEL 1
REMARK VINA RESULT:    -8.390      0.000      0.000
REMARK INTER + INTRA:         -11.078
REMARK INTER:                 -10.352
REMARK INTRA:                  -0.726
REMARK UNBOUND:                -0.726
REMARK  Name = 
REMARK  5 active torsions:
REMARK  status: ('A' for Active; 'I' for Inactive)
REMARK    1  A    between atoms: C_1  and  C_2
REMARK    2  A    between atoms: C_2  and  N_3
REMARK    3  A    between atoms: C_2  and  C_13
REMARK    4  A    between atoms: N_3  and  C_4
REMARK    5  A    between atoms: C_7  and  C_8
REMARK                            x       y       z     vdW  Elec       q    Type
REMARK                         _______ _______ _______ _____ _____    ______ ____
ROOT
ATOM      1  N   UNL     1      43.717   4.835   9.842  0.00  0.00    +0.000 N 
ATOM      2  H   UNL     1      44.040   5.788   9.669  0.00  0.00    +0.000 HD
ENDROOT
BRANCH   1   3
ATOM      3  C   UNL     1      44.547   3.949   9.140  0.00  0.00    +0.000 A 
ATOM      4  C   UNL     1      45.529   4.490   8.306  0.00  0.00    +0.000 A 
ATOM      5  C   UNL     1      46.429   3.665   7.630  0.00  0.00    +0.000 A 
ATOM      6  C   UNL     1      46.346   2.297   7.841  0.00  0.00    +0.000 A 
ATOM      7  N   UNL     1      45.438   1.716   8.673  0.00  0.00    +0.000 NA
ATOM      8  C   UNL     1      44.577   2.560   9.298  0.00  0.00    +0.000 A 
BRANCH   6   9
ATOM      9  C   UNL     1      47.312   1.383   7.148  0.00  0.00    +0.000 C 
ATOM     10  N   UNL     1      48.379   2.000   6.547  0.00  0.00    +0.000 N 
ATOM     11  O   UNL     1      47.167   0.169   7.108  0.00  0.00    +0.000 OA
ATOM     12  H   UNL     1      48.461   3.009   6.585  0.00  0.00    +0.000 HD
ATOM     13  H   UNL     1      49.057   1.445   6.047  0.00  0.00    +0.000 HD
ENDBRANCH   6   9
ENDBRANCH   1   3
BRANCH   1  15
ATOM     14  C   UNL     1      42.364   5.569  11.782  0.00  0.00    +0.000 C 
ATOM     15  C   UNL     1      43.476   4.640  11.282  0.00  0.00    +0.000 C 
BRANCH  15  16
ATOM     16  C   UNL     1      44.739   4.939  12.082  0.00  0.00    +0.000 A 
ATOM     17  C   UNL     1      45.323   6.218  11.999  0.00  0.00    +0.000 A 
ATOM     18  C   UNL     1      46.543   6.497  12.623  0.00  0.00    +0.000 A 
ATOM     19  C   UNL     1      47.195   5.503  13.348  0.00  0.00    +0.000 A 
ATOM     20  C   UNL     1      46.621   4.241  13.444  0.00  0.00    +0.000 A 
ATOM     21  F   UNL     1      47.255   3.283  14.132  0.00  0.00    +0.000 F 
ATOM     22  C   UNL     1      45.409   3.949  12.819  0.00  0.00    +0.000 A 
ENDBRANCH  15  16
ENDBRANCH   1  15
TORSDOF 4
ENDMDL
MODEL 2
REMARK VINA RESULT:    -8.199      1.444      1.790
REMARK INTER + INTRA:         -10.843
REMARK INTER:                 -10.203
REMARK INTRA:                  -0.639
REMARK UNBOUND:                -0.726
REMARK  Name = 
REMARK  5 active torsions:
REMARK  status: ('A' for Active; 'I' for Inactive)
REMARK    1  A    between atoms: C_1  and  C_2
REMARK    2  A    between atoms: C_2  and  N_3
REMARK    3  A    between atoms: C_2  and  C_13
REMARK    4  A    between atoms: N_3  and  C_4
REMARK    5  A    between atoms: C_7  and  C_8
REMARK                            x       y       z     vdW  Elec       q    Type
REMARK                         _______ _______ _______ _____ _____    ______ ____
ROOT
ATOM      1  N   UNL     1      43.758   4.820   9.806  0.00  0.00    +0.000 N 
ATOM      2  H   UNL     1      44.052   5.739   9.471  0.00  0.00    +0.000 HD
ENDROOT
BRANCH   1   3
ATOM      3  C   UNL     1      44.530   3.843   9.161  0.00  0.00    +0.000 A 
ATOM      4  C   UNL     1      45.474   4.267   8.222  0.00  0.00    +0.000 A 
ATOM      5  C   UNL     1      46.319   3.351   7.593  0.00  0.00    +0.000 A 
ATOM      6  C   UNL     1      46.222   2.017   7.955  0.00  0.00    +0.000 A 
ATOM      7  N   UNL     1      45.351   1.551   8.893  0.00  0.00    +0.000 NA
ATOM      8  C   UNL     1      44.542   2.479   9.468  0.00  0.00    +0.000 A 
BRANCH   6   9
ATOM      9  C   UNL     1      47.130   1.009   7.315  0.00  0.00    +0.000 C 
ATOM     10  N   UNL     1      46.873  -0.300   7.631  0.00  0.00    +0.000 N 
ATOM     11  O   UNL     1      48.045   1.321   6.566  0.00  0.00    +0.000 OA
ATOM     12  H   UNL     1      46.118  -0.523   8.267  0.00  0.00    +0.000 HD
ATOM     13  H   UNL     1      47.459  -1.027   7.249  0.00  0.00    +0.000 HD
ENDBRANCH   6   9
ENDBRANCH   1   3
BRANCH   1  15
ATOM     14  C   UNL     1      42.610   5.852  11.742  0.00  0.00    +0.000 C 
ATOM     15  C   UNL     1      43.652   4.831  11.275  0.00  0.00    +0.000 C 
BRANCH  15  16
ATOM     16  C   UNL     1      44.992   5.197  11.906  0.00  0.00    +0.000 A 
ATOM     17  C   UNL     1      45.434   4.495  13.044  0.00  0.00    +0.000 A 
ATOM     18  C   UNL     1      46.597   4.876  13.720  0.00  0.00    +0.000 A 
ATOM     19  C   UNL     1      47.341   5.961  13.265  0.00  0.00    +0.000 A 
ATOM     20  C   UNL     1      46.917   6.653  12.136  0.00  0.00    +0.000 A 
ATOM     21  F   UNL     1      47.628   7.703  11.706  0.00  0.00    +0.000 F 
ATOM     22  C   UNL     1      45.755   6.288  11.459  0.00  0.00    +0.000 A 
ENDBRANCH  15  16
ENDBRANCH   1  15
TORSDOF 4
ENDMDL
MODEL 3
REMARK VINA RESULT:    -7.112      3.491      5.825
REMARK INTER + INTRA:          -9.500
REMARK INTER:                  -9.572
REMARK INTRA:                   0.072
REMARK UNBOUND:                -0.726
REMARK  Name = 
REMARK  5 active torsions:
REMARK  status: ('A' for Active; 'I' for Inactive)
REMARK    1  A    between atoms: C_1  and  C_2
REMARK    2  A    between atoms: C_2  and  N_3
REMARK    3  A    between atoms: C_2  and  C_13
REMARK    4  A    between atoms: N_3  and  C_4
REMARK    5  A    between atoms: C_7  and  C_8
REMARK                            x       y       z     vdW  Elec       q    Type
REMARK                         _______ _______ _______ _____ _____    ______ ____
ROOT
ATOM      1  N   UNL     1      44.147   5.317  10.648  0.00  0.00    +0.000 N 
ATOM      2  H   UNL     1      43.310   5.781  11.007  0.00  0.00    +0.000 HD
ENDROOT
BRANCH   1   3
ATOM      3  C   UNL     1      45.176   5.463  11.589  0.00  0.00    +0.000 A 
ATOM      4  C   UNL     1      46.187   6.388  11.319  0.00  0.00    +0.000 A 
ATOM      5  C   UNL     1      47.205   6.628  12.243  0.00  0.00    +0.000 A 
ATOM      6  C   UNL     1      47.161   5.951  13.453  0.00  0.00    +0.000 A 
ATOM      7  N   UNL     1      46.179   5.070  13.789  0.00  0.00    +0.000 NA
ATOM      8  C   UNL     1      45.219   4.862  12.851  0.00  0.00    +0.000 A 
BRANCH   6   9
ATOM      9  C   UNL     1      48.227   6.202  14.478  0.00  0.00    +0.000 C 
ATOM     10  N   UNL     1      47.856   5.979  15.779  0.00  0.00    +0.000 N 
ATOM     11  O   UNL     1      49.351   6.586  14.188  0.00  0.00    +0.000 OA
ATOM     12  H   UNL     1      46.912   5.677  15.986  0.00  0.00    +0.000 HD
ATOM     13  H   UNL     1      48.520   6.147  16.520  0.00  0.00    +0.000 HD
ENDBRANCH   6   9
ENDBRANCH   1   3
BRANCH   1  15
ATOM     14  C   UNL     1      43.606   2.984  11.279  0.00  0.00    +0.000 C 
ATOM     15  C   UNL     1      43.797   3.982  10.133  0.00  0.00    +0.000 C 
BRANCH  15  16
ATOM     16  C   UNL     1      44.901   3.453   9.223  0.00  0.00    +0.000 A 
ATOM     17  C   UNL     1      45.590   4.347   8.381  0.00  0.00    +0.000 A 
ATOM     18  C   UNL     1      46.526   3.886   7.450  0.00  0.00    +0.000 A 
ATOM     19  C   UNL     1      46.794   2.524   7.351  0.00  0.00    +0.000 A 
ATOM     20  C   UNL     1      46.126   1.635   8.185  0.00  0.00    +0.000 A 
ATOM     21  F   UNL     1      46.377   0.324   8.082  0.00  0.00    +0.000 F 
ATOM     22  C   UNL     1      45.185   2.082   9.111  0.00  0.00    +0.000 A 
ENDBRANCH  15  16
ENDBRANCH   1  15
TORSDOF 4
ENDMDL
MODEL 4
REMARK VINA RESULT:    -6.607      4.135      6.219
REMARK INTER + INTRA:          -8.878
REMARK INTER:                  -8.256
REMARK INTRA:                  -0.622
REMARK UNBOUND:                -0.726
REMARK  Name = 
REMARK  5 active torsions:
REMARK  status: ('A' for Active; 'I' for Inactive)
REMARK    1  A    between atoms: C_1  and  C_2
REMARK    2  A    between atoms: C_2  and  N_3
REMARK    3  A    between atoms: C_2  and  C_13
REMARK    4  A    between atoms: N_3  and  C_4
REMARK    5  A    between atoms: C_7  and  C_8
REMARK                            x       y       z     vdW  Elec       q    Type
REMARK                         _______ _______ _______ _____ _____    ______ ____
ROOT
ATOM      1  N   UNL     1      45.214   4.936  12.241  0.00  0.00    +0.000 N 
ATOM      2  H   UNL     1      45.353   3.925  12.295  0.00  0.00    +0.000 HD
ENDROOT
BRANCH   1   3
ATOM      3  C   UNL     1      46.422   5.569  12.567  0.00  0.00    +0.000 A 
ATOM      4  C   UNL     1      46.858   6.612  11.747  0.00  0.00    +0.000 A 
ATOM      5  C   UNL     1      48.018   7.327  12.052  0.00  0.00    +0.000 A 
ATOM      6  C   UNL     1      48.702   6.997  13.212  0.00  0.00    +0.000 A 
ATOM      7  N   UNL     1      48.303   6.018  14.071  0.00  0.00    +0.000 NA
ATOM      8  C   UNL     1      47.175   5.344  13.724  0.00  0.00    +0.000 A 
BRANCH   6   9
ATOM      9  C   UNL     1      49.939   7.759  13.582  0.00  0.00    +0.000 C 
ATOM     10  N   UNL     1      50.596   7.309  14.698  0.00  0.00    +0.000 N 
ATOM     11  O   UNL     1      50.342   8.721  12.944  0.00  0.00    +0.000 OA
ATOM     12  H   UNL     1      50.227   6.519  15.213  0.00  0.00    +0.000 HD
ATOM     13  H   UNL     1      51.426   7.789  15.013  0.00  0.00    +0.000 HD
ENDBRANCH   6   9
ENDBRANCH   1   3
BRANCH   1  15
ATOM     14  C   UNL     1      42.991   5.241  11.194  0.00  0.00    +0.000 C 
ATOM     15  C   UNL     1      44.510   5.280  10.995  0.00  0.00    +0.000 C 
BRANCH  15  16
ATOM     16  C   UNL     1      44.869   4.296   9.886  0.00  0.00    +0.000 A 
ATOM     17  C   UNL     1      44.536   2.936  10.037  0.00  0.00    +0.000 A 
ATOM     18  C   UNL     1      44.950   1.984   9.100  0.00  0.00    +0.000 A 
ATOM     19  C   UNL     1      45.695   2.378   7.992  0.00  0.00    +0.000 A 
ATOM     20  C   UNL     1      46.020   3.720   7.831  0.00  0.00    +0.000 A 
ATOM     21  F   UNL     1      46.747   4.096   6.771  0.00  0.00    +0.000 F 
ATOM     22  C   UNL     1      45.620   4.676   8.763  0.00  0.00    +0.000 A 
ENDBRANCH  15  16
ENDBRANCH   1  15
TORSDOF 4
ENDMDL
MODEL 5
REMARK VINA RESULT:    -6.273      4.025      6.311
REMARK INTER + INTRA:          -8.465
REMARK INTER:                  -8.310
REMARK INTRA:                  -0.155
REMARK UNBOUND:                -0.726
REMARK  Name = 
REMARK  5 active torsions:
REMARK  status: ('A' for Active; 'I' for Inactive)
REMARK    1  A    between atoms: C_1  and  C_2
REMARK    2  A    between atoms: C_2  and  N_3
REMARK    3  A    between atoms: C_2  and  C_13
REMARK    4  A    between atoms: N_3  and  C_4
REMARK    5  A    between atoms: C_7  and  C_8
REMARK                            x       y       z     vdW  Elec       q    Type
REMARK                         _______ _______ _______ _____ _____    ______ ____
ROOT
ATOM      1  N   UNL     1      46.623   6.079  11.940  0.00  0.00    +0.000 N 
ATOM      2  H   UNL     1      46.929   7.043  12.085  0.00  0.00    +0.000 HD
ENDROOT
BRANCH   1   3
ATOM      3  C   UNL     1      47.010   5.317  13.051  0.00  0.00    +0.000 A 
ATOM      4  C   UNL     1      47.422   5.995  14.201  0.00  0.00    +0.000 A 
ATOM      5  C   UNL     1      47.758   5.298  15.363  0.00  0.00    +0.000 A 
ATOM      6  C   UNL     1      47.633   3.917  15.354  0.00  0.00    +0.000 A 
ATOM      7  N   UNL     1      47.198   3.206  14.278  0.00  0.00    +0.000 NA
ATOM      8  C   UNL     1      46.895   3.928  13.168  0.00  0.00    +0.000 A 
BRANCH   6   9
ATOM      9  C   UNL     1      47.964   3.138  16.593  0.00  0.00    +0.000 C 
ATOM     10  N   UNL     1      46.937   2.993  17.489  0.00  0.00    +0.000 N 
ATOM     11  O   UNL     1      49.072   2.666  16.804  0.00  0.00    +0.000 OA
ATOM     12  H   UNL     1      46.036   3.411  17.290  0.00  0.00    +0.000 HD
ATOM     13  H   UNL     1      47.098   2.496  18.352  0.00  0.00    +0.000 HD
ENDBRANCH   6   9
ENDBRANCH   1   3
BRANCH   1  15
ATOM     14  C   UNL     1      44.264   5.836  12.651  0.00  0.00    +0.000 C 
ATOM     15  C   UNL     1      45.224   6.060  11.479  0.00  0.00    +0.000 C 
BRANCH  15  16
ATOM     16  C   UNL     1      45.008   4.939  10.468  0.00  0.00    +0.000 A 
ATOM     17  C   UNL     1      44.298   3.787  10.856  0.00  0.00    +0.000 A 
ATOM     18  C   UNL     1      44.179   2.689   9.998  0.00  0.00    +0.000 A 
ATOM     19  C   UNL     1      44.761   2.730   8.734  0.00  0.00    +0.000 A 
ATOM     20  C   UNL     1      45.455   3.867   8.339  0.00  0.00    +0.000 A 
ATOM     21  F   UNL     1      46.024   3.900   7.127  0.00  0.00    +0.000 F 
ATOM     22  C   UNL     1      45.587   4.964   9.189  0.00  0.00    +0.000 A 
ENDBRANCH  15  16
ENDBRANCH   1  15
TORSDOF 4
ENDMDL
MODEL 6
REMARK VINA RESULT:    -6.002      4.226      6.578
REMARK INTER + INTRA:          -8.131
REMARK INTER:                  -7.560
REMARK INTRA:                  -0.571
REMARK UNBOUND:                -0.726
REMARK  Name = 
REMARK  5 active torsions:
REMARK  status: ('A' for Active; 'I' for Inactive)
REMARK    1  A    between atoms: C_1  and  C_2
REMARK    2  A    between atoms: C_2  and  N_3
REMARK    3  A    between atoms: C_2  and  C_13
REMARK    4  A    between atoms: N_3  and  C_4
REMARK    5  A    between atoms: C_7  and  C_8
REMARK                            x       y       z     vdW  Elec       q    Type
REMARK                         _______ _______ _______ _____ _____    ______ ____
ROOT
ATOM      1  N   UNL     1      45.324   5.308  11.940  0.00  0.00    +0.000 N 
ATOM      2  H   UNL     1      46.035   4.579  11.861  0.00  0.00    +0.000 HD
ENDROOT
BRANCH   1   3
ATOM      3  C   UNL     1      45.967   6.540  12.123  0.00  0.00    +0.000 A 
ATOM      4  C   UNL     1      47.304   6.647  11.732  0.00  0.00    +0.000 A 
ATOM      5  C   UNL     1      47.984   7.863  11.827  0.00  0.00    +0.000 A 
ATOM      6  C   UNL     1      47.282   8.969  12.283  0.00  0.00    +0.000 A 
ATOM      7  N   UNL     1      45.969   8.935  12.639  0.00  0.00    +0.000 NA
ATOM      8  C   UNL     1      45.355   7.727  12.540  0.00  0.00    +0.000 A 
BRANCH   6   9
ATOM      9  C   UNL     1      47.976  10.296  12.376  0.00  0.00    +0.000 C 
ATOM     10  N   UNL     1      48.004  11.028  11.217  0.00  0.00    +0.000 N 
ATOM     11  O   UNL     1      48.490  10.706  13.407  0.00  0.00    +0.000 OA
ATOM     12  H   UNL     1      47.583  10.652  10.376  0.00  0.00    +0.000 HD
ATOM     13  H   UNL     1      48.472  11.921  11.206  0.00  0.00    +0.000 HD
ENDBRANCH   6   9
ENDBRANCH   1   3
BRANCH   1  15
ATOM     14  C   UNL     1      43.016   4.569  11.431  0.00  0.00    +0.000 C 
ATOM     15  C   UNL     1      44.320   5.148  10.874  0.00  0.00    +0.000 C 
BRANCH  15  16
ATOM     16  C   UNL     1      44.833   4.204   9.791  0.00  0.00    +0.000 A 
ATOM     17  C   UNL     1      44.636   2.817   9.934  0.00  0.00    +0.000 A 
ATOM     18  C   UNL     1      45.192   1.912   9.025  0.00  0.00    +0.000 A 
ATOM     19  C   UNL     1      45.948   2.379   7.954  0.00  0.00    +0.000 A 
ATOM     20  C   UNL     1      46.140   3.747   7.800  0.00  0.00    +0.000 A 
ATOM     21  F   UNL     1      46.877   4.194   6.775  0.00  0.00    +0.000 F 
ATOM     22  C   UNL     1      45.597   4.658   8.704  0.00  0.00    +0.000 A 
ENDBRANCH  15  16
ENDBRANCH   1  15
TORSDOF 4
ENDMDL
MODEL 7
REMARK VINA RESULT:    -5.922      4.361      6.612
REMARK INTER + INTRA:          -8.033
REMARK INTER:                  -7.536
REMARK INTRA:                  -0.497
REMARK UNBOUND:                -0.726
REMARK  Name = 
REMARK  5 active torsions:
REMARK  status: ('A' for Active; 'I' for Inactive)
REMARK    1  A    between atoms: C_1  and  C_2
REMARK    2  A    between atoms: C_2  and  N_3
REMARK    3  A    between atoms: C_2  and  C_13
REMARK    4  A    between atoms: N_3  and  C_4
REMARK    5  A    between atoms: C_7  and  C_8
REMARK                            x       y       z     vdW  Elec       q    Type
REMARK                         _______ _______ _______ _____ _____    ______ ____
ROOT
ATOM      1  N   UNL     1      47.577   6.678  12.227  0.00  0.00    +0.000 N 
ATOM      2  H   UNL     1      48.373   7.319  12.222  0.00  0.00    +0.000 HD
ENDROOT
BRANCH   1   3
ATOM      3  C   UNL     1      47.546   6.017  13.463  0.00  0.00    +0.000 A 
ATOM      4  C   UNL     1      46.835   4.818  13.548  0.00  0.00    +0.000 A 
ATOM      5  C   UNL     1      46.817   4.077  14.731  0.00  0.00    +0.000 A 
ATOM      6  C   UNL     1      47.559   4.545  15.805  0.00  0.00    +0.000 A 
ATOM      7  N   UNL     1      48.304   5.684  15.768  0.00  0.00    +0.000 NA
ATOM      8  C   UNL     1      48.279   6.375  14.599  0.00  0.00    +0.000 A 
BRANCH   6   9
ATOM      9  C   UNL     1      47.581   3.763  17.085  0.00  0.00    +0.000 C 
ATOM     10  N   UNL     1      48.657   3.999  17.901  0.00  0.00    +0.000 N 
ATOM     11  O   UNL     1      46.710   2.960  17.388  0.00  0.00    +0.000 OA
ATOM     12  H   UNL     1      49.369   4.659  17.613  0.00  0.00    +0.000 HD
ATOM     13  H   UNL     1      48.742   3.492  18.769  0.00  0.00    +0.000 HD
ENDBRANCH   6   9
ENDBRANCH   1   3
BRANCH   1  15
ATOM     14  C   UNL     1      45.616   8.048  12.866  0.00  0.00    +0.000 C 
ATOM     15  C   UNL     1      46.376   7.365  11.724  0.00  0.00    +0.000 C 
BRANCH  15  16
ATOM     16  C   UNL     1      45.432   6.372  11.053  0.00  0.00    +0.000 A 
ATOM     17  C   UNL     1      44.134   6.197  11.569  0.00  0.00    +0.000 A 
ATOM     18  C   UNL     1      43.280   5.215  11.057  0.00  0.00    +0.000 A 
ATOM     19  C   UNL     1      43.708   4.398  10.014  0.00  0.00    +0.000 A 
ATOM     20  C   UNL     1      44.984   4.571   9.492  0.00  0.00    +0.000 A 
ATOM     21  F   UNL     1      45.398   3.777   8.497  0.00  0.00    +0.000 F 
ATOM     22  C   UNL     1      45.847   5.541  10.000  0.00  0.00    +0.000 A 
ENDBRANCH  15  16
ENDBRANCH   1  15
TORSDOF 4
ENDMDL
MODEL 8
REMARK VINA RESULT:    -5.615      4.648      6.694
REMARK INTER + INTRA:          -7.653
REMARK INTER:                  -7.117
REMARK INTRA:                  -0.536
REMARK UNBOUND:                -0.726
REMARK  Name = 
REMARK  5 active torsions:
REMARK  status: ('A' for Active; 'I' for Inactive)
REMARK    1  A    between atoms: C_1  and  C_2
REMARK    2  A    between atoms: C_2  and  N_3
REMARK    3  A    between atoms: C_2  and  C_13
REMARK    4  A    between atoms: N_3  and  C_4
REMARK    5  A    between atoms: C_7  and  C_8
REMARK                            x       y       z     vdW  Elec       q    Type
REMARK                         _______ _______ _______ _____ _____    ______ ____
ROOT
ATOM      1  N   UNL     1      46.315   5.749  12.286  0.00  0.00    +0.000 N 
ATOM      2  H   UNL     1      46.449   4.737  12.270  0.00  0.00    +0.000 HD
ENDROOT
BRANCH   1   3
ATOM      3  C   UNL     1      47.530   6.355  12.633  0.00  0.00    +0.000 A 
ATOM      4  C   UNL     1      48.091   7.264  11.732  0.00  0.00    +0.000 A 
ATOM      5  C   UNL     1      49.266   7.950  12.045  0.00  0.00    +0.000 A 
ATOM      6  C   UNL     1      49.838   7.733  13.289  0.00  0.00    +0.000 A 
ATOM      7  N   UNL     1      49.315   6.891  14.223  0.00  0.00    +0.000 NA
ATOM      8  C   UNL     1      48.178   6.238  13.867  0.00  0.00    +0.000 A 
BRANCH   6   9
ATOM      9  C   UNL     1      51.088   8.470  13.666  0.00  0.00    +0.000 C 
ATOM     10  N   UNL     1      51.060   9.089  14.890  0.00  0.00    +0.000 N 
ATOM     11  O   UNL     1      52.070   8.529  12.940  0.00  0.00    +0.000 OA
ATOM     12  H   UNL     1      50.226   9.034  15.460  0.00  0.00    +0.000 HD
ATOM     13  H   UNL     1      51.862   9.618  15.196  0.00  0.00    +0.000 HD
ENDBRANCH   6   9
ENDBRANCH   1   3
BRANCH   1  15
ATOM     14  C   UNL     1      44.312   6.938  11.445  0.00  0.00    +0.000 C 
ATOM     15  C   UNL     1      45.591   6.179  11.077  0.00  0.00    +0.000 C 
BRANCH  15  16
ATOM     16  C   UNL     1      45.200   4.973  10.229  0.00  0.00    +0.000 A 
ATOM     17  C   UNL     1      44.517   3.899  10.831  0.00  0.00    +0.000 A 
ATOM     18  C   UNL     1      44.244   2.727  10.118  0.00  0.00    +0.000 A 
ATOM     19  C   UNL     1      44.643   2.615   8.789  0.00  0.00    +0.000 A 
ATOM     20  C   UNL     1      45.309   3.674   8.184  0.00  0.00    +0.000 A 
ATOM     21  F   UNL     1      45.702   3.560   6.909  0.00  0.00    +0.000 F 
ATOM     22  C   UNL     1      45.593   4.843   8.888  0.00  0.00    +0.000 A 
ENDBRANCH  15  16
ENDBRANCH   1  15
TORSDOF 4
ENDMDL
