MODEL 1
REMARK VINA RESULT:    -8.572      0.000      0.000
REMARK INTER + INTRA:         -11.319
REMARK INTER:                 -10.577
REMARK INTRA:                  -0.742
REMARK UNBOUND:                -0.742
REMARK  Name = 
REMARK  4 active torsions:
REMARK  status: ('A' for Active; 'I' for Inactive)
REMARK    1  A    between atoms: C_2  and  C_4
REMARK    2  A    between atoms: C_7  and  C_8
REMARK    3  A    between atoms: C_8  and  N_9
REMARK    4  A    between atoms: C_14  and  C_15
REMARK                            x       y       z     vdW  Elec       q    Type
REMARK                         _______ _______ _______ _____ _____    ______ ____
ROOT
ATOM      1  N   UNL     1      43.826   5.417  11.473  0.00  0.00    +0.000 N 
ATOM      2  C   UNL     1      43.648   6.717  11.053  0.00  0.00    +0.000 A 
ATOM      3  N   UNL     1      44.458   7.563  11.635  0.00  0.00    +0.000 NA
ATOM      4  C   UNL     1      45.327   6.770  12.315  0.00  0.00    +0.000 A 
ATOM      5  C   UNL     1      46.587   7.124  12.802  0.00  0.00    +0.000 A 
ATOM      6  C   UNL     1      47.404   6.147  13.376  0.00  0.00    +0.000 A 
ATOM      7  C   UNL     1      46.885   4.861  13.600  0.00  0.00    +0.000 A 
ATOM      8  C   UNL     1      45.609   4.482  13.111  0.00  0.00    +0.000 A 
ATOM      9  C   UNL     1      44.890   5.445  12.376  0.00  0.00    +0.000 A 
ENDROOT
BRANCH   6  10
ATOM     10  C   UNL     1      48.820   6.571  13.605  0.00  0.00    +0.000 C 
ATOM     11  N   UNL     1      49.569   6.979  12.541  0.00  0.00    +0.000 N 
ATOM     12  O   UNL     1      49.319   6.587  14.720  0.00  0.00    +0.000 OA
ATOM     13  H   UNL     1      49.322   6.821  11.581  0.00  0.00    +0.000 HD
ATOM     14  H   UNL     1      50.541   7.168  12.759  0.00  0.00    +0.000 HD
ENDBRANCH   6  10
BRANCH   1  15
ATOM     15  C   UNL     1      43.510   4.317  10.548  0.00  0.00    +0.000 C 
BRANCH  15  19
ATOM     16  C   UNL     1      46.419   2.527   7.826  0.00  0.00    +0.000 A 
ATOM     17  C   UNL     1      46.290   3.923   7.863  0.00  0.00    +0.000 A 
ATOM     18  C   UNL     1      45.380   4.547   8.748  0.00  0.00    +0.000 A 
ATOM     19  C   UNL     1      44.572   3.785   9.599  0.00  0.00    +0.000 A 
ATOM     20  C   UNL     1      44.738   2.381   9.563  0.00  0.00    +0.000 A 
ATOM     21  C   UNL     1      45.633   1.759   8.682  0.00  0.00    +0.000 A 
BRANCH  16  23
ATOM     22  N   UNL     1      48.421   2.482   6.420  0.00  0.00    +0.000 N 
ATOM     23  C   UNL     1      47.333   1.801   6.892  0.00  0.00    +0.000 C 
ATOM     24  O   UNL     1      47.136   0.633   6.611  0.00  0.00    +0.000 OA
ATOM     25  H   UNL     1      49.097   1.932   5.907  0.00  0.00    +0.000 HD
ATOM     26  H   UNL     1      48.745   3.340   6.840  0.00  0.00    +0.000 HD
ENDBRANCH  16  23
ENDBRANCH  15  19
ENDBRANCH   1  15
TORSDOF 4
ENDMDL
MODEL 2
REMARK VINA RESULT:    -8.523      1.124      6.315
REMARK INTER + INTRA:         -11.258
REMARK INTER:                 -10.530
REMARK INTRA:                  -0.728
REMARK UNBOUND:                -0.742
REMARK  Name = 
REMARK  4 active torsions:
REMARK  status: ('A' for Active; 'I' for Inactive)
REMARK    1  A    between atoms: C_2  and  C_4
REMARK    2  A    between atoms: C_7  and  C_8
REMARK    3  A    between atoms: C_8  and  N_9
REMARK    4  A    between atoms: C_14  and  C_15
REMARK                            x       y       z     vdW  Elec       q    Type
REMARK                         _______ _______ _______ _____ _____    ______ ____
ROOT
ATOM      1  N   UNL     1      43.667   4.397  10.596  0.00  0.00    +0.000 N 
ATOM      2  C   UNL     1      43.274   3.304  11.336  0.00  0.00    +0.000 A 
ATOM      3  N   UNL     1      43.563   2.162  10.765  0.00  0.00    +0.000 NA
ATOM      4  C   UNL     1      44.343   2.512   9.709  0.00  0.00    +0.000 A 
ATOM      5  C   UNL     1      45.210   1.686   8.991  0.00  0.00    +0.000 A 
ATOM      6  C   UNL     1      46.032   2.238   8.006  0.00  0.00    +0.000 A 
ATOM      7  C   UNL     1      45.862   3.584   7.643  0.00  0.00    +0.000 A 
ATOM      8  C   UNL     1      44.989   4.441   8.362  0.00  0.00    +0.000 A 
ATOM      9  C   UNL     1      44.313   3.888   9.467  0.00  0.00    +0.000 A 
ENDROOT
BRANCH   6  10
ATOM     10  C   UNL     1      47.103   1.325   7.501  0.00  0.00    +0.000 C 
ATOM     11  N   UNL     1      48.189   1.862   6.873  0.00  0.00    +0.000 N 
ATOM     12  O   UNL     1      47.050   0.114   7.656  0.00  0.00    +0.000 OA
ATOM     13  H   UNL     1      48.235   2.804   6.530  0.00  0.00    +0.000 HD
ATOM     14  H   UNL     1      48.829   1.179   6.484  0.00  0.00    +0.000 HD
ENDBRANCH   6  10
BRANCH   1  15
ATOM     15  C   UNL     1      44.011   5.647  11.293  0.00  0.00    +0.000 C 
BRANCH  15  19
ATOM     16  C   UNL     1      48.009   6.496  12.831  0.00  0.00    +0.000 A 
ATOM     17  C   UNL     1      47.260   5.463  13.414  0.00  0.00    +0.000 A 
ATOM     18  C   UNL     1      45.972   5.136  12.931  0.00  0.00    +0.000 A 
ATOM     19  C   UNL     1      45.404   5.847  11.867  0.00  0.00    +0.000 A 
ATOM     20  C   UNL     1      46.188   6.865  11.279  0.00  0.00    +0.000 A 
ATOM     21  C   UNL     1      47.462   7.197  11.760  0.00  0.00    +0.000 A 
BRANCH  16  23
ATOM     22  N   UNL     1      50.230   7.422  12.388  0.00  0.00    +0.000 N 
ATOM     23  C   UNL     1      49.359   6.918  13.314  0.00  0.00    +0.000 C 
ATOM     24  O   UNL     1      49.643   6.860  14.497  0.00  0.00    +0.000 OA
ATOM     25  H   UNL     1      51.079   7.831  12.757  0.00  0.00    +0.000 HD
ATOM     26  H   UNL     1      49.931   7.723  11.474  0.00  0.00    +0.000 HD
ENDBRANCH  16  23
ENDBRANCH  15  19
ENDBRANCH   1  15
TORSDOF 4
ENDMDL
MODEL 3
REMARK VINA RESULT:    -7.506      2.167      2.589
REMARK INTER + INTRA:         -10.003
REMARK INTER:                  -9.703
REMARK INTRA:                  -0.300
REMARK UNBOUND:                -0.742
REMARK  Name = 
REMARK  4 active torsions:
REMARK  status: ('A' for Active; 'I' for Inactive)
REMARK    1  A    between atoms: C_2  and  C_4
REMARK    2  A    between atoms: C_7  and  C_8
REMARK    3  A    between atoms: C_8  and  N_9
REMARK    4  A    between atoms: C_14  and  C_15
REMARK                            x       y       z     vdW  Elec       q    Type
REMARK                         _______ _______ _______ _____ _____    ______ ____
ROOT
ATOM      1  N   UNL     1      44.062   4.109  11.455  0.00  0.00    +0.000 N 
ATOM      2  C   UNL     1      43.122   4.229  12.455  0.00  0.00    +0.000 A 
ATOM      3  N   UNL     1      43.372   5.212  13.283  0.00  0.00    +0.000 NA
ATOM      4  C   UNL     1      44.401   5.879  12.698  0.00  0.00    +0.000 A 
ATOM      5  C   UNL     1      44.813   7.188  12.958  0.00  0.00    +0.000 A 
ATOM      6  C   UNL     1      45.818   7.763  12.177  0.00  0.00    +0.000 A 
ATOM      7  C   UNL     1      46.508   6.966  11.248  0.00  0.00    +0.000 A 
ATOM      8  C   UNL     1      46.103   5.636  10.967  0.00  0.00    +0.000 A 
ATOM      9  C   UNL     1      44.968   5.153  11.648  0.00  0.00    +0.000 A 
ENDROOT
BRANCH   6  10
ATOM     10  C   UNL     1      45.984   9.238  12.357  0.00  0.00    +0.000 C 
ATOM     11  N   UNL     1      44.892   9.993  12.675  0.00  0.00    +0.000 N 
ATOM     12  O   UNL     1      47.071   9.786  12.254  0.00  0.00    +0.000 OA
ATOM     13  H   UNL     1      43.943   9.677  12.591  0.00  0.00    +0.000 HD
ATOM     14  H   UNL     1      45.064  10.991  12.695  0.00  0.00    +0.000 HD
ENDBRANCH   6  10
BRANCH   1  15
ATOM     15  C   UNL     1      43.655   3.550  10.155  0.00  0.00    +0.000 C 
BRANCH  15  19
ATOM     16  C   UNL     1      46.754   2.482   7.269  0.00  0.00    +0.000 A 
ATOM     17  C   UNL     1      46.261   1.495   8.136  0.00  0.00    +0.000 A 
ATOM     18  C   UNL     1      45.238   1.789   9.068  0.00  0.00    +0.000 A 
ATOM     19  C   UNL     1      44.704   3.080   9.161  0.00  0.00    +0.000 A 
ATOM     20  C   UNL     1      45.199   4.051   8.260  0.00  0.00    +0.000 A 
ATOM     21  C   UNL     1      46.217   3.765   7.341  0.00  0.00    +0.000 A 
BRANCH  16  23
ATOM     22  N   UNL     1      49.027   2.929   6.483  0.00  0.00    +0.000 N 
ATOM     23  C   UNL     1      47.857   2.249   6.287  0.00  0.00    +0.000 C 
ATOM     24  O   UNL     1      47.726   1.444   5.384  0.00  0.00    +0.000 OA
ATOM     25  H   UNL     1      49.802   2.651   5.894  0.00  0.00    +0.000 HD
ATOM     26  H   UNL     1      49.248   3.384   7.355  0.00  0.00    +0.000 HD
ENDBRANCH  16  23
ENDBRANCH  15  19
ENDBRANCH   1  15
TORSDOF 4
ENDMDL
MODEL 4
REMARK VINA RESULT:    -6.271      4.289      7.668
REMARK INTER + INTRA:          -8.479
REMARK INTER:                  -7.997
REMARK INTRA:                  -0.482
REMARK UNBOUND:                -0.742
REMARK  Name = 
REMARK  4 active torsions:
REMARK  status: ('A' for Active; 'I' for Inactive)
REMARK    1  A    between atoms: C_2  and  C_4
REMARK    2  A    between atoms: C_7  and  C_8
REMARK    3  A    between atoms: C_8  and  N_9
REMARK    4  A    between atoms: C_14  and  C_15
REMARK                            x       y       z     vdW  Elec       q    Type
REMARK                         _______ _______ _______ _____ _____    ______ ____
ROOT
ATOM      1  N   UNL     1      47.749   5.485  14.745  0.00  0.00    +0.000 N 
ATOM      2  C   UNL     1      47.924   6.828  14.495  0.00  0.00    +0.000 A 
ATOM      3  N   UNL     1      47.348   7.227  13.389  0.00  0.00    +0.000 NA
ATOM      4  C   UNL     1      46.606   6.156  13.002  0.00  0.00    +0.000 A 
ATOM      5  C   UNL     1      45.532   6.153  12.110  0.00  0.00    +0.000 A 
ATOM      6  C   UNL     1      44.800   4.979  11.915  0.00  0.00    +0.000 A 
ATOM      7  C   UNL     1      45.253   3.782  12.495  0.00  0.00    +0.000 A 
ATOM      8  C   UNL     1      46.340   3.765  13.405  0.00  0.00    +0.000 A 
ATOM      9  C   UNL     1      46.937   5.002  13.717  0.00  0.00    +0.000 A 
ENDROOT
BRANCH   6  10
ATOM     10  C   UNL     1      43.520   5.157  11.164  0.00  0.00    +0.000 C 
ATOM     11  N   UNL     1      42.483   5.807  11.768  0.00  0.00    +0.000 N 
ATOM     12  O   UNL     1      43.380   4.762  10.016  0.00  0.00    +0.000 OA
ATOM     13  H   UNL     1      42.429   5.992  12.753  0.00  0.00    +0.000 HD
ATOM     14  H   UNL     1      41.623   5.813  11.232  0.00  0.00    +0.000 HD
ENDBRANCH   6  10
BRANCH   1  15
ATOM     15  C   UNL     1      47.744   5.013  16.140  0.00  0.00    +0.000 C 
BRANCH  15  19
ATOM     16  C   UNL     1      50.954   2.358  17.449  0.00  0.00    +0.000 A 
ATOM     17  C   UNL     1      51.050   3.730  17.724  0.00  0.00    +0.000 A 
ATOM     18  C   UNL     1      50.022   4.623  17.343  0.00  0.00    +0.000 A 
ATOM     19  C   UNL     1      48.888   4.161  16.664  0.00  0.00    +0.000 A 
ATOM     20  C   UNL     1      48.801   2.771  16.421  0.00  0.00    +0.000 A 
ATOM     21  C   UNL     1      49.822   1.884  16.791  0.00  0.00    +0.000 A 
BRANCH  16  23
ATOM     22  N   UNL     1      51.615   0.120  18.184  0.00  0.00    +0.000 N 
ATOM     23  C   UNL     1      52.019   1.365  17.791  0.00  0.00    +0.000 C 
ATOM     24  O   UNL     1      53.197   1.649  17.668  0.00  0.00    +0.000 OA
ATOM     25  H   UNL     1      52.346  -0.574  18.272  0.00  0.00    +0.000 HD
ATOM     26  H   UNL     1      50.675  -0.215  18.037  0.00  0.00    +0.000 HD
ENDBRANCH  16  23
ENDBRANCH  15  19
ENDBRANCH   1  15
TORSDOF 4
ENDMDL
MODEL 5
REMARK VINA RESULT:    -6.082      2.485      6.626
REMARK INTER + INTRA:          -8.246
REMARK INTER:                  -7.716
REMARK INTRA:                  -0.530
REMARK UNBOUND:                -0.742
REMARK  Name = 
REMARK  4 active torsions:
REMARK  status: ('A' for Active; 'I' for Inactive)
REMARK    1  A    between atoms: C_2  and  C_4
REMARK    2  A    between atoms: C_7  and  C_8
REMARK    3  A    between atoms: C_8  and  N_9
REMARK    4  A    between atoms: C_14  and  C_15
REMARK                            x       y       z     vdW  Elec       q    Type
REMARK                         _______ _______ _______ _____ _____    ______ ____
ROOT
ATOM      1  N   UNL     1      45.671   5.912  13.308  0.00  0.00    +0.000 N 
ATOM      2  C   UNL     1      46.457   4.937  13.881  0.00  0.00    +0.000 A 
ATOM      3  N   UNL     1      46.245   3.745  13.384  0.00  0.00    +0.000 NA
ATOM      4  C   UNL     1      45.437   3.974  12.317  0.00  0.00    +0.000 A 
ATOM      5  C   UNL     1      45.205   3.120  11.237  0.00  0.00    +0.000 A 
ATOM      6  C   UNL     1      44.434   3.563  10.159  0.00  0.00    +0.000 A 
ATOM      7  C   UNL     1      43.773   4.800  10.249  0.00  0.00    +0.000 A 
ATOM      8  C   UNL     1      43.998   5.682  11.336  0.00  0.00    +0.000 A 
ATOM      9  C   UNL     1      44.925   5.274  12.315  0.00  0.00    +0.000 A 
ENDROOT
BRANCH   6  10
ATOM     10  C   UNL     1      44.482   2.683   8.951  0.00  0.00    +0.000 C 
ATOM     11  N   UNL     1      44.454   3.256   7.713  0.00  0.00    +0.000 N 
ATOM     12  O   UNL     1      44.571   1.468   9.038  0.00  0.00    +0.000 OA
ATOM     13  H   UNL     1      44.191   4.208   7.537  0.00  0.00    +0.000 HD
ATOM     14  H   UNL     1      44.402   2.595   6.946  0.00  0.00    +0.000 HD
ENDBRANCH   6  10
BRANCH   1  15
ATOM     15  C   UNL     1      46.174   7.294  13.252  0.00  0.00    +0.000 C 
BRANCH  15  19
ATOM     16  C   UNL     1      50.379   8.125  12.412  0.00  0.00    +0.000 A 
ATOM     17  C   UNL     1      49.919   8.207  13.735  0.00  0.00    +0.000 A 
ATOM     18  C   UNL     1      48.572   7.920  14.057  0.00  0.00    +0.000 A 
ATOM     19  C   UNL     1      47.658   7.563  13.059  0.00  0.00    +0.000 A 
ATOM     20  C   UNL     1      48.150   7.462  11.738  0.00  0.00    +0.000 A 
ATOM     21  C   UNL     1      49.482   7.752  11.414  0.00  0.00    +0.000 A 
BRANCH  16  23
ATOM     22  N   UNL     1      52.793   7.953  12.767  0.00  0.00    +0.000 N 
ATOM     23  C   UNL     1      51.777   8.449  11.997  0.00  0.00    +0.000 C 
ATOM     24  O   UNL     1      51.994   9.085  10.982  0.00  0.00    +0.000 OA
ATOM     25  H   UNL     1      53.726   8.064  12.391  0.00  0.00    +0.000 HD
ATOM     26  H   UNL     1      52.650   7.217  13.441  0.00  0.00    +0.000 HD
ENDBRANCH  16  23
ENDBRANCH  15  19
ENDBRANCH   1  15
TORSDOF 4
ENDMDL
MODEL 6
REMARK VINA RESULT:    -5.731      2.953      6.772
REMARK INTER + INTRA:          -7.813
REMARK INTER:                  -7.251
REMARK INTRA:                  -0.561
REMARK UNBOUND:                -0.742
REMARK  Name = 
REMARK  4 active torsions:
REMARK  status: ('A' for Active; 'I' for Inactive)
REMARK    1  A    between atoms: C_2  and  C_4
REMARK    2  A    between atoms: C_7  and  C_8
REMARK    3  A    between atoms: C_8  and  N_9
REMARK    4  A    between atoms: C_14  and  C_15
REMARK                            x       y       z     vdW  Elec       q    Type
REMARK                         _______ _______ _______ _____ _____    ______ ____
ROOT
ATOM      1  N   UNL     1      46.959   5.217  14.435  0.00  0.00    +0.000 N 
ATOM      2  C   UNL     1      47.157   3.857  14.535  0.00  0.00    +0.000 A 
ATOM      3  N   UNL     1      46.506   3.173  13.628  0.00  0.00    +0.000 NA
ATOM      4  C   UNL     1      46.022   4.123  12.786  0.00  0.00    +0.000 A 
ATOM      5  C   UNL     1      45.575   3.940  11.476  0.00  0.00    +0.000 A 
ATOM      6  C   UNL     1      45.220   5.050  10.706  0.00  0.00    +0.000 A 
ATOM      7  C   UNL     1      45.166   6.317  11.310  0.00  0.00    +0.000 A 
ATOM      8  C   UNL     1      45.618   6.525  12.639  0.00  0.00    +0.000 A 
ATOM      9  C   UNL     1      46.139   5.409  13.321  0.00  0.00    +0.000 A 
ENDROOT
BRANCH   6  10
ATOM     10  C   UNL     1      45.026   4.767   9.250  0.00  0.00    +0.000 C 
ATOM     11  N   UNL     1      43.848   4.218   8.834  0.00  0.00    +0.000 N 
ATOM     12  O   UNL     1      45.880   5.035   8.418  0.00  0.00    +0.000 OA
ATOM     13  H   UNL     1      43.177   3.789   9.445  0.00  0.00    +0.000 HD
ATOM     14  H   UNL     1      43.823   3.975   7.851  0.00  0.00    +0.000 HD
ENDBRANCH   6  10
BRANCH   1  15
ATOM     15  C   UNL     1      48.022   6.128  14.889  0.00  0.00    +0.000 C 
BRANCH  15  19
ATOM     16  C   UNL     1      49.124   9.441  12.265  0.00  0.00    +0.000 A 
ATOM     17  C   UNL     1      48.433   9.715  13.454  0.00  0.00    +0.000 A 
ATOM     18  C   UNL     1      48.080   8.676  14.347  0.00  0.00    +0.000 A 
ATOM     19  C   UNL     1      48.397   7.344  14.057  0.00  0.00    +0.000 A 
ATOM     20  C   UNL     1      49.115   7.095  12.866  0.00  0.00    +0.000 A 
ATOM     21  C   UNL     1      49.461   8.120  11.975  0.00  0.00    +0.000 A 
BRANCH  16  23
ATOM     22  N   UNL     1      48.478  11.190  10.681  0.00  0.00    +0.000 N 
ATOM     23  C   UNL     1      49.496  10.483  11.260  0.00  0.00    +0.000 C 
ATOM     24  O   UNL     1      50.664  10.723  11.015  0.00  0.00    +0.000 OA
ATOM     25  H   UNL     1      48.757  11.981  10.115  0.00  0.00    +0.000 HD
ATOM     26  H   UNL     1      47.543  11.196  11.057  0.00  0.00    +0.000 HD
ENDBRANCH  16  23
ENDBRANCH  15  19
ENDBRANCH   1  15
TORSDOF 4
ENDMDL
MODEL 7
REMARK VINA RESULT:    -5.608      3.818      5.740
REMARK INTER + INTRA:          -7.662
REMARK INTER:                  -7.193
REMARK INTRA:                  -0.469
REMARK UNBOUND:                -0.742
REMARK  Name = 
REMARK  4 active torsions:
REMARK  status: ('A' for Active; 'I' for Inactive)
REMARK    1  A    between atoms: C_2  and  C_4
REMARK    2  A    between atoms: C_7  and  C_8
REMARK    3  A    between atoms: C_8  and  N_9
REMARK    4  A    between atoms: C_14  and  C_15
REMARK                            x       y       z     vdW  Elec       q    Type
REMARK                         _______ _______ _______ _____ _____    ______ ____
ROOT
ATOM      1  N   UNL     1      48.367   7.025  14.872  0.00  0.00    +0.000 N 
ATOM      2  C   UNL     1      48.891   8.262  15.170  0.00  0.00    +0.000 A 
ATOM      3  N   UNL     1      49.334   8.353  16.399  0.00  0.00    +0.000 NA
ATOM      4  C   UNL     1      49.278   7.077  16.863  0.00  0.00    +0.000 A 
ATOM      5  C   UNL     1      49.957   6.550  17.962  0.00  0.00    +0.000 A 
ATOM      6  C   UNL     1      49.879   5.181  18.230  0.00  0.00    +0.000 A 
ATOM      7  C   UNL     1      48.994   4.384  17.485  0.00  0.00    +0.000 A 
ATOM      8  C   UNL     1      48.297   4.901  16.363  0.00  0.00    +0.000 A 
ATOM      9  C   UNL     1      48.544   6.243  16.016  0.00  0.00    +0.000 A 
ENDROOT
BRANCH   6  10
ATOM     10  C   UNL     1      50.854   4.686  19.250  0.00  0.00    +0.000 C 
ATOM     11  N   UNL     1      50.454   4.576  20.550  0.00  0.00    +0.000 N 
ATOM     12  O   UNL     1      51.991   4.352  18.952  0.00  0.00    +0.000 OA
ATOM     13  H   UNL     1      49.624   4.999  20.923  0.00  0.00    +0.000 HD
ATOM     14  H   UNL     1      51.191   4.318  21.195  0.00  0.00    +0.000 HD
ENDBRANCH   6  10
BRANCH   1  15
ATOM     15  C   UNL     1      48.421   6.541  13.483  0.00  0.00    +0.000 C 
BRANCH  15  19
ATOM     16  C   UNL     1      44.969   4.882  11.384  0.00  0.00    +0.000 A 
ATOM     17  C   UNL     1      45.429   4.247  12.546  0.00  0.00    +0.000 A 
ATOM     18  C   UNL     1      46.527   4.764  13.273  0.00  0.00    +0.000 A 
ATOM     19  C   UNL     1      47.193   5.916  12.840  0.00  0.00    +0.000 A 
ATOM     20  C   UNL     1      46.696   6.554  11.681  0.00  0.00    +0.000 A 
ATOM     21  C   UNL     1      45.613   6.040  10.954  0.00  0.00    +0.000 A 
BRANCH  16  23
ATOM     22  N   UNL     1      43.929   4.545   9.195  0.00  0.00    +0.000 N 
ATOM     23  C   UNL     1      43.840   4.370  10.548  0.00  0.00    +0.000 C 
ATOM     24  O   UNL     1      42.909   3.775  11.059  0.00  0.00    +0.000 OA
ATOM     25  H   UNL     1      43.228   4.069   8.642  0.00  0.00    +0.000 HD
ATOM     26  H   UNL     1      44.794   4.788   8.738  0.00  0.00    +0.000 HD
ENDBRANCH  16  23
ENDBRANCH  15  19
ENDBRANCH   1  15
TORSDOF 4
ENDMDL
MODEL 8
REMARK VINA RESULT:    -5.593      3.763      8.084
REMARK INTER + INTRA:          -7.643
REMARK INTER:                  -7.126
REMARK INTRA:                  -0.517
REMARK UNBOUND:                -0.742
REMARK  Name = 
REMARK  4 active torsions:
REMARK  status: ('A' for Active; 'I' for Inactive)
REMARK    1  A    between atoms: C_2  and  C_4
REMARK    2  A    between atoms: C_7  and  C_8
REMARK    3  A    between atoms: C_8  and  N_9
REMARK    4  A    between atoms: C_14  and  C_15
REMARK                            x       y       z     vdW  Elec       q    Type
REMARK                         _______ _______ _______ _____ _____    ______ ____
ROOT
ATOM      1  N   UNL     1      48.426   6.811  13.703  0.00  0.00    +0.000 N 
ATOM      2  C   UNL     1      48.760   7.691  12.698  0.00  0.00    +0.000 A 
ATOM      3  N   UNL     1      48.036   7.541  11.618  0.00  0.00    +0.000 NA
ATOM      4  C   UNL     1      47.065   6.667  11.994  0.00  0.00    +0.000 A 
ATOM      5  C   UNL     1      45.841   6.444  11.361  0.00  0.00    +0.000 A 
ATOM      6  C   UNL     1      44.904   5.593  11.951  0.00  0.00    +0.000 A 
ATOM      7  C   UNL     1      45.267   4.851  13.087  0.00  0.00    +0.000 A 
ATOM      8  C   UNL     1      46.505   5.065  13.746  0.00  0.00    +0.000 A 
ATOM      9  C   UNL     1      47.347   6.065  13.222  0.00  0.00    +0.000 A 
ENDROOT
BRANCH   6  10
ATOM     10  C   UNL     1      43.539   5.645  11.340  0.00  0.00    +0.000 C 
ATOM     11  N   UNL     1      42.917   6.852  11.212  0.00  0.00    +0.000 N 
ATOM     12  O   UNL     1      42.975   4.643  10.928  0.00  0.00    +0.000 OA
ATOM     13  H   UNL     1      43.204   7.689  11.686  0.00  0.00    +0.000 HD
ATOM     14  H   UNL     1      41.964   6.799  10.871  0.00  0.00    +0.000 HD
ENDBRANCH   6  10
BRANCH   1  15
ATOM     15  C   UNL     1      48.639   7.211  15.104  0.00  0.00    +0.000 C 
BRANCH  15  19
ATOM     16  C   UNL     1      50.885   4.726  17.906  0.00  0.00    +0.000 A 
ATOM     17  C   UNL     1      49.514   4.487  17.731  0.00  0.00    +0.000 A 
ATOM     18  C   UNL     1      48.753   5.249  16.814  0.00  0.00    +0.000 A 
ATOM     19  C   UNL     1      49.346   6.275  16.070  0.00  0.00    +0.000 A 
ATOM     20  C   UNL     1      50.734   6.480  16.244  0.00  0.00    +0.000 A 
ATOM     21  C   UNL     1      51.490   5.732  17.156  0.00  0.00    +0.000 A 
BRANCH  16  23
ATOM     22  N   UNL     1      52.201   2.753  18.505  0.00  0.00    +0.000 N 
ATOM     23  C   UNL     1      51.740   3.984  18.882  0.00  0.00    +0.000 C 
ATOM     24  O   UNL     1      52.052   4.488  19.945  0.00  0.00    +0.000 OA
ATOM     25  H   UNL     1      52.889   2.333  19.118  0.00  0.00    +0.000 HD
ATOM     26  H   UNL     1      52.181   2.438  17.548  0.00  0.00    +0.000 HD
ENDBRANCH  16  23
ENDBRANCH  15  19
ENDBRANCH   1  15
TORSDOF 4
ENDMDL
