MODEL 1
REMARK VINA RESULT:    -7.644      0.000      0.000
REMARK INTER + INTRA:         -10.060
REMARK INTER:                  -9.431
REMARK INTRA:                  -0.629
REMARK UNBOUND:                -0.629
REMARK  Name = 
REMARK  5 active torsions:
REMARK  status: ('A' for Active; 'I' for Inactive)
REMARK    1  A    between atoms: C_1  and  C_2
REMARK    2  A    between atoms: C_4  and  C_5
REMARK    3  A    between atoms: C_10  and  N_11
REMARK    4  A    between atoms: N_11  and  C_12
REMARK    5  A    between atoms: C_12  and  C_13
REMARK                            x       y       z     vdW  Elec       q    Type
REMARK                         _______ _______ _______ _____ _____    ______ ____
ROOT
ATOM      1  N   UNL     1      44.317   4.644  10.257  0.00  0.00    +0.000 N 
ATOM      2  H   UNL     1      43.513   5.202   9.985  0.00  0.00    +0.000 HD
ENDROOT
BRANCH   1   9
ATOM      3  C   UNL     1      44.196   1.781   9.607  0.00  0.00    +0.000 C 
ATOM      4  C   UNL     1      45.089   2.757   8.896  0.00  0.00    +0.000 A 
ATOM      5  N   UNL     1      45.913   2.198   7.979  0.00  0.00    +0.000 NA
ATOM      6  C   UNL     1      46.743   3.038   7.322  0.00  0.00    +0.000 A 
ATOM      7  N   UNL     1      46.785   4.369   7.474  0.00  0.00    +0.000 NA
ATOM      8  C   UNL     1      45.938   4.872   8.402  0.00  0.00    +0.000 A 
ATOM      9  C   UNL     1      45.057   4.128   9.177  0.00  0.00    +0.000 A 
BRANCH   6  10
ATOM     10  C   UNL     1      47.739   2.375   6.398  0.00  0.00    +0.000 C 
ATOM     11  N   UNL     1      47.927   3.017   5.194  0.00  0.00    +0.000 N 
ATOM     12  O   UNL     1      48.337   1.338   6.655  0.00  0.00    +0.000 OA
ATOM     13  H   UNL     1      47.390   3.851   4.980  0.00  0.00    +0.000 HD
ATOM     14  H   UNL     1      48.535   2.608   4.499  0.00  0.00    +0.000 HD
ENDBRANCH   6  10
ENDBRANCH   1   9
BRANCH   1  15
ATOM     15  C   UNL     1      44.821   4.834  11.629  0.00  0.00    +0.000 C 
ATOM     16  C   UNL     1      45.209   3.645  12.491  0.00  0.00    +0.000 C 
ATOM     17  C   UNL     1      43.924   4.348  12.763  0.00  0.00    +0.000 C 
BRANCH  15  18
ATOM     18  C   UNL     1      45.493   6.188  11.847  0.00  0.00    +0.000 A 
ATOM     19  C   UNL     1      46.858   6.295  12.156  0.00  0.00    +0.000 A 
ATOM     20  C   UNL     1      47.472   7.539  12.337  0.00  0.00    +0.000 A 
ATOM     21  C   UNL     1      46.730   8.715  12.208  0.00  0.00    +0.000 A 
ATOM     22 CL   UNL     1      47.555  10.218  12.416  0.00  0.00    +0.000 Cl
ATOM     23  C   UNL     1      45.369   8.640  11.912  0.00  0.00    +0.000 A 
ATOM     24 CL   UNL     1      44.375  10.043  11.745  0.00  0.00    +0.000 Cl
ATOM     25  C   UNL     1      44.761   7.389  11.740  0.00  0.00    +0.000 A 
ENDBRANCH  15  18
ENDBRANCH   1  15
TORSDOF 4
ENDMDL
MODEL 2
REMARK VINA RESULT:    -7.219      4.595      6.889
REMARK INTER + INTRA:          -9.536
REMARK INTER:                  -9.318
REMARK INTRA:                  -0.218
REMARK UNBOUND:                -0.629
REMARK  Name = 
REMARK  5 active torsions:
REMARK  status: ('A' for Active; 'I' for Inactive)
REMARK    1  A    between atoms: C_1  and  C_2
REMARK    2  A    between atoms: C_4  and  C_5
REMARK    3  A    between atoms: C_10  and  N_11
REMARK    4  A    between atoms: N_11  and  C_12
REMARK    5  A    between atoms: C_12  and  C_13
REMARK                            x       y       z     vdW  Elec       q    Type
REMARK                         _______ _______ _______ _____ _____    ______ ____
ROOT
ATOM      1  N   UNL     1      45.539   3.859  12.103  0.00  0.00    +0.000 N 
ATOM      2  H   UNL     1      46.018   3.026  12.430  0.00  0.00    +0.000 HD
ENDROOT
BRANCH   1   9
ATOM      3  C   UNL     1      47.128   4.085  14.565  0.00  0.00    +0.000 C 
ATOM      4  C   UNL     1      46.880   5.232  13.628  0.00  0.00    +0.000 A 
ATOM      5  N   UNL     1      47.375   6.418  14.052  0.00  0.00    +0.000 NA
ATOM      6  C   UNL     1      47.166   7.482  13.244  0.00  0.00    +0.000 A 
ATOM      7  N   UNL     1      46.552   7.448  12.053  0.00  0.00    +0.000 NA
ATOM      8  C   UNL     1      46.080   6.235  11.681  0.00  0.00    +0.000 A 
ATOM      9  C   UNL     1      46.188   5.065  12.422  0.00  0.00    +0.000 A 
BRANCH   6  10
ATOM     10  C   UNL     1      47.616   8.815  13.799  0.00  0.00    +0.000 C 
ATOM     11  N   UNL     1      47.406   8.980  15.150  0.00  0.00    +0.000 N 
ATOM     12  O   UNL     1      48.114   9.711  13.128  0.00  0.00    +0.000 OA
ATOM     13  H   UNL     1      46.951   8.244  15.681  0.00  0.00    +0.000 HD
ATOM     14  H   UNL     1      47.629   9.863  15.587  0.00  0.00    +0.000 HD
ENDBRANCH   6  10
ENDBRANCH   1   9
BRANCH   1  15
ATOM     15  C   UNL     1      44.556   3.676  11.019  0.00  0.00    +0.000 C 
ATOM     16  C   UNL     1      43.177   4.307  11.099  0.00  0.00    +0.000 C 
ATOM     17  C   UNL     1      43.319   2.845  11.348  0.00  0.00    +0.000 C 
BRANCH  15  18
ATOM     18  C   UNL     1      45.195   3.405   9.659  0.00  0.00    +0.000 A 
ATOM     19  C   UNL     1      45.426   4.434   8.732  0.00  0.00    +0.000 A 
ATOM     20  C   UNL     1      46.029   4.182   7.495  0.00  0.00    +0.000 A 
ATOM     21  C   UNL     1      46.423   2.886   7.155  0.00  0.00    +0.000 A 
ATOM     22 CL   UNL     1      47.187   2.650   5.624  0.00  0.00    +0.000 Cl
ATOM     23  C   UNL     1      46.197   1.842   8.051  0.00  0.00    +0.000 A 
ATOM     24 CL   UNL     1      46.642   0.209   7.706  0.00  0.00    +0.000 Cl
ATOM     25  C   UNL     1      45.586   2.102   9.285  0.00  0.00    +0.000 A 
ENDBRANCH  15  18
ENDBRANCH   1  15
TORSDOF 4
ENDMDL
MODEL 3
REMARK VINA RESULT:    -6.476      4.644      6.420
REMARK INTER + INTRA:          -8.620
REMARK INTER:                  -8.138
REMARK INTRA:                  -0.481
REMARK UNBOUND:                -0.629
REMARK  Name = 
REMARK  5 active torsions:
REMARK  status: ('A' for Active; 'I' for Inactive)
REMARK    1  A    between atoms: C_1  and  C_2
REMARK    2  A    between atoms: C_4  and  C_5
REMARK    3  A    between atoms: C_10  and  N_11
REMARK    4  A    between atoms: N_11  and  C_12
REMARK    5  A    between atoms: C_12  and  C_13
REMARK                            x       y       z     vdW  Elec       q    Type
REMARK                         _______ _______ _______ _____ _____    ______ ____
ROOT
ATOM      1  N   UNL     1      44.675   5.451  12.888  0.00  0.00    +0.000 N 
ATOM      2  H   UNL     1      44.397   4.733  13.549  0.00  0.00    +0.000 HD
ENDROOT
BRANCH   1   9
ATOM      3  C   UNL     1      46.846   3.625  13.654  0.00  0.00    +0.000 C 
ATOM      4  C   UNL     1      47.018   5.112  13.525  0.00  0.00    +0.000 A 
ATOM      5  N   UNL     1      48.242   5.568  13.880  0.00  0.00    +0.000 NA
ATOM      6  C   UNL     1      48.438   6.902  13.790  0.00  0.00    +0.000 A 
ATOM      7  N   UNL     1      47.542   7.793  13.343  0.00  0.00    +0.000 NA
ATOM      8  C   UNL     1      46.337   7.280  13.001  0.00  0.00    +0.000 A 
ATOM      9  C   UNL     1      45.981   5.939  13.076  0.00  0.00    +0.000 A 
BRANCH   6  10
ATOM     10  C   UNL     1      49.769   7.399  14.311  0.00  0.00    +0.000 C 
ATOM     11  N   UNL     1      50.617   7.898  13.347  0.00  0.00    +0.000 N 
ATOM     12  O   UNL     1      50.110   7.358  15.486  0.00  0.00    +0.000 OA
ATOM     13  H   UNL     1      50.333   7.883  12.372  0.00  0.00    +0.000 HD
ATOM     14  H   UNL     1      51.545   8.200  13.605  0.00  0.00    +0.000 HD
ENDBRANCH   6  10
ENDBRANCH   1   9
BRANCH   1  15
ATOM     15  C   UNL     1      43.902   5.535  11.635  0.00  0.00    +0.000 C 
ATOM     16  C   UNL     1      42.911   6.662  11.402  0.00  0.00    +0.000 C 
ATOM     17  C   UNL     1      42.397   5.305  11.741  0.00  0.00    +0.000 C 
BRANCH  15  18
ATOM     18  C   UNL     1      44.594   4.868  10.449  0.00  0.00    +0.000 A 
ATOM     19  C   UNL     1      45.466   5.576   9.606  0.00  0.00    +0.000 A 
ATOM     20  C   UNL     1      46.111   4.954   8.532  0.00  0.00    +0.000 A 
ATOM     21  C   UNL     1      45.901   3.597   8.276  0.00  0.00    +0.000 A 
ATOM     22 CL   UNL     1      46.750   2.885   6.951  0.00  0.00    +0.000 Cl
ATOM     23  C   UNL     1      45.033   2.870   9.088  0.00  0.00    +0.000 A 
ATOM     24 CL   UNL     1      44.708   1.192   8.836  0.00  0.00    +0.000 Cl
ATOM     25  C   UNL     1      44.385   3.503  10.158  0.00  0.00    +0.000 A 
ENDBRANCH  15  18
ENDBRANCH   1  15
TORSDOF 4
ENDMDL
MODEL 4
REMARK VINA RESULT:    -6.141      2.074      2.548
REMARK INTER + INTRA:          -8.206
REMARK INTER:                  -8.575
REMARK INTRA:                   0.369
REMARK UNBOUND:                -0.629
REMARK  Name = 
REMARK  5 active torsions:
REMARK  status: ('A' for Active; 'I' for Inactive)
REMARK    1  A    between atoms: C_1  and  C_2
REMARK    2  A    between atoms: C_4  and  C_5
REMARK    3  A    between atoms: C_10  and  N_11
REMARK    4  A    between atoms: N_11  and  C_12
REMARK    5  A    between atoms: C_12  and  C_13
REMARK                            x       y       z     vdW  Elec       q    Type
REMARK                         _______ _______ _______ _____ _____    ______ ____
ROOT
ATOM      1  N   UNL     1      44.255   3.825  10.861  0.00  0.00    +0.000 N 
ATOM      2  H   UNL     1      43.617   3.067  11.085  0.00  0.00    +0.000 HD
ENDROOT
BRANCH   1   9
ATOM      3  C   UNL     1      44.163   1.281   9.393  0.00  0.00    +0.000 C 
ATOM      4  C   UNL     1      44.929   2.485   8.923  0.00  0.00    +0.000 A 
ATOM      5  N   UNL     1      45.658   2.281   7.801  0.00  0.00    +0.000 NA
ATOM      6  C   UNL     1      46.372   3.335   7.346  0.00  0.00    +0.000 A 
ATOM      7  N   UNL     1      46.383   4.561   7.888  0.00  0.00    +0.000 NA
ATOM      8  C   UNL     1      45.634   4.705   9.006  0.00  0.00    +0.000 A 
ATOM      9  C   UNL     1      44.880   3.705   9.606  0.00  0.00    +0.000 A 
BRANCH   6  10
ATOM     10  C   UNL     1      47.275   3.047   6.168  0.00  0.00    +0.000 C 
ATOM     11  N   UNL     1      48.583   2.767   6.496  0.00  0.00    +0.000 N 
ATOM     12  O   UNL     1      46.915   3.071   4.998  0.00  0.00    +0.000 OA
ATOM     13  H   UNL     1      48.874   2.795   7.469  0.00  0.00    +0.000 HD
ATOM     14  H   UNL     1      49.262   2.617   5.765  0.00  0.00    +0.000 HD
ENDBRANCH   6  10
ENDBRANCH   1   9
BRANCH   1  15
ATOM     15  C   UNL     1      44.087   5.079  11.618  0.00  0.00    +0.000 C 
ATOM     16  C   UNL     1      42.729   5.492  12.157  0.00  0.00    +0.000 C 
ATOM     17  C   UNL     1      43.268   6.179  10.950  0.00  0.00    +0.000 C 
BRANCH  15  18
ATOM     18  C   UNL     1      45.361   5.536  12.325  0.00  0.00    +0.000 A 
ATOM     19  C   UNL     1      46.126   6.613  11.849  0.00  0.00    +0.000 A 
ATOM     20  C   UNL     1      47.282   7.039  12.511  0.00  0.00    +0.000 A 
ATOM     21  C   UNL     1      47.702   6.396  13.678  0.00  0.00    +0.000 A 
ATOM     22 CL   UNL     1      49.122   6.989  14.461  0.00  0.00    +0.000 Cl
ATOM     23  C   UNL     1      46.969   5.316  14.170  0.00  0.00    +0.000 A 
ATOM     24 CL   UNL     1      47.422   4.458  15.598  0.00  0.00    +0.000 Cl
ATOM     25  C   UNL     1      45.816   4.892  13.495  0.00  0.00    +0.000 A 
ENDBRANCH  15  18
ENDBRANCH   1  15
TORSDOF 4
ENDMDL
MODEL 5
REMARK VINA RESULT:    -6.130      5.760      7.727
REMARK INTER + INTRA:          -8.193
REMARK INTER:                  -7.798
REMARK INTRA:                  -0.394
REMARK UNBOUND:                -0.629
REMARK  Name = 
REMARK  5 active torsions:
REMARK  status: ('A' for Active; 'I' for Inactive)
REMARK    1  A    between atoms: C_1  and  C_2
REMARK    2  A    between atoms: C_4  and  C_5
REMARK    3  A    between atoms: C_10  and  N_11
REMARK    4  A    between atoms: N_11  and  C_12
REMARK    5  A    between atoms: C_12  and  C_13
REMARK                            x       y       z     vdW  Elec       q    Type
REMARK                         _______ _______ _______ _____ _____    ______ ____
ROOT
ATOM      1  N   UNL     1      47.160   5.513  15.274  0.00  0.00    +0.000 N 
ATOM      2  H   UNL     1      46.182   5.469  15.545  0.00  0.00    +0.000 HD
ENDROOT
BRANCH   1   9
ATOM      3  C   UNL     1      49.043   6.434  17.334  0.00  0.00    +0.000 C 
ATOM      4  C   UNL     1      48.957   5.010  16.863  0.00  0.00    +0.000 A 
ATOM      5  N   UNL     1      49.886   4.185  17.401  0.00  0.00    +0.000 NA
ATOM      6  C   UNL     1      49.853   2.895  16.999  0.00  0.00    +0.000 A 
ATOM      7  N   UNL     1      48.959   2.366  16.152  0.00  0.00    +0.000 NA
ATOM      8  C   UNL     1      48.054   3.238  15.647  0.00  0.00    +0.000 A 
ATOM      9  C   UNL     1      47.990   4.594  15.941  0.00  0.00    +0.000 A 
BRANCH   6  10
ATOM     10  C   UNL     1      50.977   2.025  17.516  0.00  0.00    +0.000 C 
ATOM     11  N   UNL     1      51.876   2.670  18.336  0.00  0.00    +0.000 N 
ATOM     12  O   UNL     1      51.121   0.843  17.234  0.00  0.00    +0.000 OA
ATOM     13  H   UNL     1      51.764   3.662  18.522  0.00  0.00    +0.000 HD
ATOM     14  H   UNL     1      52.685   2.174  18.678  0.00  0.00    +0.000 HD
ENDBRANCH   6  10
ENDBRANCH   1   9
BRANCH   1  15
ATOM     15  C   UNL     1      47.461   6.161  13.984  0.00  0.00    +0.000 C 
ATOM     16  C   UNL     1      48.847   6.705  13.687  0.00  0.00    +0.000 C 
ATOM     17  C   UNL     1      47.751   7.658  14.019  0.00  0.00    +0.000 C 
BRANCH  15  18
ATOM     18  C   UNL     1      46.566   5.684  12.843  0.00  0.00    +0.000 A 
ATOM     19  C   UNL     1      46.638   6.251  11.560  0.00  0.00    +0.000 A 
ATOM     20  C   UNL     1      45.827   5.798  10.513  0.00  0.00    +0.000 A 
ATOM     21  C   UNL     1      44.922   4.756  10.725  0.00  0.00    +0.000 A 
ATOM     22 CL   UNL     1      43.972   4.227   9.384  0.00  0.00    +0.000 Cl
ATOM     23  C   UNL     1      44.820   4.180  11.991  0.00  0.00    +0.000 A 
ATOM     24 CL   UNL     1      43.720   2.896  12.343  0.00  0.00    +0.000 Cl
ATOM     25  C   UNL     1      45.630   4.646  13.036  0.00  0.00    +0.000 A 
ENDBRANCH  15  18
ENDBRANCH   1  15
TORSDOF 4
ENDMDL
MODEL 6
REMARK VINA RESULT:    -5.854      4.369      6.086
REMARK INTER + INTRA:          -7.852
REMARK INTER:                  -7.820
REMARK INTRA:                  -0.032
REMARK UNBOUND:                -0.629
REMARK  Name = 
REMARK  5 active torsions:
REMARK  status: ('A' for Active; 'I' for Inactive)
REMARK    1  A    between atoms: C_1  and  C_2
REMARK    2  A    between atoms: C_4  and  C_5
REMARK    3  A    between atoms: C_10  and  N_11
REMARK    4  A    between atoms: N_11  and  C_12
REMARK    5  A    between atoms: C_12  and  C_13
REMARK                            x       y       z     vdW  Elec       q    Type
REMARK                         _______ _______ _______ _____ _____    ______ ____
ROOT
ATOM      1  N   UNL     1      46.825   6.684  13.981  0.00  0.00    +0.000 N 
ATOM      2  H   UNL     1      46.157   7.379  14.301  0.00  0.00    +0.000 HD
ENDROOT
BRANCH   1   9
ATOM      3  C   UNL     1      45.293   7.337  11.559  0.00  0.00    +0.000 C 
ATOM      4  C   UNL     1      45.457   5.940  12.087  0.00  0.00    +0.000 A 
ATOM      5  N   UNL     1      44.764   4.998  11.406  0.00  0.00    +0.000 NA
ATOM      6  C   UNL     1      44.873   3.727  11.853  0.00  0.00    +0.000 A 
ATOM      7  N   UNL     1      45.637   3.325  12.878  0.00  0.00    +0.000 NA
ATOM      8  C   UNL     1      46.309   4.309  13.519  0.00  0.00    +0.000 A 
ATOM      9  C   UNL     1      46.264   5.660  13.197  0.00  0.00    +0.000 A 
BRANCH   6  10
ATOM     10  C   UNL     1      43.991   2.716  11.155  0.00  0.00    +0.000 C 
ATOM     11  N   UNL     1      44.458   2.289   9.931  0.00  0.00    +0.000 N 
ATOM     12  O   UNL     1      42.929   2.301  11.601  0.00  0.00    +0.000 OA
ATOM     13  H   UNL     1      45.318   2.678   9.558  0.00  0.00    +0.000 HD
ATOM     14  H   UNL     1      43.901   1.656   9.377  0.00  0.00    +0.000 HD
ENDBRANCH   6  10
ENDBRANCH   1   9
BRANCH   1  15
ATOM     15  C   UNL     1      48.246   7.076  13.990  0.00  0.00    +0.000 C 
ATOM     16  C   UNL     1      48.722   8.311  13.246  0.00  0.00    +0.000 C 
ATOM     17  C   UNL     1      48.996   6.966  12.666  0.00  0.00    +0.000 C 
BRANCH  15  18
ATOM     18  C   UNL     1      49.002   6.589  15.224  0.00  0.00    +0.000 A 
ATOM     19  C   UNL     1      50.301   7.032  15.519  0.00  0.00    +0.000 A 
ATOM     20  C   UNL     1      50.982   6.596  16.661  0.00  0.00    +0.000 A 
ATOM     21  C   UNL     1      50.373   5.702  17.544  0.00  0.00    +0.000 A 
ATOM     22 CL   UNL     1      51.258   5.225  18.948  0.00  0.00    +0.000 Cl
ATOM     23  C   UNL     1      49.087   5.234  17.272  0.00  0.00    +0.000 A 
ATOM     24 CL   UNL     1      48.265   4.120  18.304  0.00  0.00    +0.000 Cl
ATOM     25  C   UNL     1      48.416   5.671  16.122  0.00  0.00    +0.000 A 
ENDBRANCH  15  18
ENDBRANCH   1  15
TORSDOF 4
ENDMDL
MODEL 7
REMARK VINA RESULT:    -5.805      4.414      6.122
REMARK INTER + INTRA:          -7.792
REMARK INTER:                  -7.170
REMARK INTRA:                  -0.622
REMARK UNBOUND:                -0.629
REMARK  Name = 
REMARK  5 active torsions:
REMARK  status: ('A' for Active; 'I' for Inactive)
REMARK    1  A    between atoms: C_1  and  C_2
REMARK    2  A    between atoms: C_4  and  C_5
REMARK    3  A    between atoms: C_10  and  N_11
REMARK    4  A    between atoms: N_11  and  C_12
REMARK    5  A    between atoms: C_12  and  C_13
REMARK                            x       y       z     vdW  Elec       q    Type
REMARK                         _______ _______ _______ _____ _____    ______ ____
ROOT
ATOM      1  N   UNL     1      48.309   6.259  12.847  0.00  0.00    +0.000 N 
ATOM      2  H   UNL     1      48.872   5.441  13.056  0.00  0.00    +0.000 HD
ENDROOT
BRANCH   1   9
ATOM      3  C   UNL     1      46.824   4.449  14.624  0.00  0.00    +0.000 C 
ATOM      4  C   UNL     1      46.239   5.059  13.382  0.00  0.00    +0.000 A 
ATOM      5  N   UNL     1      44.987   4.638  13.087  0.00  0.00    +0.000 NA
ATOM      6  C   UNL     1      44.424   5.153  11.972  0.00  0.00    +0.000 A 
ATOM      7  N   UNL     1      44.984   6.067  11.167  0.00  0.00    +0.000 NA
ATOM      8  C   UNL     1      46.235   6.452  11.512  0.00  0.00    +0.000 A 
ATOM      9  C   UNL     1      46.950   5.983  12.607  0.00  0.00    +0.000 A 
BRANCH   6  10
ATOM     10  C   UNL     1      43.079   4.572  11.596  0.00  0.00    +0.000 C 
ATOM     11  N   UNL     1      42.032   5.466  11.637  0.00  0.00    +0.000 N 
ATOM     12  O   UNL     1      42.892   3.401  11.294  0.00  0.00    +0.000 OA
ATOM     13  H   UNL     1      42.199   6.423  11.933  0.00  0.00    +0.000 HD
ATOM     14  H   UNL     1      41.093   5.145  11.453  0.00  0.00    +0.000 HD
ENDBRANCH   6  10
ENDBRANCH   1   9
BRANCH   1  15
ATOM     15  C   UNL     1      48.858   7.564  13.257  0.00  0.00    +0.000 C 
ATOM     16  C   UNL     1      48.898   8.735  12.291  0.00  0.00    +0.000 C 
ATOM     17  C   UNL     1      50.159   8.001  12.591  0.00  0.00    +0.000 C 
BRANCH  15  18
ATOM     18  C   UNL     1      48.764   7.817  14.760  0.00  0.00    +0.000 A 
ATOM     19  C   UNL     1      48.301   9.037  15.278  0.00  0.00    +0.000 A 
ATOM     20  C   UNL     1      48.200   9.256  16.656  0.00  0.00    +0.000 A 
ATOM     21  C   UNL     1      48.559   8.250  17.556  0.00  0.00    +0.000 A 
ATOM     22 CL   UNL     1      48.384   8.576  19.243  0.00  0.00    +0.000 Cl
ATOM     23  C   UNL     1      49.033   7.031  17.072  0.00  0.00    +0.000 A 
ATOM     24 CL   UNL     1      49.508   5.739  18.115  0.00  0.00    +0.000 Cl
ATOM     25  C   UNL     1      49.138   6.824  15.690  0.00  0.00    +0.000 A 
ENDBRANCH  15  18
ENDBRANCH   1  15
TORSDOF 4
ENDMDL
MODEL 8
REMARK VINA RESULT:    -5.765      5.987      7.728
REMARK INTER + INTRA:          -7.742
REMARK INTER:                  -7.414
REMARK INTRA:                  -0.328
REMARK UNBOUND:                -0.629
REMARK  Name = 
REMARK  5 active torsions:
REMARK  status: ('A' for Active; 'I' for Inactive)
REMARK    1  A    between atoms: C_1  and  C_2
REMARK    2  A    between atoms: C_4  and  C_5
REMARK    3  A    between atoms: C_10  and  N_11
REMARK    4  A    between atoms: N_11  and  C_12
REMARK    5  A    between atoms: C_12  and  C_13
REMARK                            x       y       z     vdW  Elec       q    Type
REMARK                         _______ _______ _______ _____ _____    ______ ____
ROOT
ATOM      1  N   UNL     1      48.234   5.877  15.876  0.00  0.00    +0.000 N 
ATOM      2  H   UNL     1      48.953   6.556  15.647  0.00  0.00    +0.000 HD
ENDROOT
BRANCH   1   9
ATOM      3  C   UNL     1      47.735   7.554  13.515  0.00  0.00    +0.000 C 
ATOM      4  C   UNL     1      47.225   6.149  13.658  0.00  0.00    +0.000 A 
ATOM      5  N   UNL     1      46.431   5.735  12.643  0.00  0.00    +0.000 NA
ATOM      6  C   UNL     1      45.940   4.479  12.735  0.00  0.00    +0.000 A 
ATOM      7  N   UNL     1      46.207   3.608  13.718  0.00  0.00    +0.000 NA
ATOM      8  C   UNL     1      47.008   4.076  14.704  0.00  0.00    +0.000 A 
ATOM      9  C   UNL     1      47.554   5.352  14.761  0.00  0.00    +0.000 A 
BRANCH   6  10
ATOM     10  C   UNL     1      44.956   4.087  11.656  0.00  0.00    +0.000 C 
ATOM     11  N   UNL     1      44.512   2.785  11.724  0.00  0.00    +0.000 N 
ATOM     12  O   UNL     1      44.576   4.833  10.762  0.00  0.00    +0.000 OA
ATOM     13  H   UNL     1      44.873   2.168  12.445  0.00  0.00    +0.000 HD
ATOM     14  H   UNL     1      43.896   2.429  11.008  0.00  0.00    +0.000 HD
ENDBRANCH   6  10
ENDBRANCH   1   9
BRANCH   1  15
ATOM     15  C   UNL     1      48.322   5.240  17.203  0.00  0.00    +0.000 C 
ATOM     16  C   UNL     1      47.089   5.072  18.074  0.00  0.00    +0.000 C 
ATOM     17  C   UNL     1      48.075   6.137  18.412  0.00  0.00    +0.000 C 
BRANCH  15  18
ATOM     18  C   UNL     1      49.487   4.261  17.330  0.00  0.00    +0.000 A 
ATOM     19  C   UNL     1      49.295   2.871  17.274  0.00  0.00    +0.000 A 
ATOM     20  C   UNL     1      50.369   1.980  17.373  0.00  0.00    +0.000 A 
ATOM     21  C   UNL     1      51.670   2.461  17.527  0.00  0.00    +0.000 A 
ATOM     22 CL   UNL     1      52.953   1.308  17.615  0.00  0.00    +0.000 Cl
ATOM     23  C   UNL     1      51.892   3.836  17.597  0.00  0.00    +0.000 A 
ATOM     24 CL   UNL     1      53.467   4.516  17.796  0.00  0.00    +0.000 Cl
ATOM     25  C   UNL     1      50.810   4.721  17.504  0.00  0.00    +0.000 A 
ENDBRANCH  15  18
ENDBRANCH   1  15
TORSDOF 4
ENDMDL
MODEL 9
REMARK VINA RESULT:    -5.693      5.352      7.432
REMARK INTER + INTRA:          -7.653
REMARK INTER:                  -7.026
REMARK INTRA:                  -0.626
REMARK UNBOUND:                -0.629
REMARK  Name = 
REMARK  5 active torsions:
REMARK  status: ('A' for Active; 'I' for Inactive)
REMARK    1  A    between atoms: C_1  and  C_2
REMARK    2  A    between atoms: C_4  and  C_5
REMARK    3  A    between atoms: C_10  and  N_11
REMARK    4  A    between atoms: N_11  and  C_12
REMARK    5  A    between atoms: C_12  and  C_13
REMARK                            x       y       z     vdW  Elec       q    Type
REMARK                         _______ _______ _______ _____ _____    ______ ____
ROOT
ATOM      1  N   UNL     1      48.736   6.835  14.093  0.00  0.00    +0.000 N 
ATOM      2  H   UNL     1      49.589   6.429  13.720  0.00  0.00    +0.000 HD
ENDROOT
BRANCH   1   9
ATOM      3  C   UNL     1      46.846   8.015  12.178  0.00  0.00    +0.000 C 
ATOM      4  C   UNL     1      46.600   6.719  12.897  0.00  0.00    +0.000 A 
ATOM      5  N   UNL     1      45.386   6.170  12.661  0.00  0.00    +0.000 NA
ATOM      6  C   UNL     1      45.117   5.007  13.296  0.00  0.00    +0.000 A 
ATOM      7  N   UNL     1      45.961   4.343  14.097  0.00  0.00    +0.000 NA
ATOM      8  C   UNL     1      47.161   4.938  14.293  0.00  0.00    +0.000 A 
ATOM      9  C   UNL     1      47.562   6.147  13.738  0.00  0.00    +0.000 A 
BRANCH   6  10
ATOM     10  C   UNL     1      43.710   4.481  13.118  0.00  0.00    +0.000 C 
ATOM     11  N   UNL     1      42.735   5.451  13.045  0.00  0.00    +0.000 N 
ATOM     12  O   UNL     1      43.418   3.293  13.058  0.00  0.00    +0.000 OA
ATOM     13  H   UNL     1      42.991   6.429  13.141  0.00  0.00    +0.000 HD
ATOM     14  H   UNL     1      41.764   5.181  12.981  0.00  0.00    +0.000 HD
ENDBRANCH   6  10
ENDBRANCH   1   9
BRANCH   1  15
ATOM     15  C   UNL     1      48.883   7.740  15.249  0.00  0.00    +0.000 C 
ATOM     16  C   UNL     1      48.277   9.132  15.235  0.00  0.00    +0.000 C 
ATOM     17  C   UNL     1      49.747   8.980  15.044  0.00  0.00    +0.000 C 
BRANCH  15  18
ATOM     18  C   UNL     1      49.080   7.005  16.573  0.00  0.00    +0.000 A 
ATOM     19  C   UNL     1      48.501   7.464  17.767  0.00  0.00    +0.000 A 
ATOM     20  C   UNL     1      48.670   6.776  18.974  0.00  0.00    +0.000 A 
ATOM     21  C   UNL     1      49.425   5.602  19.014  0.00  0.00    +0.000 A 
ATOM     22 CL   UNL     1      49.571   4.788  20.530  0.00  0.00    +0.000 Cl
ATOM     23  C   UNL     1      50.022   5.127  17.847  0.00  0.00    +0.000 A 
ATOM     24 CL   UNL     1      50.980   3.691  17.810  0.00  0.00    +0.000 Cl
ATOM     25  C   UNL     1      49.853   5.827  16.644  0.00  0.00    +0.000 A 
ENDBRANCH  15  18
ENDBRANCH   1  15
TORSDOF 4
ENDMDL
