MODEL 1
REMARK VINA RESULT:    -7.340      0.000      0.000
REMARK INTER + INTRA:          -8.802
REMARK INTER:                  -8.627
REMARK INTRA:                  -0.175
REMARK UNBOUND:                -0.175
REMARK  Name = 
REMARK  3 active torsions:
REMARK  status: ('A' for Active; 'I' for Inactive)
REMARK    1  A    between atoms: C_2  and  C_4
REMARK    2  A    between atoms: C_8  and  C_9
REMARK    3  A    between atoms: C_9  and  C_10
REMARK                            x       y       z     vdW  Elec       q    Type
REMARK                         _______ _______ _______ _____ _____    ______ ____
ROOT
ATOM      1  C   UNL     1      46.878   4.812  14.001  0.00  0.00    +0.000 A 
ATOM      2  C   UNL     1      47.439   6.048  13.723  0.00  0.00    +0.000 A 
ATOM      3  N   UNL     1      47.140   6.776  12.620  0.00  0.00    +0.000 NA
ATOM      4  C   UNL     1      46.209   6.253  11.788  0.00  0.00    +0.000 A 
ATOM      5  C   UNL     1      45.550   5.034  11.976  0.00  0.00    +0.000 A 
ATOM      6  C   UNL     1      45.922   4.306  13.120  0.00  0.00    +0.000 A 
ENDROOT
BRANCH   1   8
ATOM      7  N   UNL     1      47.128   4.753  16.414  0.00  0.00    +0.000 N 
ATOM      8  C   UNL     1      47.298   4.102  15.225  0.00  0.00    +0.000 C 
ATOM      9  O   UNL     1      47.739   2.960  15.186  0.00  0.00    +0.000 OA
ATOM     10  H   UNL     1      47.304   4.204  17.249  0.00  0.00    +0.000 HD
ATOM     11  H   UNL     1      46.535   5.564  16.509  0.00  0.00    +0.000 HD
ENDBRANCH   1   8
BRANCH   5  12
ATOM     12  C   UNL     1      44.421   4.575  11.060  0.00  0.00    +0.000 C 
ATOM     13  C   UNL     1      43.169   5.444  10.978  0.00  0.00    +0.000 C 
ATOM     14  C   UNL     1      43.105   4.130  11.688  0.00  0.00    +0.000 C 
BRANCH  12  15
ATOM     15  C   UNL     1      44.908   3.856   9.808  0.00  0.00    +0.000 A 
ATOM     16  C   UNL     1      45.497   4.539   8.734  0.00  0.00    +0.000 A 
ATOM     17  C   UNL     1      46.088   3.836   7.685  0.00  0.00    +0.000 A 
ATOM     18  C   UNL     1      46.066   2.453   7.725  0.00  0.00    +0.000 A 
ATOM     19  N   UNL     1      45.473   1.747   8.708  0.00  0.00    +0.000 NA
ATOM     20  C   UNL     1      44.917   2.461   9.715  0.00  0.00    +0.000 A 
ENDBRANCH  12  15
ENDBRANCH   5  12
TORSDOF 3
ENDMDL
MODEL 2
REMARK VINA RESULT:    -7.328      2.377      5.606
REMARK INTER + INTRA:          -8.788
REMARK INTER:                  -8.664
REMARK INTRA:                  -0.124
REMARK UNBOUND:                -0.175
REMARK  Name = 
REMARK  3 active torsions:
REMARK  status: ('A' for Active; 'I' for Inactive)
REMARK    1  A    between atoms: C_2  and  C_4
REMARK    2  A    between atoms: C_8  and  C_9
REMARK    3  A    between atoms: C_9  and  C_10
REMARK                            x       y       z     vdW  Elec       q    Type
REMARK                         _______ _______ _______ _____ _____    ______ ____
ROOT
ATOM      1  C   UNL     1      46.128   2.191   8.133  0.00  0.00    +0.000 A 
ATOM      2  C   UNL     1      45.973   3.281   7.292  0.00  0.00    +0.000 A 
ATOM      3  N   UNL     1      45.291   4.400   7.632  0.00  0.00    +0.000 NA
ATOM      4  C   UNL     1      44.780   4.436   8.886  0.00  0.00    +0.000 A 
ATOM      5  C   UNL     1      44.896   3.416   9.836  0.00  0.00    +0.000 A 
ATOM      6  C   UNL     1      45.587   2.265   9.417  0.00  0.00    +0.000 A 
ENDROOT
BRANCH   1   8
ATOM      7  N   UNL     1      47.953   1.254   6.837  0.00  0.00    +0.000 N 
ATOM      8  C   UNL     1      46.876   1.017   7.644  0.00  0.00    +0.000 C 
ATOM      9  O   UNL     1      46.575  -0.122   7.979  0.00  0.00    +0.000 OA
ATOM     10  H   UNL     1      48.526   0.448   6.613  0.00  0.00    +0.000 HD
ATOM     11  H   UNL     1      48.383   2.164   6.759  0.00  0.00    +0.000 HD
ENDBRANCH   1   8
BRANCH   5  12
ATOM     12  C   UNL     1      44.403   3.585  11.268  0.00  0.00    +0.000 C 
ATOM     13  C   UNL     1      43.321   2.632  11.769  0.00  0.00    +0.000 C 
ATOM     14  C   UNL     1      42.974   4.060  11.499  0.00  0.00    +0.000 C 
BRANCH  12  15
ATOM     15  C   UNL     1      45.488   4.049  12.233  0.00  0.00    +0.000 A 
ATOM     16  C   UNL     1      45.750   5.406  12.469  0.00  0.00    +0.000 A 
ATOM     17  C   UNL     1      46.624   5.794  13.483  0.00  0.00    +0.000 A 
ATOM     18  C   UNL     1      47.234   4.809  14.237  0.00  0.00    +0.000 A 
ATOM     19  N   UNL     1      47.056   3.491  14.024  0.00  0.00    +0.000 NA
ATOM     20  C   UNL     1      46.193   3.149  13.037  0.00  0.00    +0.000 A 
ENDBRANCH  12  15
ENDBRANCH   5  12
TORSDOF 3
ENDMDL
MODEL 3
REMARK VINA RESULT:    -6.766      1.955      2.693
REMARK INTER + INTRA:          -8.128
REMARK INTER:                  -7.996
REMARK INTRA:                  -0.132
REMARK UNBOUND:                -0.175
REMARK  Name = 
REMARK  3 active torsions:
REMARK  status: ('A' for Active; 'I' for Inactive)
REMARK    1  A    between atoms: C_2  and  C_4
REMARK    2  A    between atoms: C_8  and  C_9
REMARK    3  A    between atoms: C_9  and  C_10
REMARK                            x       y       z     vdW  Elec       q    Type
REMARK                         _______ _______ _______ _____ _____    ______ ____
ROOT
ATOM      1  C   UNL     1      46.888   6.624  13.118  0.00  0.00    +0.000 A 
ATOM      2  C   UNL     1      47.524   5.743  13.977  0.00  0.00    +0.000 A 
ATOM      3  N   UNL     1      47.202   4.431  14.079  0.00  0.00    +0.000 NA
ATOM      4  C   UNL     1      46.228   3.984  13.251  0.00  0.00    +0.000 A 
ATOM      5  C   UNL     1      45.536   4.766  12.321  0.00  0.00    +0.000 A 
ATOM      6  C   UNL     1      45.888   6.127  12.281  0.00  0.00    +0.000 A 
ENDROOT
BRANCH   1   8
ATOM      7  N   UNL     1      46.746   8.864  14.040  0.00  0.00    +0.000 N 
ATOM      8  C   UNL     1      47.311   8.038  13.110  0.00  0.00    +0.000 C 
ATOM      9  O   UNL     1      48.164   8.449  12.333  0.00  0.00    +0.000 OA
ATOM     10  H   UNL     1      47.139   9.798  14.102  0.00  0.00    +0.000 HD
ATOM     11  H   UNL     1      46.254   8.514  14.849  0.00  0.00    +0.000 HD
ENDBRANCH   1   8
BRANCH   5  12
ATOM     12  C   UNL     1      44.543   4.160  11.336  0.00  0.00    +0.000 C 
ATOM     13  C   UNL     1      43.099   4.650  11.384  0.00  0.00    +0.000 C 
ATOM     14  C   UNL     1      43.425   3.276  11.874  0.00  0.00    +0.000 C 
BRANCH  12  15
ATOM     15  C   UNL     1      45.162   3.808   9.988  0.00  0.00    +0.000 A 
ATOM     16  C   UNL     1      45.209   2.492   9.507  0.00  0.00    +0.000 A 
ATOM     17  C   UNL     1      45.621   2.229   8.201  0.00  0.00    +0.000 A 
ATOM     18  C   UNL     1      45.993   3.294   7.402  0.00  0.00    +0.000 A 
ATOM     19  N   UNL     1      46.013   4.572   7.827  0.00  0.00    +0.000 NA
ATOM     20  C   UNL     1      45.597   4.793   9.097  0.00  0.00    +0.000 A 
ENDBRANCH  12  15
ENDBRANCH   5  12
TORSDOF 3
ENDMDL
MODEL 4
REMARK VINA RESULT:    -6.384      2.064      2.371
REMARK INTER + INTRA:          -7.679
REMARK INTER:                  -7.690
REMARK INTRA:                   0.011
REMARK UNBOUND:                -0.175
REMARK  Name = 
REMARK  3 active torsions:
REMARK  status: ('A' for Active; 'I' for Inactive)
REMARK    1  A    between atoms: C_2  and  C_4
REMARK    2  A    between atoms: C_8  and  C_9
REMARK    3  A    between atoms: C_9  and  C_10
REMARK                            x       y       z     vdW  Elec       q    Type
REMARK                         _______ _______ _______ _____ _____    ______ ____
ROOT
ATOM      1  C   UNL     1      47.343   6.932  12.942  0.00  0.00    +0.000 A 
ATOM      2  C   UNL     1      46.844   8.224  12.931  0.00  0.00    +0.000 A 
ATOM      3  N   UNL     1      45.644   8.560  12.402  0.00  0.00    +0.000 NA
ATOM      4  C   UNL     1      44.901   7.545  11.901  0.00  0.00    +0.000 A 
ATOM      5  C   UNL     1      45.280   6.198  11.883  0.00  0.00    +0.000 A 
ATOM      6  C   UNL     1      46.549   5.912  12.417  0.00  0.00    +0.000 A 
ENDROOT
BRANCH   1   8
ATOM      7  N   UNL     1      49.761   7.049  12.782  0.00  0.00    +0.000 N 
ATOM      8  C   UNL     1      48.675   6.690  13.529  0.00  0.00    +0.000 C 
ATOM      9  O   UNL     1      48.807   6.227  14.656  0.00  0.00    +0.000 OA
ATOM     10  H   UNL     1      50.660   6.992  13.250  0.00  0.00    +0.000 HD
ATOM     11  H   UNL     1      49.692   7.664  11.985  0.00  0.00    +0.000 HD
ENDBRANCH   1   8
BRANCH   5  12
ATOM     12  C   UNL     1      44.333   5.098  11.418  0.00  0.00    +0.000 C 
ATOM     13  C   UNL     1      42.833   5.353  11.527  0.00  0.00    +0.000 C 
ATOM     14  C   UNL     1      43.482   4.379  12.456  0.00  0.00    +0.000 C 
BRANCH  12  15
ATOM     15  C   UNL     1      44.866   4.298  10.235  0.00  0.00    +0.000 A 
ATOM     16  C   UNL     1      44.703   2.909  10.136  0.00  0.00    +0.000 A 
ATOM     17  C   UNL     1      45.045   2.236   8.964  0.00  0.00    +0.000 A 
ATOM     18  C   UNL     1      45.561   2.970   7.912  0.00  0.00    +0.000 A 
ATOM     19  N   UNL     1      45.784   4.297   7.969  0.00  0.00    +0.000 NA
ATOM     20  C   UNL     1      45.431   4.921   9.118  0.00  0.00    +0.000 A 
ENDBRANCH  12  15
ENDBRANCH   5  12
TORSDOF 3
ENDMDL
MODEL 5
REMARK VINA RESULT:    -6.331      2.483      5.770
REMARK INTER + INTRA:          -7.617
REMARK INTER:                  -7.459
REMARK INTRA:                  -0.157
REMARK UNBOUND:                -0.175
REMARK  Name = 
REMARK  3 active torsions:
REMARK  status: ('A' for Active; 'I' for Inactive)
REMARK    1  A    between atoms: C_2  and  C_4
REMARK    2  A    between atoms: C_8  and  C_9
REMARK    3  A    between atoms: C_9  and  C_10
REMARK                            x       y       z     vdW  Elec       q    Type
REMARK                         _______ _______ _______ _____ _____    ______ ____
ROOT
ATOM      1  C   UNL     1      45.456   3.291   8.761  0.00  0.00    +0.000 A 
ATOM      2  C   UNL     1      44.755   2.118   8.993  0.00  0.00    +0.000 A 
ATOM      3  N   UNL     1      43.932   1.934  10.052  0.00  0.00    +0.000 NA
ATOM      4  C   UNL     1      43.779   2.989  10.887  0.00  0.00    +0.000 A 
ATOM      5  C   UNL     1      44.405   4.232  10.743  0.00  0.00    +0.000 A 
ATOM      6  C   UNL     1      45.274   4.356   9.643  0.00  0.00    +0.000 A 
ENDROOT
BRANCH   1   8
ATOM      7  N   UNL     1      47.023   2.235   7.240  0.00  0.00    +0.000 N 
ATOM      8  C   UNL     1      46.340   3.368   7.582  0.00  0.00    +0.000 C 
ATOM      9  O   UNL     1      46.429   4.388   6.910  0.00  0.00    +0.000 OA
ATOM     10  H   UNL     1      47.527   2.269   6.359  0.00  0.00    +0.000 HD
ATOM     11  H   UNL     1      46.778   1.324   7.597  0.00  0.00    +0.000 HD
ENDBRANCH   1   8
BRANCH   5  12
ATOM     12  C   UNL     1      44.083   5.411  11.653  0.00  0.00    +0.000 C 
ATOM     13  C   UNL     1      42.671   5.508  12.223  0.00  0.00    +0.000 C 
ATOM     14  C   UNL     1      43.102   6.467  11.161  0.00  0.00    +0.000 C 
BRANCH  12  15
ATOM     15  C   UNL     1      45.262   5.857  12.510  0.00  0.00    +0.000 A 
ATOM     16  C   UNL     1      46.042   4.950  13.242  0.00  0.00    +0.000 A 
ATOM     17  C   UNL     1      47.213   5.368  13.871  0.00  0.00    +0.000 A 
ATOM     18  C   UNL     1      47.576   6.698  13.767  0.00  0.00    +0.000 A 
ATOM     19  N   UNL     1      46.841   7.622  13.118  0.00  0.00    +0.000 NA
ATOM     20  C   UNL     1      45.714   7.179  12.510  0.00  0.00    +0.000 A 
ENDBRANCH  12  15
ENDBRANCH   5  12
TORSDOF 3
ENDMDL
MODEL 6
REMARK VINA RESULT:    -5.925      2.457      5.978
REMARK INTER + INTRA:          -7.140
REMARK INTER:                  -7.351
REMARK INTRA:                   0.211
REMARK UNBOUND:                -0.175
REMARK  Name = 
REMARK  3 active torsions:
REMARK  status: ('A' for Active; 'I' for Inactive)
REMARK    1  A    between atoms: C_2  and  C_4
REMARK    2  A    between atoms: C_8  and  C_9
REMARK    3  A    between atoms: C_9  and  C_10
REMARK                            x       y       z     vdW  Elec       q    Type
REMARK                         _______ _______ _______ _____ _____    ______ ____
ROOT
ATOM      1  C   UNL     1      44.730   4.718  10.158  0.00  0.00    +0.000 A 
ATOM      2  C   UNL     1      43.454   4.753  10.696  0.00  0.00    +0.000 A 
ATOM      3  N   UNL     1      43.165   5.286  11.907  0.00  0.00    +0.000 NA
ATOM      4  C   UNL     1      44.199   5.842  12.582  0.00  0.00    +0.000 A 
ATOM      5  C   UNL     1      45.522   5.897  12.133  0.00  0.00    +0.000 A 
ATOM      6  C   UNL     1      45.770   5.300  10.884  0.00  0.00    +0.000 A 
ENDROOT
BRANCH   1   8
ATOM      7  N   UNL     1      44.244   2.934   8.587  0.00  0.00    +0.000 N 
ATOM      8  C   UNL     1      44.926   4.091   8.837  0.00  0.00    +0.000 C 
ATOM      9  O   UNL     1      45.635   4.606   7.980  0.00  0.00    +0.000 OA
ATOM     10  H   UNL     1      44.293   2.586   7.635  0.00  0.00    +0.000 HD
ATOM     11  H   UNL     1      43.464   2.632   9.151  0.00  0.00    +0.000 HD
ENDBRANCH   1   8
BRANCH   5  12
ATOM     12  C   UNL     1      46.604   6.654  12.894  0.00  0.00    +0.000 C 
ATOM     13  C   UNL     1      46.468   8.168  13.014  0.00  0.00    +0.000 C 
ATOM     14  C   UNL     1      47.520   7.594  12.122  0.00  0.00    +0.000 C 
BRANCH  12  15
ATOM     15  C   UNL     1      47.188   5.867  14.062  0.00  0.00    +0.000 A 
ATOM     16  C   UNL     1      48.168   6.402  14.910  0.00  0.00    +0.000 A 
ATOM     17  C   UNL     1      48.552   5.725  16.067  0.00  0.00    +0.000 A 
ATOM     18  C   UNL     1      47.953   4.511  16.347  0.00  0.00    +0.000 A 
ATOM     19  N   UNL     1      47.042   3.928  15.543  0.00  0.00    +0.000 NA
ATOM     20  C   UNL     1      46.685   4.617  14.433  0.00  0.00    +0.000 A 
ENDBRANCH  12  15
ENDBRANCH   5  12
TORSDOF 3
ENDMDL
MODEL 7
REMARK VINA RESULT:    -5.885      2.728      5.652
REMARK INTER + INTRA:          -7.092
REMARK INTER:                  -6.957
REMARK INTRA:                  -0.135
REMARK UNBOUND:                -0.175
REMARK  Name = 
REMARK  3 active torsions:
REMARK  status: ('A' for Active; 'I' for Inactive)
REMARK    1  A    between atoms: C_2  and  C_4
REMARK    2  A    between atoms: C_8  and  C_9
REMARK    3  A    between atoms: C_9  and  C_10
REMARK                            x       y       z     vdW  Elec       q    Type
REMARK                         _______ _______ _______ _____ _____    ______ ____
ROOT
ATOM      1  C   UNL     1      44.846   3.958  10.818  0.00  0.00    +0.000 A 
ATOM      2  C   UNL     1      44.642   3.262  11.999  0.00  0.00    +0.000 A 
ATOM      3  N   UNL     1      44.983   3.741  13.219  0.00  0.00    +0.000 NA
ATOM      4  C   UNL     1      45.514   4.986  13.251  0.00  0.00    +0.000 A 
ATOM      5  C   UNL     1      45.740   5.798  12.134  0.00  0.00    +0.000 A 
ATOM      6  C   UNL     1      45.396   5.238  10.891  0.00  0.00    +0.000 A 
ENDROOT
BRANCH   1   8
ATOM      7  N   UNL     1      44.159   4.155   8.500  0.00  0.00    +0.000 N 
ATOM      8  C   UNL     1      44.452   3.325   9.545  0.00  0.00    +0.000 C 
ATOM      9  O   UNL     1      44.430   2.107   9.412  0.00  0.00    +0.000 OA
ATOM     10  H   UNL     1      44.013   3.704   7.602  0.00  0.00    +0.000 HD
ATOM     11  H   UNL     1      44.419   5.129   8.491  0.00  0.00    +0.000 HD
ENDBRANCH   1   8
BRANCH   5  12
ATOM     12  C   UNL     1      46.222   7.237  12.265  0.00  0.00    +0.000 C 
ATOM     13  C   UNL     1      45.296   8.243  12.943  0.00  0.00    +0.000 C 
ATOM     14  C   UNL     1      45.511   8.322  11.466  0.00  0.00    +0.000 C 
BRANCH  12  15
ATOM     15  C   UNL     1      47.727   7.357  12.474  0.00  0.00    +0.000 A 
ATOM     16  C   UNL     1      48.589   7.813  11.465  0.00  0.00    +0.000 A 
ATOM     17  C   UNL     1      49.929   8.077  11.744  0.00  0.00    +0.000 A 
ATOM     18  C   UNL     1      50.387   7.864  13.031  0.00  0.00    +0.000 A 
ATOM     19  N   UNL     1      49.616   7.382  14.025  0.00  0.00    +0.000 NA
ATOM     20  C   UNL     1      48.317   7.146  13.723  0.00  0.00    +0.000 A 
ENDBRANCH  12  15
ENDBRANCH   5  12
TORSDOF 3
ENDMDL
MODEL 8
REMARK VINA RESULT:    -5.773      3.044      5.876
REMARK INTER + INTRA:          -6.961
REMARK INTER:                  -7.039
REMARK INTRA:                   0.079
REMARK UNBOUND:                -0.175
REMARK  Name = 
REMARK  3 active torsions:
REMARK  status: ('A' for Active; 'I' for Inactive)
REMARK    1  A    between atoms: C_2  and  C_4
REMARK    2  A    between atoms: C_8  and  C_9
REMARK    3  A    between atoms: C_9  and  C_10
REMARK                            x       y       z     vdW  Elec       q    Type
REMARK                         _______ _______ _______ _____ _____    ______ ____
ROOT
ATOM      1  C   UNL     1      44.885   4.208  10.924  0.00  0.00    +0.000 A 
ATOM      2  C   UNL     1      44.517   3.667  12.145  0.00  0.00    +0.000 A 
ATOM      3  N   UNL     1      44.842   4.220  13.339  0.00  0.00    +0.000 NA
ATOM      4  C   UNL     1      45.531   5.384  13.295  0.00  0.00    +0.000 A 
ATOM      5  C   UNL     1      45.932   6.044  12.129  0.00  0.00    +0.000 A 
ATOM      6  C   UNL     1      45.595   5.409  10.920  0.00  0.00    +0.000 A 
ENDROOT
BRANCH   1   8
ATOM      7  N   UNL     1      44.081   4.274   8.636  0.00  0.00    +0.000 N 
ATOM      8  C   UNL     1      44.491   3.505   9.689  0.00  0.00    +0.000 C 
ATOM      9  O   UNL     1      44.568   2.286   9.590  0.00  0.00    +0.000 OA
ATOM     10  H   UNL     1      43.934   3.784   7.759  0.00  0.00    +0.000 HD
ATOM     11  H   UNL     1      44.256   5.266   8.588  0.00  0.00    +0.000 HD
ENDBRANCH   1   8
BRANCH   5  12
ATOM     12  C   UNL     1      46.592   7.417  12.162  0.00  0.00    +0.000 C 
ATOM     13  C   UNL     1      48.065   7.512  11.775  0.00  0.00    +0.000 C 
ATOM     14  C   UNL     1      47.670   7.685  13.206  0.00  0.00    +0.000 C 
BRANCH  12  15
ATOM     15  C   UNL     1      45.650   8.554  11.782  0.00  0.00    +0.000 A 
ATOM     16  C   UNL     1      44.415   8.325  11.158  0.00  0.00    +0.000 A 
ATOM     17  C   UNL     1      43.505   9.367  10.984  0.00  0.00    +0.000 A 
ATOM     18  C   UNL     1      43.858  10.629  11.428  0.00  0.00    +0.000 A 
ATOM     19  N   UNL     1      45.049  10.914  11.990  0.00  0.00    +0.000 NA
ATOM     20  C   UNL     1      45.905   9.877  12.152  0.00  0.00    +0.000 A 
ENDBRANCH  12  15
ENDBRANCH   5  12
TORSDOF 3
ENDMDL
MODEL 9
REMARK VINA RESULT:    -5.681      2.800      3.802
REMARK INTER + INTRA:          -6.853
REMARK INTER:                  -7.070
REMARK INTRA:                   0.217
REMARK UNBOUND:                -0.175
REMARK  Name = 
REMARK  3 active torsions:
REMARK  status: ('A' for Active; 'I' for Inactive)
REMARK    1  A    between atoms: C_2  and  C_4
REMARK    2  A    between atoms: C_8  and  C_9
REMARK    3  A    between atoms: C_9  and  C_10
REMARK                            x       y       z     vdW  Elec       q    Type
REMARK                         _______ _______ _______ _____ _____    ______ ____
ROOT
ATOM      1  C   UNL     1      47.926   4.579  16.284  0.00  0.00    +0.000 A 
ATOM      2  C   UNL     1      48.827   5.559  16.668  0.00  0.00    +0.000 A 
ATOM      3  N   UNL     1      49.099   6.660  15.927  0.00  0.00    +0.000 NA
ATOM      4  C   UNL     1      48.403   6.795  14.773  0.00  0.00    +0.000 A 
ATOM      5  C   UNL     1      47.447   5.894  14.294  0.00  0.00    +0.000 A 
ATOM      6  C   UNL     1      47.228   4.754  15.088  0.00  0.00    +0.000 A 
ENDROOT
BRANCH   1   8
ATOM      7  N   UNL     1      48.845   2.840  17.704  0.00  0.00    +0.000 N 
ATOM      8  C   UNL     1      47.728   3.413  17.166  0.00  0.00    +0.000 C 
ATOM      9  O   UNL     1      46.608   2.998  17.442  0.00  0.00    +0.000 OA
ATOM     10  H   UNL     1      48.684   2.122  18.402  0.00  0.00    +0.000 HD
ATOM     11  H   UNL     1      49.741   3.304  17.716  0.00  0.00    +0.000 HD
ENDBRANCH   1   8
BRANCH   5  12
ATOM     12  C   UNL     1      46.615   6.182  13.051  0.00  0.00    +0.000 C 
ATOM     13  C   UNL     1      47.343   6.659  11.798  0.00  0.00    +0.000 C 
ATOM     14  C   UNL     1      46.498   7.622  12.567  0.00  0.00    +0.000 C 
BRANCH  12  15
ATOM     15  C   UNL     1      45.406   5.266  12.903  0.00  0.00    +0.000 A 
ATOM     16  C   UNL     1      44.090   5.748  12.948  0.00  0.00    +0.000 A 
ATOM     17  C   UNL     1      43.017   4.915  12.635  0.00  0.00    +0.000 A 
ATOM     18  C   UNL     1      43.283   3.601  12.295  0.00  0.00    +0.000 A 
ATOM     19  N   UNL     1      44.522   3.072  12.282  0.00  0.00    +0.000 NA
ATOM     20  C   UNL     1      45.542   3.912  12.581  0.00  0.00    +0.000 A 
ENDBRANCH  12  15
ENDBRANCH   5  12
TORSDOF 3
ENDMDL
