MODEL 1
REMARK VINA RESULT:    -8.339      0.000      0.000
REMARK INTER + INTRA:         -11.175
REMARK INTER:                 -10.776
REMARK INTRA:                  -0.399
REMARK UNBOUND:                -0.399
REMARK  Name = 
REMARK  5 active torsions:
REMARK  status: ('A' for Active; 'I' for Inactive)
REMARK    1  A    between atoms: C_2  and  C_4
REMARK    2  A    between atoms: C_7  and  N_8
REMARK    3  A    between atoms: N_8  and  C_9
REMARK    4  A    between atoms: C_9  and  C_10
REMARK    5  A    between atoms: C_13  and  C_14
REMARK                            x       y       z     vdW  Elec       q    Type
REMARK                         _______ _______ _______ _____ _____    ______ ____
ROOT
ATOM      1  C   UNL     1      44.606   4.739  11.131  0.00  0.00    +0.000 C 
ATOM      2  C   UNL     1      43.279   5.489  11.042  0.00  0.00    +0.000 C 
ATOM      3  C   UNL     1      43.356   4.216  11.807  0.00  0.00    +0.000 C 
ATOM      4  F   UNL     1      42.718   3.118  11.257  0.00  0.00    +0.000 F 
ENDROOT
BRANCH   1   5
ATOM      5  C   UNL     1      45.125   4.035   9.883  0.00  0.00    +0.000 A 
ATOM      6  C   UNL     1      45.687   4.730   8.804  0.00  0.00    +0.000 A 
ATOM      7  C   UNL     1      46.264   4.045   7.732  0.00  0.00    +0.000 A 
ATOM      8  C   UNL     1      46.286   2.652   7.743  0.00  0.00    +0.000 A 
ATOM      9  N   UNL     1      45.704   1.947   8.751  0.00  0.00    +0.000 NA
ATOM     10  C   UNL     1      45.142   2.646   9.768  0.00  0.00    +0.000 A 
BRANCH   8  11
ATOM     11  C   UNL     1      47.012   1.888   6.642  0.00  0.00    +0.000 C 
ATOM     12  F   UNL     1      46.798   0.539   6.695  0.00  0.00    +0.000 F 
ATOM     13  F   UNL     1      46.620   2.264   5.390  0.00  0.00    +0.000 F 
ATOM     14  F   UNL     1      48.366   2.042   6.677  0.00  0.00    +0.000 F 
ENDBRANCH   8  11
ENDBRANCH   1   5
BRANCH   1  15
ATOM     15  N   UNL     1      45.669   5.455  11.881  0.00  0.00    +0.000 N 
ATOM     16  H   UNL     1      46.280   6.035  11.309  0.00  0.00    +0.000 HD
BRANCH  15  20
ATOM     17  C   UNL     1      47.463   4.005  15.309  0.00  0.00    +0.000 A 
ATOM     18  N   UNL     1      47.134   3.087  14.371  0.00  0.00    +0.000 NA
ATOM     19  C   UNL     1      46.565   3.582  13.248  0.00  0.00    +0.000 A 
ATOM     20  C   UNL     1      46.338   4.925  12.997  0.00  0.00    +0.000 A 
ATOM     21  C   UNL     1      46.702   5.748  14.057  0.00  0.00    +0.000 A 
ATOM     22  N   UNL     1      47.269   5.332  15.208  0.00  0.00    +0.000 NA
BRANCH  17  24
ATOM     23  N   UNL     1      47.178   2.901  17.468  0.00  0.00    +0.000 N 
ATOM     24  C   UNL     1      48.069   3.475  16.588  0.00  0.00    +0.000 C 
ATOM     25  O   UNL     1      49.262   3.540  16.862  0.00  0.00    +0.000 OA
ATOM     26  H   UNL     1      47.523   2.535  18.343  0.00  0.00    +0.000 HD
ATOM     27  H   UNL     1      46.196   2.853  17.239  0.00  0.00    +0.000 HD
ENDBRANCH  17  24
ENDBRANCH  15  20
ENDBRANCH   1  15
TORSDOF 5
ENDMDL
MODEL 2
REMARK VINA RESULT:    -8.251      4.321      6.818
REMARK INTER + INTRA:         -11.061
REMARK INTER:                 -10.867
REMARK INTRA:                  -0.193
REMARK UNBOUND:                -0.399
REMARK  Name = 
REMARK  5 active torsions:
REMARK  status: ('A' for Active; 'I' for Inactive)
REMARK    1  A    between atoms: C_2  and  C_4
REMARK    2  A    between atoms: C_7  and  N_8
REMARK    3  A    between atoms: N_8  and  C_9
REMARK    4  A    between atoms: C_9  and  C_10
REMARK    5  A    between atoms: C_13  and  C_14
REMARK                            x       y       z     vdW  Elec       q    Type
REMARK                         _______ _______ _______ _____ _____    ______ ____
ROOT
ATOM      1  C   UNL     1      43.885   4.853  11.409  0.00  0.00    +0.000 C 
ATOM      2  C   UNL     1      43.303   3.673  12.186  0.00  0.00    +0.000 C 
ATOM      3  C   UNL     1      42.674   5.015  12.304  0.00  0.00    +0.000 C 
ATOM      4  F   UNL     1      42.829   5.674  13.511  0.00  0.00    +0.000 F 
ENDROOT
BRANCH   1   5
ATOM      5  C   UNL     1      45.222   5.427  11.858  0.00  0.00    +0.000 A 
ATOM      6  C   UNL     1      45.699   6.667  11.410  0.00  0.00    +0.000 A 
ATOM      7  C   UNL     1      46.870   7.218  11.936  0.00  0.00    +0.000 A 
ATOM      8  C   UNL     1      47.565   6.529  12.927  0.00  0.00    +0.000 A 
ATOM      9  N   UNL     1      47.156   5.300  13.347  0.00  0.00    +0.000 NA
ATOM     10  C   UNL     1      46.024   4.791  12.804  0.00  0.00    +0.000 A 
BRANCH   8  11
ATOM     11  C   UNL     1      48.777   7.164  13.596  0.00  0.00    +0.000 C 
ATOM     12  F   UNL     1      48.602   8.492  13.872  0.00  0.00    +0.000 F 
ATOM     13  F   UNL     1      49.084   6.588  14.794  0.00  0.00    +0.000 F 
ATOM     14  F   UNL     1      49.911   7.097  12.842  0.00  0.00    +0.000 F 
ENDBRANCH   8  11
ENDBRANCH   1   5
BRANCH   1  15
ATOM     15  N   UNL     1      43.765   4.736   9.933  0.00  0.00    +0.000 N 
ATOM     16  H   UNL     1      42.810   4.750   9.579  0.00  0.00    +0.000 HD
BRANCH  15  20
ATOM     17  C   UNL     1      46.453   2.566   7.668  0.00  0.00    +0.000 A 
ATOM     18  N   UNL     1      45.659   1.853   8.501  0.00  0.00    +0.000 NA
ATOM     19  C   UNL     1      44.771   2.579   9.219  0.00  0.00    +0.000 A 
ATOM     20  C   UNL     1      44.613   3.952   9.134  0.00  0.00    +0.000 A 
ATOM     21  C   UNL     1      45.512   4.552   8.260  0.00  0.00    +0.000 A 
ATOM     22  N   UNL     1      46.426   3.901   7.513  0.00  0.00    +0.000 NA
BRANCH  17  24
ATOM     23  N   UNL     1      48.549   2.513   6.417  0.00  0.00    +0.000 N 
ATOM     24  C   UNL     1      47.476   1.782   6.878  0.00  0.00    +0.000 C 
ATOM     25  O   UNL     1      47.389   0.583   6.639  0.00  0.00    +0.000 OA
ATOM     26  H   UNL     1      49.262   2.045   5.877  0.00  0.00    +0.000 HD
ATOM     27  H   UNL     1      48.615   3.501   6.614  0.00  0.00    +0.000 HD
ENDBRANCH  17  24
ENDBRANCH  15  20
ENDBRANCH   1  15
TORSDOF 5
ENDMDL
MODEL 3
REMARK VINA RESULT:    -7.948      1.647      1.784
REMARK INTER + INTRA:         -10.669
REMARK INTER:                 -10.596
REMARK INTRA:                  -0.073
REMARK UNBOUND:                -0.399
REMARK  Name = 
REMARK  5 active torsions:
REMARK  status: ('A' for Active; 'I' for Inactive)
REMARK    1  A    between atoms: C_2  and  C_4
REMARK    2  A    between atoms: C_7  and  N_8
REMARK    3  A    between atoms: N_8  and  C_9
REMARK    4  A    between atoms: C_9  and  C_10
REMARK    5  A    between atoms: C_13  and  C_14
REMARK                            x       y       z     vdW  Elec       q    Type
REMARK                         _______ _______ _______ _____ _____    ______ ____
ROOT
ATOM      1  C   UNL     1      44.298   4.872  11.038  0.00  0.00    +0.000 C 
ATOM      2  C   UNL     1      42.782   5.057  11.084  0.00  0.00    +0.000 C 
ATOM      3  C   UNL     1      43.450   4.196  12.095  0.00  0.00    +0.000 C 
ATOM      4  F   UNL     1      43.234   2.833  11.995  0.00  0.00    +0.000 F 
ENDROOT
BRANCH   1   5
ATOM      5  C   UNL     1      44.891   4.033   9.913  0.00  0.00    +0.000 A 
ATOM      6  C   UNL     1      45.510   4.603   8.793  0.00  0.00    +0.000 A 
ATOM      7  C   UNL     1      46.151   3.804   7.842  0.00  0.00    +0.000 A 
ATOM      8  C   UNL     1      46.180   2.423   8.019  0.00  0.00    +0.000 A 
ATOM      9  N   UNL     1      45.545   1.834   9.069  0.00  0.00    +0.000 NA
ATOM     10  C   UNL     1      44.922   2.640   9.963  0.00  0.00    +0.000 A 
BRANCH   8  11
ATOM     11  C   UNL     1      46.972   1.544   7.058  0.00  0.00    +0.000 C 
ATOM     12  F   UNL     1      46.741   0.209   7.239  0.00  0.00    +0.000 F 
ATOM     13  F   UNL     1      46.671   1.785   5.749  0.00  0.00    +0.000 F 
ATOM     14  F   UNL     1      48.322   1.697   7.171  0.00  0.00    +0.000 F 
ENDBRANCH   8  11
ENDBRANCH   1   5
BRANCH   1  15
ATOM     15  N   UNL     1      45.077   6.104  11.320  0.00  0.00    +0.000 N 
ATOM     16  H   UNL     1      45.276   6.681  10.504  0.00  0.00    +0.000 HD
BRANCH  15  20
ATOM     17  C   UNL     1      47.916   6.507  14.295  0.00  0.00    +0.000 A 
ATOM     18  N   UNL     1      47.546   5.242  13.987  0.00  0.00    +0.000 NA
ATOM     19  C   UNL     1      46.630   5.129  12.997  0.00  0.00    +0.000 A 
ATOM     20  C   UNL     1      46.094   6.189  12.287  0.00  0.00    +0.000 A 
ATOM     21  C   UNL     1      46.544   7.427  12.728  0.00  0.00    +0.000 A 
ATOM     22  N   UNL     1      47.450   7.623  13.708  0.00  0.00    +0.000 NA
BRANCH  17  24
ATOM     23  N   UNL     1      48.365   6.777  16.680  0.00  0.00    +0.000 N 
ATOM     24  C   UNL     1      48.912   6.663  15.421  0.00  0.00    +0.000 C 
ATOM     25  O   UNL     1      50.127   6.697  15.262  0.00  0.00    +0.000 OA
ATOM     26  H   UNL     1      48.982   6.891  17.471  0.00  0.00    +0.000 HD
ATOM     27  H   UNL     1      47.364   6.752  16.804  0.00  0.00    +0.000 HD
ENDBRANCH  17  24
ENDBRANCH  15  20
ENDBRANCH   1  15
TORSDOF 5
ENDMDL
MODEL 4
REMARK VINA RESULT:    -7.409      3.220      3.885
REMARK INTER + INTRA:          -9.973
REMARK INTER:                 -10.127
REMARK INTRA:                   0.154
REMARK UNBOUND:                -0.399
REMARK  Name = 
REMARK  5 active torsions:
REMARK  status: ('A' for Active; 'I' for Inactive)
REMARK    1  A    between atoms: C_2  and  C_4
REMARK    2  A    between atoms: C_7  and  N_8
REMARK    3  A    between atoms: N_8  and  C_9
REMARK    4  A    between atoms: C_9  and  C_10
REMARK    5  A    between atoms: C_13  and  C_14
REMARK                            x       y       z     vdW  Elec       q    Type
REMARK                         _______ _______ _______ _____ _____    ______ ____
ROOT
ATOM      1  C   UNL     1      44.290   4.683  11.055  0.00  0.00    +0.000 C 
ATOM      2  C   UNL     1      43.159   3.958  11.782  0.00  0.00    +0.000 C 
ATOM      3  C   UNL     1      44.497   4.065  12.421  0.00  0.00    +0.000 C 
ATOM      4  F   UNL     1      45.239   2.900  12.514  0.00  0.00    +0.000 F 
ENDROOT
BRANCH   1   5
ATOM      5  C   UNL     1      44.913   4.013   9.836  0.00  0.00    +0.000 A 
ATOM      6  C   UNL     1      45.590   4.734   8.843  0.00  0.00    +0.000 A 
ATOM      7  C   UNL     1      46.253   4.076   7.804  0.00  0.00    +0.000 A 
ATOM      8  C   UNL     1      46.248   2.684   7.764  0.00  0.00    +0.000 A 
ATOM      9  N   UNL     1      45.557   1.956   8.684  0.00  0.00    +0.000 NA
ATOM     10  C   UNL     1      44.914   2.629   9.668  0.00  0.00    +0.000 A 
BRANCH   8  11
ATOM     11  C   UNL     1      47.061   1.945   6.708  0.00  0.00    +0.000 C 
ATOM     12  F   UNL     1      46.901   0.588   6.761  0.00  0.00    +0.000 F 
ATOM     13  F   UNL     1      46.720   2.296   5.434  0.00  0.00    +0.000 F 
ATOM     14  F   UNL     1      48.404   2.155   6.813  0.00  0.00    +0.000 F 
ENDBRANCH   8  11
ENDBRANCH   1   5
BRANCH   1  15
ATOM     15  N   UNL     1      44.071   6.140  10.872  0.00  0.00    +0.000 N 
ATOM     16  H   UNL     1      43.695   6.405   9.963  0.00  0.00    +0.000 HD
BRANCH  15  20
ATOM     17  C   UNL     1      46.697   9.001  12.282  0.00  0.00    +0.000 A 
ATOM     18  N   UNL     1      45.475   9.443  11.904  0.00  0.00    +0.000 NA
ATOM     19  C   UNL     1      44.622   8.489  11.464  0.00  0.00    +0.000 A 
ATOM     20  C   UNL     1      44.904   7.135  11.409  0.00  0.00    +0.000 A 
ATOM     21  C   UNL     1      46.202   6.831  11.803  0.00  0.00    +0.000 A 
ATOM     22  N   UNL     1      47.111   7.722  12.249  0.00  0.00    +0.000 NA
BRANCH  17  24
ATOM     23  N   UNL     1      48.142   9.895  14.036  0.00  0.00    +0.000 N 
ATOM     24  C   UNL     1      47.680  10.050  12.747  0.00  0.00    +0.000 C 
ATOM     25  O   UNL     1      48.059  10.990  12.057  0.00  0.00    +0.000 OA
ATOM     26  H   UNL     1      48.796  10.570  14.404  0.00  0.00    +0.000 HD
ATOM     27  H   UNL     1      47.825   9.121  14.600  0.00  0.00    +0.000 HD
ENDBRANCH  17  24
ENDBRANCH  15  20
ENDBRANCH   1  15
TORSDOF 5
ENDMDL
MODEL 5
REMARK VINA RESULT:    -6.374      4.533      7.791
REMARK INTER + INTRA:          -8.635
REMARK INTER:                  -8.646
REMARK INTRA:                   0.010
REMARK UNBOUND:                -0.399
REMARK  Name = 
REMARK  5 active torsions:
REMARK  status: ('A' for Active; 'I' for Inactive)
REMARK    1  A    between atoms: C_2  and  C_4
REMARK    2  A    between atoms: C_7  and  N_8
REMARK    3  A    between atoms: N_8  and  C_9
REMARK    4  A    between atoms: C_9  and  C_10
REMARK    5  A    between atoms: C_13  and  C_14
REMARK                            x       y       z     vdW  Elec       q    Type
REMARK                         _______ _______ _______ _____ _____    ______ ____
ROOT
ATOM      1  C   UNL     1      47.776   7.526  13.803  0.00  0.00    +0.000 C 
ATOM      2  C   UNL     1      48.474   8.864  14.040  0.00  0.00    +0.000 C 
ATOM      3  C   UNL     1      48.905   7.998  12.911  0.00  0.00    +0.000 C 
ATOM      4  F   UNL     1      50.141   7.386  13.030  0.00  0.00    +0.000 F 
ENDROOT
BRANCH   1   5
ATOM      5  C   UNL     1      48.032   6.391  14.787  0.00  0.00    +0.000 A 
ATOM      6  C   UNL     1      48.751   6.573  15.976  0.00  0.00    +0.000 A 
ATOM      7  C   UNL     1      48.862   5.542  16.913  0.00  0.00    +0.000 A 
ATOM      8  C   UNL     1      48.239   4.322  16.662  0.00  0.00    +0.000 A 
ATOM      9  N   UNL     1      47.577   4.097  15.495  0.00  0.00    +0.000 NA
ATOM     10  C   UNL     1      47.503   5.115  14.604  0.00  0.00    +0.000 A 
BRANCH   8  11
ATOM     11  C   UNL     1      48.249   3.225  17.720  0.00  0.00    +0.000 C 
ATOM     12  F   UNL     1      47.113   2.463  17.713  0.00  0.00    +0.000 F 
ATOM     13  F   UNL     1      49.274   2.340  17.557  0.00  0.00    +0.000 F 
ATOM     14  F   UNL     1      48.357   3.701  18.993  0.00  0.00    +0.000 F 
ENDBRANCH   8  11
ENDBRANCH   1   5
BRANCH   1  15
ATOM     15  N   UNL     1      46.352   7.637  13.399  0.00  0.00    +0.000 N 
ATOM     16  H   UNL     1      45.726   7.976  14.128  0.00  0.00    +0.000 HD
BRANCH  15  20
ATOM     17  C   UNL     1      44.682   4.894  10.800  0.00  0.00    +0.000 A 
ATOM     18  N   UNL     1      44.080   5.021  12.005  0.00  0.00    +0.000 NA
ATOM     19  C   UNL     1      44.628   5.938  12.835  0.00  0.00    +0.000 A 
ATOM     20  C   UNL     1      45.709   6.745  12.524  0.00  0.00    +0.000 A 
ATOM     21  C   UNL     1      46.240   6.488  11.265  0.00  0.00    +0.000 A 
ATOM     22  N   UNL     1      45.754   5.590  10.384  0.00  0.00    +0.000 NA
BRANCH  17  24
ATOM     23  N   UNL     1      44.073   4.210   8.536  0.00  0.00    +0.000 N 
ATOM     24  C   UNL     1      44.109   3.853   9.866  0.00  0.00    +0.000 C 
ATOM     25  O   UNL     1      43.691   2.759  10.230  0.00  0.00    +0.000 OA
ATOM     26  H   UNL     1      43.695   3.557   7.865  0.00  0.00    +0.000 HD
ATOM     27  H   UNL     1      44.417   5.113   8.242  0.00  0.00    +0.000 HD
ENDBRANCH  17  24
ENDBRANCH  15  20
ENDBRANCH   1  15
TORSDOF 5
ENDMDL
MODEL 6
REMARK VINA RESULT:    -6.184      2.188      3.038
REMARK INTER + INTRA:          -8.390
REMARK INTER:                  -8.228
REMARK INTRA:                  -0.162
REMARK UNBOUND:                -0.399
REMARK  Name = 
REMARK  5 active torsions:
REMARK  status: ('A' for Active; 'I' for Inactive)
REMARK    1  A    between atoms: C_2  and  C_4
REMARK    2  A    between atoms: C_7  and  N_8
REMARK    3  A    between atoms: N_8  and  C_9
REMARK    4  A    between atoms: C_9  and  C_10
REMARK    5  A    between atoms: C_13  and  C_14
REMARK                            x       y       z     vdW  Elec       q    Type
REMARK                         _______ _______ _______ _____ _____    ______ ____
ROOT
ATOM      1  C   UNL     1      46.540   6.854  12.305  0.00  0.00    +0.000 C 
ATOM      2  C   UNL     1      46.569   8.307  11.836  0.00  0.00    +0.000 C 
ATOM      3  C   UNL     1      45.598   7.890  12.882  0.00  0.00    +0.000 C 
ATOM      4  F   UNL     1      44.265   7.848  12.514  0.00  0.00    +0.000 F 
ENDROOT
BRANCH   1   5
ATOM      5  C   UNL     1      45.989   5.797  11.355  0.00  0.00    +0.000 A 
ATOM      6  C   UNL     1      46.104   5.903   9.963  0.00  0.00    +0.000 A 
ATOM      7  C   UNL     1      45.697   4.858   9.128  0.00  0.00    +0.000 A 
ATOM      8  C   UNL     1      45.180   3.694   9.692  0.00  0.00    +0.000 A 
ATOM      9  N   UNL     1      45.008   3.581  11.038  0.00  0.00    +0.000 NA
ATOM     10  C   UNL     1      45.401   4.620  11.814  0.00  0.00    +0.000 A 
BRANCH   8  11
ATOM     11  C   UNL     1      44.840   2.500   8.809  0.00  0.00    +0.000 C 
ATOM     12  F   UNL     1      45.915   1.691   8.564  0.00  0.00    +0.000 F 
ATOM     13  F   UNL     1      43.896   1.684   9.361  0.00  0.00    +0.000 F 
ATOM     14  F   UNL     1      44.365   2.852   7.581  0.00  0.00    +0.000 F 
ENDBRANCH   8  11
ENDBRANCH   1   5
BRANCH   1  15
ATOM     15  N   UNL     1      47.763   6.413  13.022  0.00  0.00    +0.000 N 
ATOM     16  H   UNL     1      48.478   5.994  12.429  0.00  0.00    +0.000 HD
BRANCH  15  20
ATOM     17  C   UNL     1      47.838   4.590  16.728  0.00  0.00    +0.000 A 
ATOM     18  N   UNL     1      48.587   5.709  16.596  0.00  0.00    +0.000 NA
ATOM     19  C   UNL     1      48.535   6.303  15.382  0.00  0.00    +0.000 A 
ATOM     20  C   UNL     1      47.764   5.868  14.317  0.00  0.00    +0.000 A 
ATOM     21  C   UNL     1      47.069   4.696  14.588  0.00  0.00    +0.000 A 
ATOM     22  N   UNL     1      47.073   4.043  15.768  0.00  0.00    +0.000 NA
BRANCH  17  24
ATOM     23  N   UNL     1      47.138   2.747  18.170  0.00  0.00    +0.000 N 
ATOM     24  C   UNL     1      47.905   3.887  18.065  0.00  0.00    +0.000 C 
ATOM     25  O   UNL     1      48.577   4.278  19.013  0.00  0.00    +0.000 OA
ATOM     26  H   UNL     1      47.138   2.239  19.042  0.00  0.00    +0.000 HD
ATOM     27  H   UNL     1      46.585   2.432  17.387  0.00  0.00    +0.000 HD
ENDBRANCH  17  24
ENDBRANCH  15  20
ENDBRANCH   1  15
TORSDOF 5
ENDMDL
MODEL 7
REMARK VINA RESULT:    -6.044      2.825      4.624
REMARK INTER + INTRA:          -8.210
REMARK INTER:                  -7.963
REMARK INTRA:                  -0.247
REMARK UNBOUND:                -0.399
REMARK  Name = 
REMARK  5 active torsions:
REMARK  status: ('A' for Active; 'I' for Inactive)
REMARK    1  A    between atoms: C_2  and  C_4
REMARK    2  A    between atoms: C_7  and  N_8
REMARK    3  A    between atoms: N_8  and  C_9
REMARK    4  A    between atoms: C_9  and  C_10
REMARK    5  A    between atoms: C_13  and  C_14
REMARK                            x       y       z     vdW  Elec       q    Type
REMARK                         _______ _______ _______ _____ _____    ______ ____
ROOT
ATOM      1  C   UNL     1      47.613   7.095  13.536  0.00  0.00    +0.000 C 
ATOM      2  C   UNL     1      48.212   8.334  12.874  0.00  0.00    +0.000 C 
ATOM      3  C   UNL     1      47.175   8.490  13.927  0.00  0.00    +0.000 C 
ATOM      4  F   UNL     1      45.929   8.931  13.516  0.00  0.00    +0.000 F 
ENDROOT
BRANCH   1   5
ATOM      5  C   UNL     1      46.669   6.222  12.718  0.00  0.00    +0.000 A 
ATOM      6  C   UNL     1      46.447   6.429  11.350  0.00  0.00    +0.000 A 
ATOM      7  C   UNL     1      45.671   5.536  10.606  0.00  0.00    +0.000 A 
ATOM      8  C   UNL     1      45.121   4.421  11.234  0.00  0.00    +0.000 A 
ATOM      9  N   UNL     1      45.276   4.219  12.571  0.00  0.00    +0.000 NA
ATOM     10  C   UNL     1      46.023   5.114  13.263  0.00  0.00    +0.000 A 
BRANCH   8  11
ATOM     11  C   UNL     1      44.371   3.375  10.419  0.00  0.00    +0.000 C 
ATOM     12  F   UNL     1      43.823   3.881   9.272  0.00  0.00    +0.000 F 
ATOM     13  F   UNL     1      45.171   2.348  10.010  0.00  0.00    +0.000 F 
ATOM     14  F   UNL     1      43.334   2.803  11.094  0.00  0.00    +0.000 F 
ENDBRANCH   8  11
ENDBRANCH   1   5
BRANCH   1  15
ATOM     15  N   UNL     1      48.571   6.310  14.354  0.00  0.00    +0.000 N 
ATOM     16  H   UNL     1      48.966   5.495  13.886  0.00  0.00    +0.000 HD
BRANCH  15  20
ATOM     17  C   UNL     1      48.325   5.511  18.400  0.00  0.00    +0.000 A 
ATOM     18  N   UNL     1      48.919   6.677  18.055  0.00  0.00    +0.000 NA
ATOM     19  C   UNL     1      48.972   6.930  16.727  0.00  0.00    +0.000 A 
ATOM     20  C   UNL     1      48.448   6.113  15.740  0.00  0.00    +0.000 A 
ATOM     21  C   UNL     1      47.892   4.941  16.239  0.00  0.00    +0.000 A 
ATOM     22  N   UNL     1      47.804   4.614  17.544  0.00  0.00    +0.000 NA
BRANCH  17  24
ATOM     23  N   UNL     1      48.546   3.874  20.199  0.00  0.00    +0.000 N 
ATOM     24  C   UNL     1      48.281   5.187  19.876  0.00  0.00    +0.000 C 
ATOM     25  O   UNL     1      48.026   6.006  20.752  0.00  0.00    +0.000 OA
ATOM     26  H   UNL     1      48.524   3.597  21.170  0.00  0.00    +0.000 HD
ATOM     27  H   UNL     1      48.752   3.203  19.474  0.00  0.00    +0.000 HD
ENDBRANCH  17  24
ENDBRANCH  15  20
ENDBRANCH   1  15
TORSDOF 5
ENDMDL
MODEL 8
REMARK VINA RESULT:    -5.925      5.252      8.360
REMARK INTER + INTRA:          -8.056
REMARK INTER:                  -7.540
REMARK INTRA:                  -0.516
REMARK UNBOUND:                -0.399
REMARK  Name = 
REMARK  5 active torsions:
REMARK  status: ('A' for Active; 'I' for Inactive)
REMARK    1  A    between atoms: C_2  and  C_4
REMARK    2  A    between atoms: C_7  and  N_8
REMARK    3  A    between atoms: N_8  and  C_9
REMARK    4  A    between atoms: C_9  and  C_10
REMARK    5  A    between atoms: C_13  and  C_14
REMARK                            x       y       z     vdW  Elec       q    Type
REMARK                         _______ _______ _______ _____ _____    ______ ____
ROOT
ATOM      1  C   UNL     1      47.662   7.864  13.161  0.00  0.00    +0.000 C 
ATOM      2  C   UNL     1      47.957   9.122  12.347  0.00  0.00    +0.000 C 
ATOM      3  C   UNL     1      48.475   7.807  11.885  0.00  0.00    +0.000 C 
ATOM      4  F   UNL     1      49.841   7.606  11.981  0.00  0.00    +0.000 F 
ENDROOT
BRANCH   1   5
ATOM      5  C   UNL     1      48.368   7.686  14.500  0.00  0.00    +0.000 A 
ATOM      6  C   UNL     1      48.361   8.674  15.493  0.00  0.00    +0.000 A 
ATOM      7  C   UNL     1      48.913   8.429  16.753  0.00  0.00    +0.000 A 
ATOM      8  C   UNL     1      49.469   7.181  17.025  0.00  0.00    +0.000 A 
ATOM      9  N   UNL     1      49.538   6.218  16.065  0.00  0.00    +0.000 NA
ATOM     10  C   UNL     1      49.005   6.497  14.851  0.00  0.00    +0.000 A 
BRANCH   8  11
ATOM     11  C   UNL     1      49.971   6.854  18.426  0.00  0.00    +0.000 C 
ATOM     12  F   UNL     1      51.195   6.245  18.428  0.00  0.00    +0.000 F 
ATOM     13  F   UNL     1      50.122   7.962  19.207  0.00  0.00    +0.000 F 
ATOM     14  F   UNL     1      49.147   6.014  19.114  0.00  0.00    +0.000 F 
ENDBRANCH   8  11
ENDBRANCH   1   5
BRANCH   1  15
ATOM     15  N   UNL     1      46.229   7.479  13.202  0.00  0.00    +0.000 N 
ATOM     16  H   UNL     1      45.744   7.724  14.064  0.00  0.00    +0.000 HD
BRANCH  15  20
ATOM     17  C   UNL     1      44.549   4.021  11.688  0.00  0.00    +0.000 A 
ATOM     18  N   UNL     1      44.517   5.106  10.880  0.00  0.00    +0.000 NA
ATOM     19  C   UNL     1      45.090   6.224  11.385  0.00  0.00    +0.000 A 
ATOM     20  C   UNL     1      45.710   6.311  12.619  0.00  0.00    +0.000 A 
ATOM     21  C   UNL     1      45.644   5.129  13.349  0.00  0.00    +0.000 A 
ATOM     22  N   UNL     1      45.090   3.978  12.918  0.00  0.00    +0.000 NA
BRANCH  17  24
ATOM     23  N   UNL     1      44.463   2.228  10.032  0.00  0.00    +0.000 N 
ATOM     24  C   UNL     1      43.887   2.769  11.162  0.00  0.00    +0.000 C 
ATOM     25  O   UNL     1      42.903   2.246  11.672  0.00  0.00    +0.000 OA
ATOM     26  H   UNL     1      44.060   1.394   9.631  0.00  0.00    +0.000 HD
ATOM     27  H   UNL     1      45.272   2.665   9.615  0.00  0.00    +0.000 HD
ENDBRANCH  17  24
ENDBRANCH  15  20
ENDBRANCH   1  15
TORSDOF 5
ENDMDL
MODEL 9
REMARK VINA RESULT:    -5.882      3.493      5.239
REMARK INTER + INTRA:          -8.000
REMARK INTER:                  -8.139
REMARK INTRA:                   0.139
REMARK UNBOUND:                -0.399
REMARK  Name = 
REMARK  5 active torsions:
REMARK  status: ('A' for Active; 'I' for Inactive)
REMARK    1  A    between atoms: C_2  and  C_4
REMARK    2  A    between atoms: C_7  and  N_8
REMARK    3  A    between atoms: N_8  and  C_9
REMARK    4  A    between atoms: C_9  and  C_10
REMARK    5  A    between atoms: C_13  and  C_14
REMARK                            x       y       z     vdW  Elec       q    Type
REMARK                         _______ _______ _______ _____ _____    ______ ____
ROOT
ATOM      1  C   UNL     1      47.902   7.351  13.570  0.00  0.00    +0.000 C 
ATOM      2  C   UNL     1      49.208   7.035  12.845  0.00  0.00    +0.000 C 
ATOM      3  C   UNL     1      48.590   8.378  12.696  0.00  0.00    +0.000 C 
ATOM      4  F   UNL     1      48.034   8.677  11.464  0.00  0.00    +0.000 F 
ENDROOT
BRANCH   1   5
ATOM      5  C   UNL     1      46.620   6.693  13.073  0.00  0.00    +0.000 A 
ATOM      6  C   UNL     1      45.539   7.431  12.574  0.00  0.00    +0.000 A 
ATOM      7  C   UNL     1      44.431   6.791  12.014  0.00  0.00    +0.000 A 
ATOM      8  C   UNL     1      44.409   5.400  11.942  0.00  0.00    +0.000 A 
ATOM      9  N   UNL     1      45.420   4.653  12.463  0.00  0.00    +0.000 NA
ATOM     10  C   UNL     1      46.472   5.309  13.012  0.00  0.00    +0.000 A 
BRANCH   8  11
ATOM     11  C   UNL     1      43.265   4.687  11.231  0.00  0.00    +0.000 C 
ATOM     12  F   UNL     1      42.048   5.266  11.459  0.00  0.00    +0.000 F 
ATOM     13  F   UNL     1      43.408   4.679   9.874  0.00  0.00    +0.000 F 
ATOM     14  F   UNL     1      43.122   3.384  11.605  0.00  0.00    +0.000 F 
ENDBRANCH   8  11
ENDBRANCH   1   5
BRANCH   1  15
ATOM     15  N   UNL     1      48.009   7.375  15.050  0.00  0.00    +0.000 N 
ATOM     16  H   UNL     1      48.046   8.307  15.461  0.00  0.00    +0.000 HD
BRANCH  15  20
ATOM     17  C   UNL     1      50.103   4.449  17.081  0.00  0.00    +0.000 A 
ATOM     18  N   UNL     1      50.765   5.605  16.845  0.00  0.00    +0.000 NA
ATOM     19  C   UNL     1      50.057   6.559  16.197  0.00  0.00    +0.000 A 
ATOM     20  C   UNL     1      48.735   6.438  15.803  0.00  0.00    +0.000 A 
ATOM     21  C   UNL     1      48.193   5.190  16.087  0.00  0.00    +0.000 A 
ATOM     22  N   UNL     1      48.833   4.189  16.725  0.00  0.00    +0.000 NA
BRANCH  17  24
ATOM     23  N   UNL     1      51.567   3.745  18.904  0.00  0.00    +0.000 N 
ATOM     24  C   UNL     1      50.882   3.355  17.774  0.00  0.00    +0.000 C 
ATOM     25  O   UNL     1      50.930   2.194  17.384  0.00  0.00    +0.000 OA
ATOM     26  H   UNL     1      52.111   3.059  19.406  0.00  0.00    +0.000 HD
ATOM     27  H   UNL     1      51.526   4.703  19.219  0.00  0.00    +0.000 HD
ENDBRANCH  17  24
ENDBRANCH  15  20
ENDBRANCH   1  15
TORSDOF 5
ENDMDL
