MODEL 1
REMARK VINA RESULT:    -7.972      0.000      0.000
REMARK INTER + INTRA:         -11.744
REMARK INTER:                 -10.768
REMARK INTRA:                  -0.976
REMARK UNBOUND:                -0.976
REMARK  Name = 
REMARK  7 active torsions:
REMARK  status: ('A' for Active; 'I' for Inactive)
REMARK    1  A    between atoms: C_1  and  C_2
REMARK    2  A    between atoms: C_5  and  C_6
REMARK    3  A    between atoms: N_8  and  C_9
REMARK    4  A    between atoms: C_9  and  C_10
REMARK    5  A    between atoms: C_13  and  C_14
REMARK    6  A    between atoms: C_14  and  N_15
REMARK    7  A    between atoms: C_16  and  C_18
REMARK                            x       y       z     vdW  Elec       q    Type
REMARK                         _______ _______ _______ _____ _____    ______ ____
ROOT
ATOM      1  C   UNL     1      44.900   6.267  11.334  0.00  0.00    +0.000 A 
ATOM      2  C   UNL     1      44.567   7.585  11.672  0.00  0.00    +0.000 A 
ATOM      3  C   UNL     1      45.406   8.349  12.495  0.00  0.00    +0.000 A 
ATOM      4  C   UNL     1      46.611   7.820  12.979  0.00  0.00    +0.000 A 
ATOM      5  C   UNL     1      46.946   6.504  12.634  0.00  0.00    +0.000 A 
ATOM      6  C   UNL     1      46.108   5.740  11.812  0.00  0.00    +0.000 A 
ENDROOT
BRANCH   1   7
ATOM      7  C   UNL     1      43.993   5.439  10.455  0.00  0.00    +0.000 C 
BRANCH   7  10
ATOM      8  C   UNL     1      44.777   3.268   9.555  0.00  0.00    +0.000 C 
ATOM      9  O   UNL     1      44.144   2.630  10.398  0.00  0.00    +0.000 OA
ATOM     10  N   UNL     1      44.747   4.645   9.520  0.00  0.00    +0.000 N 
ATOM     11  H   UNL     1      45.246   5.112   8.772  0.00  0.00    +0.000 HD
BRANCH   8  16
ATOM     12  C   UNL     1      47.856   2.347   5.322  0.00  0.00    +0.000 C 
ATOM     13  C   UNL     1      47.046   2.185   6.562  0.00  0.00    +0.000 A 
ATOM     14  C   UNL     1      46.806   1.046   7.301  0.00  0.00    +0.000 A 
ATOM     15  C   UNL     1      45.975   1.307   8.433  0.00  0.00    +0.000 A 
ATOM     16  C   UNL     1      45.604   2.638   8.531  0.00  0.00    +0.000 A 
ATOM     17  S   UNL     1      46.270   3.548   7.236  0.00  0.00    +0.000 S 
ENDBRANCH   8  16
ENDBRANCH   7  10
ENDBRANCH   1   7
BRANCH   4  18
ATOM     18  C   UNL     1      47.514   8.631  13.876  0.00  0.00    +0.000 C 
BRANCH  18  19
ATOM     19  N   UNL     1      47.935   7.876  15.031  0.00  0.00    +0.000 N 
ATOM     20  C   UNL     1      49.200   7.350  15.125  0.00  0.00    +0.000 C 
ATOM     21  O   UNL     1      50.045   7.529  14.252  0.00  0.00    +0.000 OA
ATOM     22  H   UNL     1      47.203   7.521  15.639  0.00  0.00    +0.000 HD
BRANCH  20  23
ATOM     23  C   UNL     1      49.515   6.612  16.357  0.00  0.00    +0.000 A 
ATOM     24  C   UNL     1      50.535   7.058  17.188  0.00  0.00    +0.000 A 
ATOM     25  S   UNL     1      50.734   6.118  18.597  0.00  0.00    +0.000 S 
ATOM     26  C   UNL     1      49.502   5.045  18.121  0.00  0.00    +0.000 A 
ATOM     27  N   UNL     1      49.177   3.969  18.885  0.00  0.00    +0.000 NA
ATOM     28  C   UNL     1      48.249   3.221  18.389  0.00  0.00    +0.000 A 
ATOM     29  N   UNL     1      47.611   3.457  17.199  0.00  0.00    +0.000 N 
ATOM     30  C   UNL     1      47.879   4.552  16.411  0.00  0.00    +0.000 A 
ATOM     31  O   UNL     1      47.252   4.764  15.378  0.00  0.00    +0.000 OA
ATOM     32  C   UNL     1      48.931   5.415  16.915  0.00  0.00    +0.000 A 
ATOM     33  H   UNL     1      46.883   2.840  16.869  0.00  0.00    +0.000 HD
ENDBRANCH  20  23
ENDBRANCH  18  19
ENDBRANCH   4  18
TORSDOF 6
ENDMDL
MODEL 2
REMARK VINA RESULT:    -7.419      2.267      2.536
REMARK INTER + INTRA:         -10.997
REMARK INTER:                 -10.240
REMARK INTRA:                  -0.758
REMARK UNBOUND:                -0.976
REMARK  Name = 
REMARK  7 active torsions:
REMARK  status: ('A' for Active; 'I' for Inactive)
REMARK    1  A    between atoms: C_1  and  C_2
REMARK    2  A    between atoms: C_5  and  C_6
REMARK    3  A    between atoms: N_8  and  C_9
REMARK    4  A    between atoms: C_9  and  C_10
REMARK    5  A    between atoms: C_13  and  C_14
REMARK    6  A    between atoms: C_14  and  N_15
REMARK    7  A    between atoms: C_16  and  C_18
REMARK                            x       y       z     vdW  Elec       q    Type
REMARK                         _______ _______ _______ _____ _____    ______ ____
ROOT
ATOM      1  C   UNL     1      45.270   5.952  11.892  0.00  0.00    +0.000 A 
ATOM      2  C   UNL     1      46.359   5.555  12.679  0.00  0.00    +0.000 A 
ATOM      3  C   UNL     1      47.169   6.507  13.314  0.00  0.00    +0.000 A 
ATOM      4  C   UNL     1      46.893   7.876  13.198  0.00  0.00    +0.000 A 
ATOM      5  C   UNL     1      45.800   8.271  12.416  0.00  0.00    +0.000 A 
ATOM      6  C   UNL     1      44.990   7.320  11.780  0.00  0.00    +0.000 A 
ENDROOT
BRANCH   1   7
ATOM      7  C   UNL     1      44.402   4.928  11.199  0.00  0.00    +0.000 C 
BRANCH   7  10
ATOM      8  C   UNL     1      44.761   3.040   9.634  0.00  0.00    +0.000 C 
ATOM      9  O   UNL     1      43.807   2.411  10.092  0.00  0.00    +0.000 OA
ATOM     10  N   UNL     1      45.109   4.281  10.124  0.00  0.00    +0.000 N 
ATOM     11  H   UNL     1      45.871   4.773   9.672  0.00  0.00    +0.000 HD
BRANCH   8  16
ATOM     12  C   UNL     1      47.768   2.635   5.270  0.00  0.00    +0.000 C 
ATOM     13  C   UNL     1      47.010   2.331   6.517  0.00  0.00    +0.000 A 
ATOM     14  C   UNL     1      46.876   1.131   7.181  0.00  0.00    +0.000 A 
ATOM     15  C   UNL     1      46.063   1.253   8.350  0.00  0.00    +0.000 A 
ATOM     16  C   UNL     1      45.599   2.543   8.548  0.00  0.00    +0.000 A 
ATOM     17  S   UNL     1      46.159   3.584   7.302  0.00  0.00    +0.000 S 
ENDBRANCH   8  16
ENDBRANCH   7  10
ENDBRANCH   1   7
BRANCH   4  18
ATOM     18  C   UNL     1      47.768   8.907  13.868  0.00  0.00    +0.000 C 
BRANCH  18  19
ATOM     19  N   UNL     1      47.500   8.995  15.283  0.00  0.00    +0.000 N 
ATOM     20  C   UNL     1      48.495   8.840  16.216  0.00  0.00    +0.000 C 
ATOM     21  O   UNL     1      49.667   8.660  15.893  0.00  0.00    +0.000 OA
ATOM     22  H   UNL     1      46.530   8.906  15.573  0.00  0.00    +0.000 HD
BRANCH  20  23
ATOM     23  C   UNL     1      48.100   8.965  17.627  0.00  0.00    +0.000 A 
ATOM     24  C   UNL     1      47.817  10.217  18.156  0.00  0.00    +0.000 A 
ATOM     25  S   UNL     1      47.325  10.177  19.790  0.00  0.00    +0.000 S 
ATOM     26  C   UNL     1      47.529   8.490  19.866  0.00  0.00    +0.000 A 
ATOM     27  N   UNL     1      47.300   7.808  21.020  0.00  0.00    +0.000 NA
ATOM     28  C   UNL     1      47.526   6.539  20.945  0.00  0.00    +0.000 A 
ATOM     29  N   UNL     1      47.954   5.888  19.817  0.00  0.00    +0.000 N 
ATOM     30  C   UNL     1      48.163   6.529  18.618  0.00  0.00    +0.000 A 
ATOM     31  O   UNL     1      48.494   5.909  17.613  0.00  0.00    +0.000 OA
ATOM     32  C   UNL     1      47.943   7.962  18.654  0.00  0.00    +0.000 A 
ATOM     33  H   UNL     1      48.102   4.890  19.819  0.00  0.00    +0.000 HD
ENDBRANCH  20  23
ENDBRANCH  18  19
ENDBRANCH   4  18
TORSDOF 6
ENDMDL
MODEL 3
REMARK VINA RESULT:    -7.359      5.009      9.584
REMARK INTER + INTRA:         -10.917
REMARK INTER:                 -10.140
REMARK INTRA:                  -0.778
REMARK UNBOUND:                -0.976
REMARK  Name = 
REMARK  7 active torsions:
REMARK  status: ('A' for Active; 'I' for Inactive)
REMARK    1  A    between atoms: C_1  and  C_2
REMARK    2  A    between atoms: C_5  and  C_6
REMARK    3  A    between atoms: N_8  and  C_9
REMARK    4  A    between atoms: C_9  and  C_10
REMARK    5  A    between atoms: C_13  and  C_14
REMARK    6  A    between atoms: C_14  and  N_15
REMARK    7  A    between atoms: C_16  and  C_18
REMARK                            x       y       z     vdW  Elec       q    Type
REMARK                         _______ _______ _______ _____ _____    ______ ____
ROOT
ATOM      1  C   UNL     1      51.429   3.135  17.695  0.00  0.00    +0.000 A 
ATOM      2  C   UNL     1      50.722   2.043  17.176  0.00  0.00    +0.000 A 
ATOM      3  C   UNL     1      49.341   2.125  16.949  0.00  0.00    +0.000 A 
ATOM      4  C   UNL     1      48.640   3.310  17.212  0.00  0.00    +0.000 A 
ATOM      5  C   UNL     1      49.350   4.403  17.725  0.00  0.00    +0.000 A 
ATOM      6  C   UNL     1      50.730   4.322  17.951  0.00  0.00    +0.000 A 
ENDROOT
BRANCH   1   7
ATOM      7  C   UNL     1      52.916   3.046  17.949  0.00  0.00    +0.000 C 
BRANCH   7  10
ATOM      8  C   UNL     1      54.119   0.916  18.346  0.00  0.00    +0.000 C 
ATOM      9  O   UNL     1      54.294   1.176  19.537  0.00  0.00    +0.000 OA
ATOM     10  N   UNL     1      53.449   1.782  17.509  0.00  0.00    +0.000 N 
ATOM     11  H   UNL     1      53.290   1.490  16.552  0.00  0.00    +0.000 HD
BRANCH   8  16
ATOM     12  C   UNL     1      55.649  -4.088  17.412  0.00  0.00    +0.000 C 
ATOM     13  C   UNL     1      55.308  -2.645  17.258  0.00  0.00    +0.000 A 
ATOM     14  C   UNL     1      55.351  -1.858  16.127  0.00  0.00    +0.000 A 
ATOM     15  C   UNL     1      54.941  -0.515  16.393  0.00  0.00    +0.000 A 
ATOM     16  C   UNL     1      54.593  -0.313  17.718  0.00  0.00    +0.000 A 
ATOM     17  S   UNL     1      54.778  -1.763  18.620  0.00  0.00    +0.000 S 
ENDBRANCH   8  16
ENDBRANCH   7  10
ENDBRANCH   1   7
BRANCH   4  18
ATOM     18  C   UNL     1      47.151   3.401  16.983  0.00  0.00    +0.000 C 
BRANCH  18  19
ATOM     19  N   UNL     1      46.827   4.383  15.976  0.00  0.00    +0.000 N 
ATOM     20  C   UNL     1      46.955   4.110  14.637  0.00  0.00    +0.000 C 
ATOM     21  O   UNL     1      47.313   3.007  14.229  0.00  0.00    +0.000 OA
ATOM     22  H   UNL     1      46.761   5.350  16.282  0.00  0.00    +0.000 HD
BRANCH  20  23
ATOM     23  C   UNL     1      46.580   5.185  13.707  0.00  0.00    +0.000 A 
ATOM     24  C   UNL     1      47.474   6.217  13.448  0.00  0.00    +0.000 A 
ATOM     25  S   UNL     1      46.901   7.351  12.309  0.00  0.00    +0.000 S 
ATOM     26  C   UNL     1      45.415   6.536  12.163  0.00  0.00    +0.000 A 
ATOM     27  N   UNL     1      44.434   7.009  11.349  0.00  0.00    +0.000 NA
ATOM     28  C   UNL     1      43.348   6.312  11.360  0.00  0.00    +0.000 A 
ATOM     29  N   UNL     1      43.156   5.178  12.107  0.00  0.00    +0.000 N 
ATOM     30  C   UNL     1      44.131   4.642  12.915  0.00  0.00    +0.000 A 
ATOM     31  O   UNL     1      43.946   3.596  13.529  0.00  0.00    +0.000 OA
ATOM     32  C   UNL     1      45.367   5.401  12.955  0.00  0.00    +0.000 A 
ATOM     33  H   UNL     1      42.285   4.670  12.063  0.00  0.00    +0.000 HD
ENDBRANCH  20  23
ENDBRANCH  18  19
ENDBRANCH   4  18
TORSDOF 6
ENDMDL
MODEL 4
REMARK VINA RESULT:    -6.725      4.807      7.802
REMARK INTER + INTRA:         -10.060
REMARK INTER:                  -9.199
REMARK INTRA:                  -0.862
REMARK UNBOUND:                -0.976
REMARK  Name = 
REMARK  7 active torsions:
REMARK  status: ('A' for Active; 'I' for Inactive)
REMARK    1  A    between atoms: C_1  and  C_2
REMARK    2  A    between atoms: C_5  and  C_6
REMARK    3  A    between atoms: N_8  and  C_9
REMARK    4  A    between atoms: C_9  and  C_10
REMARK    5  A    between atoms: C_13  and  C_14
REMARK    6  A    between atoms: C_14  and  N_15
REMARK    7  A    between atoms: C_16  and  C_18
REMARK                            x       y       z     vdW  Elec       q    Type
REMARK                         _______ _______ _______ _____ _____    ______ ____
ROOT
ATOM      1  C   UNL     1      50.475   8.969  11.334  0.00  0.00    +0.000 A 
ATOM      2  C   UNL     1      50.062   7.672  11.665  0.00  0.00    +0.000 A 
ATOM      3  C   UNL     1      48.746   7.422  12.078  0.00  0.00    +0.000 A 
ATOM      4  C   UNL     1      47.806   8.460  12.146  0.00  0.00    +0.000 A 
ATOM      5  C   UNL     1      48.219   9.755  11.808  0.00  0.00    +0.000 A 
ATOM      6  C   UNL     1      49.534  10.006  11.395  0.00  0.00    +0.000 A 
ENDROOT
BRANCH   1   7
ATOM      7  C   UNL     1      51.895   9.242  10.897  0.00  0.00    +0.000 C 
BRANCH   7  10
ATOM      8  C   UNL     1      52.887   8.174   8.893  0.00  0.00    +0.000 C 
ATOM      9  O   UNL     1      52.819   9.216   8.240  0.00  0.00    +0.000 OA
ATOM     10  N   UNL     1      52.457   8.113  10.201  0.00  0.00    +0.000 N 
ATOM     11  H   UNL     1      52.586   7.243  10.704  0.00  0.00    +0.000 HD
BRANCH   8  16
ATOM     12  C   UNL     1      55.774   3.793   8.042  0.00  0.00    +0.000 C 
ATOM     13  C   UNL     1      54.752   4.873   7.942  0.00  0.00    +0.000 A 
ATOM     14  C   UNL     1      53.713   5.005   7.047  0.00  0.00    +0.000 A 
ATOM     15  C   UNL     1      52.947   6.187   7.284  0.00  0.00    +0.000 A 
ATOM     16  C   UNL     1      53.420   6.926   8.356  0.00  0.00    +0.000 A 
ATOM     17  S   UNL     1      54.795   6.169   9.052  0.00  0.00    +0.000 S 
ENDBRANCH   8  16
ENDBRANCH   7  10
ENDBRANCH   1   7
BRANCH   4  18
ATOM     18  C   UNL     1      46.391   8.201  12.603  0.00  0.00    +0.000 C 
BRANCH  18  19
ATOM     19  N   UNL     1      45.968   6.857  12.293  0.00  0.00    +0.000 N 
ATOM     20  C   UNL     1      44.795   6.607  11.625  0.00  0.00    +0.000 C 
ATOM     21  O   UNL     1      44.070   7.513  11.223  0.00  0.00    +0.000 OA
ATOM     22  H   UNL     1      46.416   6.104  12.809  0.00  0.00    +0.000 HD
BRANCH  20  23
ATOM     23  C   UNL     1      44.480   5.196  11.355  0.00  0.00    +0.000 A 
ATOM     24  C   UNL     1      43.721   4.472  12.266  0.00  0.00    +0.000 A 
ATOM     25  S   UNL     1      43.404   2.869  11.774  0.00  0.00    +0.000 S 
ATOM     26  C   UNL     1      44.318   3.067  10.353  0.00  0.00    +0.000 A 
ATOM     27  N   UNL     1      44.481   2.040   9.476  0.00  0.00    +0.000 NA
ATOM     28  C   UNL     1      45.224   2.318   8.458  0.00  0.00    +0.000 A 
ATOM     29  N   UNL     1      45.815   3.535   8.234  0.00  0.00    +0.000 N 
ATOM     30  C   UNL     1      45.648   4.613   9.072  0.00  0.00    +0.000 A 
ATOM     31  O   UNL     1      46.146   5.704   8.813  0.00  0.00    +0.000 OA
ATOM     32  C   UNL     1      44.837   4.346  10.243  0.00  0.00    +0.000 A 
ATOM     33  H   UNL     1      46.377   3.694   7.410  0.00  0.00    +0.000 HD
ENDBRANCH  20  23
ENDBRANCH  18  19
ENDBRANCH   4  18
TORSDOF 6
ENDMDL
MODEL 5
REMARK VINA RESULT:    -6.591      2.845      8.455
REMARK INTER + INTRA:          -9.879
REMARK INTER:                  -9.047
REMARK INTRA:                  -0.832
REMARK UNBOUND:                -0.976
REMARK  Name = 
REMARK  7 active torsions:
REMARK  status: ('A' for Active; 'I' for Inactive)
REMARK    1  A    between atoms: C_1  and  C_2
REMARK    2  A    between atoms: C_5  and  C_6
REMARK    3  A    between atoms: N_8  and  C_9
REMARK    4  A    between atoms: C_9  and  C_10
REMARK    5  A    between atoms: C_13  and  C_14
REMARK    6  A    between atoms: C_14  and  N_15
REMARK    7  A    between atoms: C_16  and  C_18
REMARK                            x       y       z     vdW  Elec       q    Type
REMARK                         _______ _______ _______ _____ _____    ______ ____
ROOT
ATOM      1  C   UNL     1      49.509   7.210  16.172  0.00  0.00    +0.000 A 
ATOM      2  C   UNL     1      49.749   8.465  15.597  0.00  0.00    +0.000 A 
ATOM      3  C   UNL     1      49.246   8.779  14.327  0.00  0.00    +0.000 A 
ATOM      4  C   UNL     1      48.469   7.855  13.614  0.00  0.00    +0.000 A 
ATOM      5  C   UNL     1      48.225   6.603  14.194  0.00  0.00    +0.000 A 
ATOM      6  C   UNL     1      48.727   6.289  15.463  0.00  0.00    +0.000 A 
ENDROOT
BRANCH   1   7
ATOM      7  C   UNL     1      50.058   6.866  17.537  0.00  0.00    +0.000 C 
BRANCH   7  10
ATOM      8  C   UNL     1      50.257   4.443  18.017  0.00  0.00    +0.000 C 
ATOM      9  O   UNL     1      49.130   4.395  18.512  0.00  0.00    +0.000 OA
ATOM     10  N   UNL     1      50.776   5.618  17.515  0.00  0.00    +0.000 N 
ATOM     11  H   UNL     1      51.686   5.584  17.073  0.00  0.00    +0.000 HD
BRANCH   8  16
ATOM     12  C   UNL     1      54.378   1.103  18.351  0.00  0.00    +0.000 C 
ATOM     13  C   UNL     1      53.046   1.704  18.062  0.00  0.00    +0.000 A 
ATOM     14  C   UNL     1      51.952   1.136  17.445  0.00  0.00    +0.000 A 
ATOM     15  C   UNL     1      50.853   2.045  17.358  0.00  0.00    +0.000 A 
ATOM     16  C   UNL     1      51.135   3.282  17.913  0.00  0.00    +0.000 A 
ATOM     17  S   UNL     1      52.739   3.318  18.527  0.00  0.00    +0.000 S 
ENDBRANCH   8  16
ENDBRANCH   7  10
ENDBRANCH   1   7
BRANCH   4  18
ATOM     18  C   UNL     1      47.936   8.181  12.240  0.00  0.00    +0.000 C 
BRANCH  18  19
ATOM     19  N   UNL     1      47.319   7.033  11.621  0.00  0.00    +0.000 N 
ATOM     20  C   UNL     1      45.960   6.953  11.443  0.00  0.00    +0.000 C 
ATOM     21  O   UNL     1      45.208   7.870  11.763  0.00  0.00    +0.000 OA
ATOM     22  H   UNL     1      47.877   6.185  11.568  0.00  0.00    +0.000 HD
BRANCH  20  23
ATOM     23  C   UNL     1      45.452   5.739  10.788  0.00  0.00    +0.000 A 
ATOM     24  C   UNL     1      45.660   5.549   9.428  0.00  0.00    +0.000 A 
ATOM     25  S   UNL     1      45.053   4.067   8.840  0.00  0.00    +0.000 S 
ATOM     26  C   UNL     1      44.439   3.650  10.371  0.00  0.00    +0.000 A 
ATOM     27  N   UNL     1      43.760   2.487  10.560  0.00  0.00    +0.000 NA
ATOM     28  C   UNL     1      43.321   2.313  11.761  0.00  0.00    +0.000 A 
ATOM     29  N   UNL     1      43.507   3.195  12.795  0.00  0.00    +0.000 N 
ATOM     30  C   UNL     1      44.218   4.364  12.661  0.00  0.00    +0.000 A 
ATOM     31  O   UNL     1      44.412   5.106  13.618  0.00  0.00    +0.000 OA
ATOM     32  C   UNL     1      44.715   4.618  11.322  0.00  0.00    +0.000 A 
ATOM     33  H   UNL     1      43.148   2.995  13.717  0.00  0.00    +0.000 HD
ENDBRANCH  20  23
ENDBRANCH  18  19
ENDBRANCH   4  18
TORSDOF 6
ENDMDL
MODEL 6
REMARK VINA RESULT:    -6.449      2.750      8.892
REMARK INTER + INTRA:          -9.688
REMARK INTER:                  -8.766
REMARK INTRA:                  -0.921
REMARK UNBOUND:                -0.976
REMARK  Name = 
REMARK  7 active torsions:
REMARK  status: ('A' for Active; 'I' for Inactive)
REMARK    1  A    between atoms: C_1  and  C_2
REMARK    2  A    between atoms: C_5  and  C_6
REMARK    3  A    between atoms: N_8  and  C_9
REMARK    4  A    between atoms: C_9  and  C_10
REMARK    5  A    between atoms: C_13  and  C_14
REMARK    6  A    between atoms: C_14  and  N_15
REMARK    7  A    between atoms: C_16  and  C_18
REMARK                            x       y       z     vdW  Elec       q    Type
REMARK                         _______ _______ _______ _____ _____    ______ ____
ROOT
ATOM      1  C   UNL     1      48.977   7.794  16.057  0.00  0.00    +0.000 A 
ATOM      2  C   UNL     1      48.631   9.002  15.436  0.00  0.00    +0.000 A 
ATOM      3  C   UNL     1      48.067   9.012  14.153  0.00  0.00    +0.000 A 
ATOM      4  C   UNL     1      47.813   7.813  13.471  0.00  0.00    +0.000 A 
ATOM      5  C   UNL     1      48.153   6.607  14.097  0.00  0.00    +0.000 A 
ATOM      6  C   UNL     1      48.717   6.596  15.379  0.00  0.00    +0.000 A 
ENDROOT
BRANCH   1   7
ATOM      7  C   UNL     1      49.593   7.782  17.436  0.00  0.00    +0.000 C 
BRANCH   7  10
ATOM      8  C   UNL     1      50.135   5.555  18.379  0.00  0.00    +0.000 C 
ATOM      9  O   UNL     1      49.051   5.479  18.960  0.00  0.00    +0.000 OA
ATOM     10  N   UNL     1      50.467   6.651  17.611  0.00  0.00    +0.000 N 
ATOM     11  H   UNL     1      51.350   6.632  17.115  0.00  0.00    +0.000 HD
BRANCH   8  16
ATOM     12  C   UNL     1      52.921   1.081  17.690  0.00  0.00    +0.000 C 
ATOM     13  C   UNL     1      52.471   2.431  18.133  0.00  0.00    +0.000 A 
ATOM     14  C   UNL     1      53.105   3.327  18.968  0.00  0.00    +0.000 A 
ATOM     15  C   UNL     1      52.344   4.523  19.147  0.00  0.00    +0.000 A 
ATOM     16  C   UNL     1      51.152   4.510  18.444  0.00  0.00    +0.000 A 
ATOM     17  S   UNL     1      50.975   3.036  17.580  0.00  0.00    +0.000 S 
ENDBRANCH   8  16
ENDBRANCH   7  10
ENDBRANCH   1   7
BRANCH   4  18
ATOM     18  C   UNL     1      47.218   7.817  12.084  0.00  0.00    +0.000 C 
BRANCH  18  19
ATOM     19  N   UNL     1      46.593   6.555  11.769  0.00  0.00    +0.000 N 
ATOM     20  C   UNL     1      45.228   6.409  11.765  0.00  0.00    +0.000 C 
ATOM     21  O   UNL     1      44.473   7.351  11.989  0.00  0.00    +0.000 OA
ATOM     22  H   UNL     1      47.182   5.727  11.815  0.00  0.00    +0.000 HD
BRANCH  20  23
ATOM     23  C   UNL     1      44.710   5.078  11.415  0.00  0.00    +0.000 A 
ATOM     24  C   UNL     1      43.950   4.368  12.336  0.00  0.00    +0.000 A 
ATOM     25  S   UNL     1      43.386   2.868  11.750  0.00  0.00    +0.000 S 
ATOM     26  C   UNL     1      44.185   3.086  10.264  0.00  0.00    +0.000 A 
ATOM     27  N   UNL     1      44.134   2.134   9.295  0.00  0.00    +0.000 NA
ATOM     28  C   UNL     1      44.812   2.414   8.234  0.00  0.00    +0.000 A 
ATOM     29  N   UNL     1      45.532   3.566   8.050  0.00  0.00    +0.000 N 
ATOM     30  C   UNL     1      45.583   4.573   8.985  0.00  0.00    +0.000 A 
ATOM     31  O   UNL     1      46.192   5.616   8.767  0.00  0.00    +0.000 OA
ATOM     32  C   UNL     1      44.853   4.298  10.208  0.00  0.00    +0.000 A 
ATOM     33  H   UNL     1      46.034   3.733   7.190  0.00  0.00    +0.000 HD
ENDBRANCH  20  23
ENDBRANCH  18  19
ENDBRANCH   4  18
TORSDOF 6
ENDMDL
MODEL 7
REMARK VINA RESULT:    -6.187      2.260      9.337
REMARK INTER + INTRA:          -9.333
REMARK INTER:                  -8.584
REMARK INTRA:                  -0.749
REMARK UNBOUND:                -0.976
REMARK  Name = 
REMARK  7 active torsions:
REMARK  status: ('A' for Active; 'I' for Inactive)
REMARK    1  A    between atoms: C_1  and  C_2
REMARK    2  A    between atoms: C_5  and  C_6
REMARK    3  A    between atoms: N_8  and  C_9
REMARK    4  A    between atoms: C_9  and  C_10
REMARK    5  A    between atoms: C_13  and  C_14
REMARK    6  A    between atoms: C_14  and  N_15
REMARK    7  A    between atoms: C_16  and  C_18
REMARK                            x       y       z     vdW  Elec       q    Type
REMARK                         _______ _______ _______ _____ _____    ______ ____
ROOT
ATOM      1  C   UNL     1      46.431   6.831  13.269  0.00  0.00    +0.000 A 
ATOM      2  C   UNL     1      45.300   7.033  12.468  0.00  0.00    +0.000 A 
ATOM      3  C   UNL     1      44.537   5.947  12.017  0.00  0.00    +0.000 A 
ATOM      4  C   UNL     1      44.873   4.634  12.379  0.00  0.00    +0.000 A 
ATOM      5  C   UNL     1      46.001   4.435  13.186  0.00  0.00    +0.000 A 
ATOM      6  C   UNL     1      46.764   5.520  13.636  0.00  0.00    +0.000 A 
ENDROOT
BRANCH   1   7
ATOM      7  C   UNL     1      47.260   7.999  13.747  0.00  0.00    +0.000 C 
BRANCH   7  10
ATOM      8  C   UNL     1      49.549   7.483  14.545  0.00  0.00    +0.000 C 
ATOM      9  O   UNL     1      50.044   7.726  13.443  0.00  0.00    +0.000 OA
ATOM     10  N   UNL     1      48.194   7.598  14.768  0.00  0.00    +0.000 N 
ATOM     11  H   UNL     1      47.852   7.436  15.708  0.00  0.00    +0.000 HD
BRANCH   8  16
ATOM     12  C   UNL     1      51.104   5.464  19.209  0.00  0.00    +0.000 C 
ATOM     13  C   UNL     1      51.084   6.116  17.869  0.00  0.00    +0.000 A 
ATOM     14  C   UNL     1      52.133   6.634  17.140  0.00  0.00    +0.000 A 
ATOM     15  C   UNL     1      51.701   7.176  15.890  0.00  0.00    +0.000 A 
ATOM     16  C   UNL     1      50.335   7.057  15.698  0.00  0.00    +0.000 A 
ATOM     17  S   UNL     1      49.599   6.290  17.047  0.00  0.00    +0.000 S 
ENDBRANCH   8  16
ENDBRANCH   7  10
ENDBRANCH   1   7
BRANCH   4  18
ATOM     18  C   UNL     1      44.064   3.459  11.887  0.00  0.00    +0.000 C 
BRANCH  18  19
ATOM     19  N   UNL     1      44.788   2.687  10.906  0.00  0.00    +0.000 N 
ATOM     20  C   UNL     1      44.686   2.952   9.563  0.00  0.00    +0.000 C 
ATOM     21  O   UNL     1      44.007   3.881   9.133  0.00  0.00    +0.000 OA
ATOM     22  H   UNL     1      45.156   1.789  11.209  0.00  0.00    +0.000 HD
BRANCH  20  23
ATOM     23  C   UNL     1      45.482   2.105   8.663  0.00  0.00    +0.000 A 
ATOM     24  C   UNL     1      45.372   0.723   8.737  0.00  0.00    +0.000 A 
ATOM     25  S   UNL     1      46.325  -0.105   7.589  0.00  0.00    +0.000 S 
ATOM     26  C   UNL     1      46.963   1.353   6.987  0.00  0.00    +0.000 A 
ATOM     27  N   UNL     1      47.884   1.354   5.987  0.00  0.00    +0.000 NA
ATOM     28  C   UNL     1      48.308   2.526   5.652  0.00  0.00    +0.000 A 
ATOM     29  N   UNL     1      47.888   3.700   6.223  0.00  0.00    +0.000 N 
ATOM     30  C   UNL     1      46.933   3.751   7.210  0.00  0.00    +0.000 A 
ATOM     31  O   UNL     1      46.539   4.821   7.662  0.00  0.00    +0.000 OA
ATOM     32  C   UNL     1      46.438   2.457   7.638  0.00  0.00    +0.000 A 
ATOM     33  H   UNL     1      48.250   4.588   5.908  0.00  0.00    +0.000 HD
ENDBRANCH  20  23
ENDBRANCH  18  19
ENDBRANCH   4  18
TORSDOF 6
ENDMDL
MODEL 8
REMARK VINA RESULT:    -6.141      5.233      7.806
REMARK INTER + INTRA:          -9.272
REMARK INTER:                  -8.385
REMARK INTRA:                  -0.886
REMARK UNBOUND:                -0.976
REMARK  Name = 
REMARK  7 active torsions:
REMARK  status: ('A' for Active; 'I' for Inactive)
REMARK    1  A    between atoms: C_1  and  C_2
REMARK    2  A    between atoms: C_5  and  C_6
REMARK    3  A    between atoms: N_8  and  C_9
REMARK    4  A    between atoms: C_9  and  C_10
REMARK    5  A    between atoms: C_13  and  C_14
REMARK    6  A    between atoms: C_14  and  N_15
REMARK    7  A    between atoms: C_16  and  C_18
REMARK                            x       y       z     vdW  Elec       q    Type
REMARK                         _______ _______ _______ _____ _____    ______ ____
ROOT
ATOM      1  C   UNL     1      51.370   8.539  11.004  0.00  0.00    +0.000 A 
ATOM      2  C   UNL     1      50.741   9.789  11.076  0.00  0.00    +0.000 A 
ATOM      3  C   UNL     1      49.388   9.891  11.428  0.00  0.00    +0.000 A 
ATOM      4  C   UNL     1      48.640   8.748  11.741  0.00  0.00    +0.000 A 
ATOM      5  C   UNL     1      49.272   7.499  11.675  0.00  0.00    +0.000 A 
ATOM      6  C   UNL     1      50.625   7.396  11.324  0.00  0.00    +0.000 A 
ENDROOT
BRANCH   1   7
ATOM      7  C   UNL     1      52.826   8.426  10.616  0.00  0.00    +0.000 C 
BRANCH   7  10
ATOM      8  C   UNL     1      52.969   7.578   8.292  0.00  0.00    +0.000 C 
ATOM      9  O   UNL     1      52.765   6.416   8.647  0.00  0.00    +0.000 OA
ATOM     10  N   UNL     1      53.008   8.614   9.200  0.00  0.00    +0.000 N 
ATOM     11  H   UNL     1      53.127   9.554   8.842  0.00  0.00    +0.000 HD
BRANCH   8  16
ATOM     12  C   UNL     1      52.809  10.041   3.584  0.00  0.00    +0.000 C 
ATOM     13  C   UNL     1      53.127   9.099   4.695  0.00  0.00    +0.000 A 
ATOM     14  C   UNL     1      53.986   8.020   4.699  0.00  0.00    +0.000 A 
ATOM     15  C   UNL     1      54.016   7.365   5.969  0.00  0.00    +0.000 A 
ATOM     16  C   UNL     1      53.183   7.962   6.900  0.00  0.00    +0.000 A 
ATOM     17  S   UNL     1      52.371   9.309   6.210  0.00  0.00    +0.000 S 
ENDBRANCH   8  16
ENDBRANCH   7  10
ENDBRANCH   1   7
BRANCH   4  18
ATOM     18  C   UNL     1      47.179   8.849  12.108  0.00  0.00    +0.000 C 
BRANCH  18  19
ATOM     19  N   UNL     1      46.543   7.553  12.125  0.00  0.00    +0.000 N 
ATOM     20  C   UNL     1      45.257   7.377  11.680  0.00  0.00    +0.000 C 
ATOM     21  O   UNL     1      44.599   8.302  11.209  0.00  0.00    +0.000 OA
ATOM     22  H   UNL     1      46.967   6.842  12.714  0.00  0.00    +0.000 HD
BRANCH  20  23
ATOM     23  C   UNL     1      44.723   6.008  11.735  0.00  0.00    +0.000 A 
ATOM     24  C   UNL     1      44.040   5.577  12.865  0.00  0.00    +0.000 A 
ATOM     25  S   UNL     1      43.444   3.983  12.742  0.00  0.00    +0.000 S 
ATOM     26  C   UNL     1      44.126   3.790  11.196  0.00  0.00    +0.000 A 
ATOM     27  N   UNL     1      44.009   2.616  10.520  0.00  0.00    +0.000 NA
ATOM     28  C   UNL     1      44.602   2.596   9.374  0.00  0.00    +0.000 A 
ATOM     29  N   UNL     1      45.298   3.650   8.838  0.00  0.00    +0.000 N 
ATOM     30  C   UNL     1      45.412   4.867   9.467  0.00  0.00    +0.000 A 
ATOM     31  O   UNL     1      45.995   5.807   8.936  0.00  0.00    +0.000 OA
ATOM     32  C   UNL     1      44.779   4.935  10.770  0.00  0.00    +0.000 A 
ATOM     33  H   UNL     1      45.731   3.576   7.929  0.00  0.00    +0.000 HD
ENDBRANCH  20  23
ENDBRANCH  18  19
ENDBRANCH   4  18
TORSDOF 6
ENDMDL
MODEL 9
REMARK VINA RESULT:    -5.784      5.377      7.389
REMARK INTER + INTRA:          -8.789
REMARK INTER:                  -7.812
REMARK INTRA:                  -0.977
REMARK UNBOUND:                -0.976
REMARK  Name = 
REMARK  7 active torsions:
REMARK  status: ('A' for Active; 'I' for Inactive)
REMARK    1  A    between atoms: C_1  and  C_2
REMARK    2  A    between atoms: C_5  and  C_6
REMARK    3  A    between atoms: N_8  and  C_9
REMARK    4  A    between atoms: C_9  and  C_10
REMARK    5  A    between atoms: C_13  and  C_14
REMARK    6  A    between atoms: C_14  and  N_15
REMARK    7  A    between atoms: C_16  and  C_18
REMARK                            x       y       z     vdW  Elec       q    Type
REMARK                         _______ _______ _______ _____ _____    ______ ____
ROOT
ATOM      1  C   UNL     1      52.439   8.614   9.894  0.00  0.00    +0.000 A 
ATOM      2  C   UNL     1      52.046   9.892  10.314  0.00  0.00    +0.000 A 
ATOM      3  C   UNL     1      50.905  10.065  11.110  0.00  0.00    +0.000 A 
ATOM      4  C   UNL     1      50.145   8.963  11.525  0.00  0.00    +0.000 A 
ATOM      5  C   UNL     1      50.543   7.685  11.109  0.00  0.00    +0.000 A 
ATOM      6  C   UNL     1      51.683   7.511  10.314  0.00  0.00    +0.000 A 
ENDROOT
BRANCH   1   7
ATOM      7  C   UNL     1      53.662   8.427   9.028  0.00  0.00    +0.000 C 
BRANCH   7  10
ATOM      8  C   UNL     1      54.745   6.263   8.493  0.00  0.00    +0.000 C 
ATOM      9  O   UNL     1      55.764   6.557   9.119  0.00  0.00    +0.000 OA
ATOM     10  N   UNL     1      53.674   7.126   8.409  0.00  0.00    +0.000 N 
ATOM     11  H   UNL     1      52.843   6.807   7.925  0.00  0.00    +0.000 HD
BRANCH   8  16
ATOM     12  C   UNL     1      55.412   1.344   6.591  0.00  0.00    +0.000 C 
ATOM     13  C   UNL     1      54.864   2.696   6.899  0.00  0.00    +0.000 A 
ATOM     14  C   UNL     1      53.679   3.267   6.486  0.00  0.00    +0.000 A 
ATOM     15  C   UNL     1      53.514   4.590   7.002  0.00  0.00    +0.000 A 
ATOM     16  C   UNL     1      54.575   4.992   7.795  0.00  0.00    +0.000 A 
ATOM     17  S   UNL     1      55.760   3.753   7.895  0.00  0.00    +0.000 S 
ENDBRANCH   8  16
ENDBRANCH   7  10
ENDBRANCH   1   7
BRANCH   4  18
ATOM     18  C   UNL     1      48.908   9.142  12.370  0.00  0.00    +0.000 C 
BRANCH  18  19
ATOM     19  N   UNL     1      47.991   8.038  12.215  0.00  0.00    +0.000 N 
ATOM     20  C   UNL     1      47.599   7.273  13.286  0.00  0.00    +0.000 C 
ATOM     21  O   UNL     1      47.975   7.514  14.430  0.00  0.00    +0.000 OA
ATOM     22  H   UNL     1      47.859   7.681  11.274  0.00  0.00    +0.000 HD
BRANCH  20  23
ATOM     23  C   UNL     1      46.651   6.185  13.004  0.00  0.00    +0.000 A 
ATOM     24  C   UNL     1      46.958   4.885  13.384  0.00  0.00    +0.000 A 
ATOM     25  S   UNL     1      45.729   3.756  13.029  0.00  0.00    +0.000 S 
ATOM     26  C   UNL     1      44.764   4.954  12.302  0.00  0.00    +0.000 A 
ATOM     27  N   UNL     1      43.560   4.645  11.751  0.00  0.00    +0.000 NA
ATOM     28  C   UNL     1      42.950   5.642  11.205  0.00  0.00    +0.000 A 
ATOM     29  N   UNL     1      43.432   6.925  11.166  0.00  0.00    +0.000 N 
ATOM     30  C   UNL     1      44.626   7.293  11.741  0.00  0.00    +0.000 A 
ATOM     31  O   UNL     1      45.003   8.460  11.737  0.00  0.00    +0.000 OA
ATOM     32  C   UNL     1      45.362   6.203  12.352  0.00  0.00    +0.000 A 
ATOM     33  H   UNL     1      42.900   7.666  10.733  0.00  0.00    +0.000 HD
ENDBRANCH  20  23
ENDBRANCH  18  19
ENDBRANCH   4  18
TORSDOF 6
ENDMDL
