MODEL 1
REMARK VINA RESULT:    -6.901      0.000      0.000
REMARK INTER + INTRA:         -11.895
REMARK INTER:                 -10.734
REMARK INTRA:                  -1.161
REMARK UNBOUND:                -1.161
REMARK  Name = 
REMARK  10 active torsions:
REMARK  status: ('A' for Active; 'I' for Inactive)
REMARK    1  A    between atoms: N_1  and  C_2
REMARK    2  A    between atoms: C_2  and  C_3
REMARK    3  A    between atoms: C_3  and  N_4
REMARK    4  A    between atoms: N_4  and  C_5
REMARK    5  A    between atoms: C_5  and  C_6
REMARK    6  A    between atoms: C_9  and  C_10
REMARK    7  A    between atoms: C_10  and  C_11
REMARK    8  A    between atoms: C_14  and  C_15
REMARK    9  A    between atoms: C_15  and  N_16
REMARK   10  A    between atoms: C_17  and  C_19
REMARK                            x       y       z     vdW  Elec       q    Type
REMARK                         _______ _______ _______ _____ _____    ______ ____
ROOT
ATOM      1  C   UNL     1      45.875   6.918  12.460  0.00  0.00    +0.000 A 
ATOM      2  C   UNL     1      46.715   5.961  13.045  0.00  0.00    +0.000 A 
ATOM      3  C   UNL     1      47.900   6.342  13.686  0.00  0.00    +0.000 A 
ATOM      4  C   UNL     1      48.266   7.692  13.764  0.00  0.00    +0.000 A 
ATOM      5  C   UNL     1      47.442   8.646  13.153  0.00  0.00    +0.000 A 
ATOM      6  C   UNL     1      46.253   8.266  12.519  0.00  0.00    +0.000 A 
ENDROOT
BRANCH   1   7
ATOM      7  C   UNL     1      44.602   6.500  11.763  0.00  0.00    +0.000 C 
BRANCH   7  11
ATOM      8  C   UNL     1      44.872   3.288   8.971  0.00  0.00    +0.000 A 
ATOM      9  C   UNL     1      45.643   4.429   8.749  0.00  0.00    +0.000 A 
ATOM     10  C   UNL     1      45.586   5.470   9.667  0.00  0.00    +0.000 A 
ATOM     11  C   UNL     1      44.749   5.369  10.780  0.00  0.00    +0.000 A 
ATOM     12  C   UNL     1      44.031   4.187  10.931  0.00  0.00    +0.000 A 
ATOM     13  N   UNL     1      44.072   3.152  10.058  0.00  0.00    +0.000 NA
BRANCH   8  14
ATOM     14  C   UNL     1      44.992   2.108   8.025  0.00  0.00    +0.000 C 
BRANCH  14  15
ATOM     15  N   UNL     1      45.944   1.074   8.482  0.00  0.00    +0.000 NA
ATOM     16  H   UNL     1      46.458   1.480   9.269  0.00  0.00    +0.000 HD
BRANCH  15  17
ATOM     17  C   UNL     1      46.958   0.776   7.450  0.00  0.00    +0.000 C 
BRANCH  17  18
ATOM     18  C   UNL     1      47.681   2.029   6.921  0.00  0.00    +0.000 C 
BRANCH  18  19
ATOM     19  N   UNL     1      48.502   1.699   5.750  0.00  0.00    +0.000 NA
ATOM     20  H   UNL     1      49.336   1.206   6.064  0.00  0.00    +0.000 HD
ATOM     21  H   UNL     1      48.827   2.567   5.324  0.00  0.00    +0.000 HD
ENDBRANCH  18  19
ENDBRANCH  17  18
ENDBRANCH  15  17
ENDBRANCH  14  15
ENDBRANCH   8  14
ENDBRANCH   7  11
ENDBRANCH   1   7
BRANCH   4  22
ATOM     22  C   UNL     1      49.530   8.114  14.469  0.00  0.00    +0.000 C 
BRANCH  22  23
ATOM     23  N   UNL     1      49.436   7.905  15.891  0.00  0.00    +0.000 N 
ATOM     24  C   UNL     1      50.310   7.085  16.558  0.00  0.00    +0.000 C 
ATOM     25  O   UNL     1      51.239   6.519  15.989  0.00  0.00    +0.000 OA
ATOM     26  H   UNL     1      48.554   8.151  16.329  0.00  0.00    +0.000 HD
BRANCH  24  27
ATOM     27  C   UNL     1      50.110   6.967  18.008  0.00  0.00    +0.000 A 
ATOM     28  C   UNL     1      50.516   7.998  18.849  0.00  0.00    +0.000 A 
ATOM     29  S   UNL     1      50.158   7.718  20.493  0.00  0.00    +0.000 S 
ATOM     30  C   UNL     1      49.494   6.191  20.147  0.00  0.00    +0.000 A 
ATOM     31  N   UNL     1      49.011   5.396  21.139  0.00  0.00    +0.000 NA
ATOM     32  C   UNL     1      48.558   4.254  20.737  0.00  0.00    +0.000 A 
ATOM     33  N   UNL     1      48.538   3.840  19.434  0.00  0.00    +0.000 N 
ATOM     34  C   UNL     1      48.991   4.618  18.394  0.00  0.00    +0.000 A 
ATOM     35  O   UNL     1      48.920   4.230  17.236  0.00  0.00    +0.000 OA
ATOM     36  C   UNL     1      49.523   5.906  18.793  0.00  0.00    +0.000 A 
ATOM     37  H   UNL     1      48.162   2.937  19.180  0.00  0.00    +0.000 HD
ENDBRANCH  24  27
ENDBRANCH  22  23
ENDBRANCH   4  22
TORSDOF 10
ENDMDL
MODEL 2
REMARK VINA RESULT:    -6.669      2.099      2.468
REMARK INTER + INTRA:         -11.534
REMARK INTER:                 -10.219
REMARK INTRA:                  -1.315
REMARK UNBOUND:                -1.161
REMARK  Name = 
REMARK  10 active torsions:
REMARK  status: ('A' for Active; 'I' for Inactive)
REMARK    1  A    between atoms: N_1  and  C_2
REMARK    2  A    between atoms: C_2  and  C_3
REMARK    3  A    between atoms: C_3  and  N_4
REMARK    4  A    between atoms: N_4  and  C_5
REMARK    5  A    between atoms: C_5  and  C_6
REMARK    6  A    between atoms: C_9  and  C_10
REMARK    7  A    between atoms: C_10  and  C_11
REMARK    8  A    between atoms: C_14  and  C_15
REMARK    9  A    between atoms: C_15  and  N_16
REMARK   10  A    between atoms: C_17  and  C_19
REMARK                            x       y       z     vdW  Elec       q    Type
REMARK                         _______ _______ _______ _____ _____    ______ ____
ROOT
ATOM      1  C   UNL     1      46.280   6.883  12.724  0.00  0.00    +0.000 A 
ATOM      2  C   UNL     1      47.302   6.070  13.234  0.00  0.00    +0.000 A 
ATOM      3  C   UNL     1      48.561   6.605  13.535  0.00  0.00    +0.000 A 
ATOM      4  C   UNL     1      48.822   7.968  13.342  0.00  0.00    +0.000 A 
ATOM      5  C   UNL     1      47.810   8.773  12.803  0.00  0.00    +0.000 A 
ATOM      6  C   UNL     1      46.549   8.241  12.510  0.00  0.00    +0.000 A 
ENDROOT
BRANCH   1   7
ATOM      7  C   UNL     1      44.927   6.298  12.394  0.00  0.00    +0.000 C 
BRANCH   7  11
ATOM      8  C   UNL     1      45.078   3.280   9.384  0.00  0.00    +0.000 A 
ATOM      9  C   UNL     1      44.619   2.930  10.654  0.00  0.00    +0.000 A 
ATOM     10  C   UNL     1      44.538   3.911  11.635  0.00  0.00    +0.000 A 
ATOM     11  C   UNL     1      44.932   5.219  11.344  0.00  0.00    +0.000 A 
ATOM     12  C   UNL     1      45.359   5.480  10.045  0.00  0.00    +0.000 A 
ATOM     13  N   UNL     1      45.441   4.548   9.067  0.00  0.00    +0.000 NA
BRANCH   8  14
ATOM     14  C   UNL     1      45.088   2.240   8.280  0.00  0.00    +0.000 C 
BRANCH  14  15
ATOM     15  N   UNL     1      46.115   1.192   8.460  0.00  0.00    +0.000 NA
ATOM     16  H   UNL     1      46.786   1.557   9.142  0.00  0.00    +0.000 HD
BRANCH  15  17
ATOM     17  C   UNL     1      46.885   0.968   7.219  0.00  0.00    +0.000 C 
BRANCH  17  18
ATOM     18  C   UNL     1      47.957   2.043   6.960  0.00  0.00    +0.000 C 
BRANCH  18  19
ATOM     19  N   UNL     1      48.510   1.910   5.607  0.00  0.00    +0.000 NA
ATOM     20  H   UNL     1      48.474   2.818   5.148  0.00  0.00    +0.000 HD
ATOM     21  H   UNL     1      47.904   1.292   5.067  0.00  0.00    +0.000 HD
ENDBRANCH  18  19
ENDBRANCH  17  18
ENDBRANCH  15  17
ENDBRANCH  14  15
ENDBRANCH   8  14
ENDBRANCH   7  11
ENDBRANCH   1   7
BRANCH   4  22
ATOM     22  C   UNL     1      50.167   8.556  13.681  0.00  0.00    +0.000 C 
BRANCH  22  23
ATOM     23  N   UNL     1      50.973   7.632  14.437  0.00  0.00    +0.000 N 
ATOM     24  C   UNL     1      51.650   8.021  15.564  0.00  0.00    +0.000 C 
ATOM     25  O   UNL     1      51.575   9.162  16.011  0.00  0.00    +0.000 OA
ATOM     26  H   UNL     1      51.247   6.777  13.964  0.00  0.00    +0.000 HD
BRANCH  24  27
ATOM     27  C   UNL     1      52.426   6.978  16.246  0.00  0.00    +0.000 A 
ATOM     28  C   UNL     1      53.809   7.095  16.342  0.00  0.00    +0.000 A 
ATOM     29  S   UNL     1      54.542   5.823  17.211  0.00  0.00    +0.000 S 
ATOM     30  C   UNL     1      53.047   5.045  17.445  0.00  0.00    +0.000 A 
ATOM     31  N   UNL     1      52.970   3.862  18.111  0.00  0.00    +0.000 NA
ATOM     32  C   UNL     1      51.777   3.373  18.195  0.00  0.00    +0.000 A 
ATOM     33  N   UNL     1      50.656   3.963  17.681  0.00  0.00    +0.000 N 
ATOM     34  C   UNL     1      50.680   5.170  17.022  0.00  0.00    +0.000 A 
ATOM     35  O   UNL     1      49.650   5.688  16.611  0.00  0.00    +0.000 OA
ATOM     36  C   UNL     1      51.999   5.757  16.889  0.00  0.00    +0.000 A 
ATOM     37  H   UNL     1      49.746   3.534  17.786  0.00  0.00    +0.000 HD
ENDBRANCH  24  27
ENDBRANCH  22  23
ENDBRANCH   4  22
TORSDOF 10
ENDMDL
MODEL 3
REMARK VINA RESULT:    -6.634      2.701      3.904
REMARK INTER + INTRA:         -11.479
REMARK INTER:                  -9.909
REMARK INTRA:                  -1.570
REMARK UNBOUND:                -1.161
REMARK  Name = 
REMARK  10 active torsions:
REMARK  status: ('A' for Active; 'I' for Inactive)
REMARK    1  A    between atoms: N_1  and  C_2
REMARK    2  A    between atoms: C_2  and  C_3
REMARK    3  A    between atoms: C_3  and  N_4
REMARK    4  A    between atoms: N_4  and  C_5
REMARK    5  A    between atoms: C_5  and  C_6
REMARK    6  A    between atoms: C_9  and  C_10
REMARK    7  A    between atoms: C_10  and  C_11
REMARK    8  A    between atoms: C_14  and  C_15
REMARK    9  A    between atoms: C_15  and  N_16
REMARK   10  A    between atoms: C_17  and  C_19
REMARK                            x       y       z     vdW  Elec       q    Type
REMARK                         _______ _______ _______ _____ _____    ______ ____
ROOT
ATOM      1  C   UNL     1      48.417   7.941  13.627  0.00  0.00    +0.000 A 
ATOM      2  C   UNL     1      47.901   8.612  14.744  0.00  0.00    +0.000 A 
ATOM      3  C   UNL     1      48.655   8.738  15.918  0.00  0.00    +0.000 A 
ATOM      4  C   UNL     1      49.947   8.203  15.996  0.00  0.00    +0.000 A 
ATOM      5  C   UNL     1      50.451   7.506  14.890  0.00  0.00    +0.000 A 
ATOM      6  C   UNL     1      49.702   7.387  13.714  0.00  0.00    +0.000 A 
ENDROOT
BRANCH   1   7
ATOM      7  C   UNL     1      47.596   7.803  12.367  0.00  0.00    +0.000 C 
BRANCH   7  11
ATOM      8  C   UNL     1      44.497   4.873  12.381  0.00  0.00    +0.000 A 
ATOM      9  C   UNL     1      45.592   4.686  13.224  0.00  0.00    +0.000 A 
ATOM     10  C   UNL     1      46.595   5.648  13.249  0.00  0.00    +0.000 A 
ATOM     11  C   UNL     1      46.502   6.771  12.424  0.00  0.00    +0.000 A 
ATOM     12  C   UNL     1      45.364   6.884  11.630  0.00  0.00    +0.000 A 
ATOM     13  N   UNL     1      44.368   5.968  11.589  0.00  0.00    +0.000 NA
BRANCH   8  14
ATOM     14  C   UNL     1      43.354   3.876  12.407  0.00  0.00    +0.000 C 
BRANCH  14  15
ATOM     15  N   UNL     1      43.023   3.316  11.079  0.00  0.00    +0.000 NA
ATOM     16  H   UNL     1      42.293   2.614  11.234  0.00  0.00    +0.000 HD
BRANCH  15  17
ATOM     17  C   UNL     1      44.167   2.584  10.499  0.00  0.00    +0.000 C 
BRANCH  17  18
ATOM     18  C   UNL     1      44.501   3.012   9.057  0.00  0.00    +0.000 C 
BRANCH  18  19
ATOM     19  N   UNL     1      44.069   4.394   8.812  0.00  0.00    +0.000 NA
ATOM     20  H   UNL     1      44.236   4.619   7.833  0.00  0.00    +0.000 HD
ATOM     21  H   UNL     1      44.661   5.021   9.355  0.00  0.00    +0.000 HD
ENDBRANCH  18  19
ENDBRANCH  17  18
ENDBRANCH  15  17
ENDBRANCH  14  15
ENDBRANCH   8  14
ENDBRANCH   7  11
ENDBRANCH   1   7
BRANCH   4  22
ATOM     22  C   UNL     1      50.774   8.350  17.248  0.00  0.00    +0.000 C 
BRANCH  22  23
ATOM     23  N   UNL     1      51.531   7.155  17.524  0.00  0.00    +0.000 N 
ATOM     24  C   UNL     1      51.042   6.165  18.338  0.00  0.00    +0.000 C 
ATOM     25  O   UNL     1      49.923   6.225  18.840  0.00  0.00    +0.000 OA
ATOM     26  H   UNL     1      52.527   7.195  17.334  0.00  0.00    +0.000 HD
BRANCH  24  27
ATOM     27  C   UNL     1      51.910   4.997  18.529  0.00  0.00    +0.000 A 
ATOM     28  C   UNL     1      53.116   5.134  19.208  0.00  0.00    +0.000 A 
ATOM     29  S   UNL     1      53.971   3.668  19.384  0.00  0.00    +0.000 S 
ATOM     30  C   UNL     1      52.786   2.808  18.516  0.00  0.00    +0.000 A 
ATOM     31  N   UNL     1      52.920   1.476  18.280  0.00  0.00    +0.000 NA
ATOM     32  C   UNL     1      51.960   0.955  17.589  0.00  0.00    +0.000 A 
ATOM     33  N   UNL     1      50.876   1.645  17.122  0.00  0.00    +0.000 N 
ATOM     34  C   UNL     1      50.683   2.987  17.356  0.00  0.00    +0.000 A 
ATOM     35  O   UNL     1      49.680   3.562  16.957  0.00  0.00    +0.000 OA
ATOM     36  C   UNL     1      51.741   3.623  18.117  0.00  0.00    +0.000 A 
ATOM     37  H   UNL     1      50.151   1.180  16.592  0.00  0.00    +0.000 HD
ENDBRANCH  24  27
ENDBRANCH  22  23
ENDBRANCH   4  22
TORSDOF 10
ENDMDL
MODEL 4
REMARK VINA RESULT:    -6.445      4.690      9.510
REMARK INTER + INTRA:         -11.185
REMARK INTER:                  -9.680
REMARK INTRA:                  -1.505
REMARK UNBOUND:                -1.161
REMARK  Name = 
REMARK  10 active torsions:
REMARK  status: ('A' for Active; 'I' for Inactive)
REMARK    1  A    between atoms: N_1  and  C_2
REMARK    2  A    between atoms: C_2  and  C_3
REMARK    3  A    between atoms: C_3  and  N_4
REMARK    4  A    between atoms: N_4  and  C_5
REMARK    5  A    between atoms: C_5  and  C_6
REMARK    6  A    between atoms: C_9  and  C_10
REMARK    7  A    between atoms: C_10  and  C_11
REMARK    8  A    between atoms: C_14  and  C_15
REMARK    9  A    between atoms: C_15  and  N_16
REMARK   10  A    between atoms: C_17  and  C_19
REMARK                            x       y       z     vdW  Elec       q    Type
REMARK                         _______ _______ _______ _____ _____    ______ ____
ROOT
ATOM      1  C   UNL     1      49.763   5.013  17.336  0.00  0.00    +0.000 A 
ATOM      2  C   UNL     1      48.521   4.629  16.812  0.00  0.00    +0.000 A 
ATOM      3  C   UNL     1      47.954   5.319  15.733  0.00  0.00    +0.000 A 
ATOM      4  C   UNL     1      48.621   6.403  15.149  0.00  0.00    +0.000 A 
ATOM      5  C   UNL     1      49.848   6.805  15.693  0.00  0.00    +0.000 A 
ATOM      6  C   UNL     1      50.420   6.111  16.765  0.00  0.00    +0.000 A 
ENDROOT
BRANCH   1   7
ATOM      7  C   UNL     1      50.366   4.269  18.504  0.00  0.00    +0.000 C 
BRANCH   7  11
ATOM      8  C   UNL     1      53.490   1.587  17.391  0.00  0.00    +0.000 A 
ATOM      9  C   UNL     1      53.838   2.849  17.871  0.00  0.00    +0.000 A 
ATOM     10  C   UNL     1      52.829   3.721  18.264  0.00  0.00    +0.000 A 
ATOM     11  C   UNL     1      51.493   3.332  18.156  0.00  0.00    +0.000 A 
ATOM     12  C   UNL     1      51.241   2.047  17.684  0.00  0.00    +0.000 A 
ATOM     13  N   UNL     1      52.201   1.172  17.302  0.00  0.00    +0.000 NA
BRANCH   8  14
ATOM     14  C   UNL     1      54.582   0.593  17.042  0.00  0.00    +0.000 C 
BRANCH  14  15
ATOM     15  N   UNL     1      54.107  -0.805  16.955  0.00  0.00    +0.000 NA
ATOM     16  H   UNL     1      53.125  -0.797  17.246  0.00  0.00    +0.000 HD
BRANCH  15  17
ATOM     17  C   UNL     1      54.807  -1.676  17.921  0.00  0.00    +0.000 C 
BRANCH  17  18
ATOM     18  C   UNL     1      53.939  -2.070  19.132  0.00  0.00    +0.000 C 
BRANCH  18  19
ATOM     19  N   UNL     1      52.588  -1.511  19.006  0.00  0.00    +0.000 NA
ATOM     20  H   UNL     1      52.662  -0.530  18.745  0.00  0.00    +0.000 HD
ATOM     21  H   UNL     1      52.142  -1.530  19.923  0.00  0.00    +0.000 HD
ENDBRANCH  18  19
ENDBRANCH  17  18
ENDBRANCH  15  17
ENDBRANCH  14  15
ENDBRANCH   8  14
ENDBRANCH   7  11
ENDBRANCH   1   7
BRANCH   4  22
ATOM     22  C   UNL     1      48.028   7.140  13.975  0.00  0.00    +0.000 C 
BRANCH  22  23
ATOM     23  N   UNL     1      47.288   6.252  13.114  0.00  0.00    +0.000 N 
ATOM     24  C   UNL     1      46.522   6.726  12.080  0.00  0.00    +0.000 C 
ATOM     25  O   UNL     1      46.458   7.921  11.808  0.00  0.00    +0.000 OA
ATOM     26  H   UNL     1      47.127   5.312  13.462  0.00  0.00    +0.000 HD
BRANCH  24  27
ATOM     27  C   UNL     1      45.828   5.714  11.273  0.00  0.00    +0.000 A 
ATOM     28  C   UNL     1      45.935   5.741   9.887  0.00  0.00    +0.000 A 
ATOM     29  S   UNL     1      45.110   4.464   9.114  0.00  0.00    +0.000 S 
ATOM     30  C   UNL     1      44.539   3.859  10.599  0.00  0.00    +0.000 A 
ATOM     31  N   UNL     1      43.735   2.763  10.646  0.00  0.00    +0.000 NA
ATOM     32  C   UNL     1      43.357   2.428  11.835  0.00  0.00    +0.000 A 
ATOM     33  N   UNL     1      43.716   3.085  12.979  0.00  0.00    +0.000 N 
ATOM     34  C   UNL     1      44.547   4.181  12.985  0.00  0.00    +0.000 A 
ATOM     35  O   UNL     1      44.880   4.718  14.033  0.00  0.00    +0.000 OA
ATOM     36  C   UNL     1      44.990   4.607  11.672  0.00  0.00    +0.000 A 
ATOM     37  H   UNL     1      43.394   2.769  13.885  0.00  0.00    +0.000 HD
ENDBRANCH  24  27
ENDBRANCH  22  23
ENDBRANCH   4  22
TORSDOF 10
ENDMDL
MODEL 5
REMARK VINA RESULT:    -6.107      3.364      9.415
REMARK INTER + INTRA:         -10.660
REMARK INTER:                  -9.575
REMARK INTRA:                  -1.086
REMARK UNBOUND:                -1.161
REMARK  Name = 
REMARK  10 active torsions:
REMARK  status: ('A' for Active; 'I' for Inactive)
REMARK    1  A    between atoms: N_1  and  C_2
REMARK    2  A    between atoms: C_2  and  C_3
REMARK    3  A    between atoms: C_3  and  N_4
REMARK    4  A    between atoms: N_4  and  C_5
REMARK    5  A    between atoms: C_5  and  C_6
REMARK    6  A    between atoms: C_9  and  C_10
REMARK    7  A    between atoms: C_10  and  C_11
REMARK    8  A    between atoms: C_14  and  C_15
REMARK    9  A    between atoms: C_15  and  N_16
REMARK   10  A    between atoms: C_17  and  C_19
REMARK                            x       y       z     vdW  Elec       q    Type
REMARK                         _______ _______ _______ _____ _____    ______ ____
ROOT
ATOM      1  C   UNL     1      49.697   8.943  15.295  0.00  0.00    +0.000 A 
ATOM      2  C   UNL     1      48.297   8.885  15.294  0.00  0.00    +0.000 A 
ATOM      3  C   UNL     1      47.588   8.696  14.101  0.00  0.00    +0.000 A 
ATOM      4  C   UNL     1      48.266   8.551  12.884  0.00  0.00    +0.000 A 
ATOM      5  C   UNL     1      49.664   8.639  12.882  0.00  0.00    +0.000 A 
ATOM      6  C   UNL     1      50.374   8.819  14.074  0.00  0.00    +0.000 A 
ENDROOT
BRANCH   1   7
ATOM      7  C   UNL     1      50.456   9.153  16.584  0.00  0.00    +0.000 C 
BRANCH   7  11
ATOM      8  C   UNL     1      49.967   6.007  19.421  0.00  0.00    +0.000 A 
ATOM      9  C   UNL     1      50.880   5.829  18.382  0.00  0.00    +0.000 A 
ATOM     10  C   UNL     1      51.069   6.858  17.468  0.00  0.00    +0.000 A 
ATOM     11  C   UNL     1      50.335   8.040  17.590  0.00  0.00    +0.000 A 
ATOM     12  C   UNL     1      49.461   8.136  18.669  0.00  0.00    +0.000 A 
ATOM     13  N   UNL     1      49.261   7.154  19.580  0.00  0.00    +0.000 NA
BRANCH   8  14
ATOM     14  C   UNL     1      49.815   4.927  20.476  0.00  0.00    +0.000 C 
BRANCH  14  15
ATOM     15  N   UNL     1      48.637   4.057  20.271  0.00  0.00    +0.000 NA
ATOM     16  H   UNL     1      48.800   3.212  20.827  0.00  0.00    +0.000 HD
BRANCH  15  17
ATOM     17  C   UNL     1      48.536   3.602  18.869  0.00  0.00    +0.000 C 
BRANCH  17  18
ATOM     18  C   UNL     1      47.326   4.191  18.119  0.00  0.00    +0.000 C 
BRANCH  18  19
ATOM     19  N   UNL     1      46.587   3.135  17.417  0.00  0.00    +0.000 NA
ATOM     20  H   UNL     1      47.201   2.332  17.294  0.00  0.00    +0.000 HD
ATOM     21  H   UNL     1      46.358   3.466  16.480  0.00  0.00    +0.000 HD
ENDBRANCH  18  19
ENDBRANCH  17  18
ENDBRANCH  15  17
ENDBRANCH  14  15
ENDBRANCH   8  14
ENDBRANCH   7  11
ENDBRANCH   1   7
BRANCH   4  22
ATOM     22  C   UNL     1      47.512   8.328  11.597  0.00  0.00    +0.000 C 
BRANCH  22  23
ATOM     23  N   UNL     1      46.784   7.085  11.621  0.00  0.00    +0.000 N 
ATOM     24  C   UNL     1      45.415   7.050  11.535  0.00  0.00    +0.000 C 
ATOM     25  O   UNL     1      44.743   8.068  11.393  0.00  0.00    +0.000 OA
ATOM     26  H   UNL     1      47.279   6.276  11.981  0.00  0.00    +0.000 HD
BRANCH  24  27
ATOM     27  C   UNL     1      44.799   5.719  11.560  0.00  0.00    +0.000 A 
ATOM     28  C   UNL     1      44.073   5.313  12.675  0.00  0.00    +0.000 A 
ATOM     29  S   UNL     1      43.383   3.761  12.513  0.00  0.00    +0.000 S 
ATOM     30  C   UNL     1      44.071   3.555  10.970  0.00  0.00    +0.000 A 
ATOM     31  N   UNL     1      43.885   2.405  10.269  0.00  0.00    +0.000 NA
ATOM     32  C   UNL     1      44.483   2.375   9.123  0.00  0.00    +0.000 A 
ATOM     33  N   UNL     1      45.242   3.392   8.615  0.00  0.00    +0.000 N 
ATOM     34  C   UNL     1      45.438   4.583   9.275  0.00  0.00    +0.000 A 
ATOM     35  O   UNL     1      46.090   5.487   8.771  0.00  0.00    +0.000 OA
ATOM     36  C   UNL     1      44.798   4.663  10.573  0.00  0.00    +0.000 A 
ATOM     37  H   UNL     1      45.679   3.312   7.707  0.00  0.00    +0.000 HD
ENDBRANCH  24  27
ENDBRANCH  22  23
ENDBRANCH   4  22
TORSDOF 10
ENDMDL
MODEL 6
REMARK VINA RESULT:    -5.106     10.525     11.826
REMARK INTER + INTRA:          -9.103
REMARK INTER:                  -7.404
REMARK INTRA:                  -1.699
REMARK UNBOUND:                -1.161
REMARK  Name = 
REMARK  10 active torsions:
REMARK  status: ('A' for Active; 'I' for Inactive)
REMARK    1  A    between atoms: N_1  and  C_2
REMARK    2  A    between atoms: C_2  and  C_3
REMARK    3  A    between atoms: C_3  and  N_4
REMARK    4  A    between atoms: N_4  and  C_5
REMARK    5  A    between atoms: C_5  and  C_6
REMARK    6  A    between atoms: C_9  and  C_10
REMARK    7  A    between atoms: C_10  and  C_11
REMARK    8  A    between atoms: C_14  and  C_15
REMARK    9  A    between atoms: C_15  and  N_16
REMARK   10  A    between atoms: C_17  and  C_19
REMARK                            x       y       z     vdW  Elec       q    Type
REMARK                         _______ _______ _______ _____ _____    ______ ____
ROOT
ATOM      1  C   UNL     1      41.267  -3.715  14.843  0.00  0.00    +0.000 A 
ATOM      2  C   UNL     1      40.576  -2.533  15.143  0.00  0.00    +0.000 A 
ATOM      3  C   UNL     1      40.309  -2.175  16.471  0.00  0.00    +0.000 A 
ATOM      4  C   UNL     1      40.737  -2.989  17.528  0.00  0.00    +0.000 A 
ATOM      5  C   UNL     1      41.400  -4.185  17.226  0.00  0.00    +0.000 A 
ATOM      6  C   UNL     1      41.675  -4.539  15.900  0.00  0.00    +0.000 A 
ENDROOT
BRANCH   1   7
ATOM      7  C   UNL     1      41.545  -4.098  13.408  0.00  0.00    +0.000 C 
BRANCH   7  11
ATOM      8  C   UNL     1      38.564  -3.098  10.527  0.00  0.00    +0.000 A 
ATOM      9  C   UNL     1      38.369  -4.229  11.320  0.00  0.00    +0.000 A 
ATOM     10  C   UNL     1      39.319  -4.549  12.282  0.00  0.00    +0.000 A 
ATOM     11  C   UNL     1      40.456  -3.751  12.428  0.00  0.00    +0.000 A 
ATOM     12  C   UNL     1      40.557  -2.632  11.607  0.00  0.00    +0.000 A 
ATOM     13  N   UNL     1      39.644  -2.290  10.667  0.00  0.00    +0.000 NA
BRANCH   8  14
ATOM     14  C   UNL     1      37.492  -2.688   9.535  0.00  0.00    +0.000 C 
BRANCH  14  15
ATOM     15  N   UNL     1      37.241  -1.231   9.500  0.00  0.00    +0.000 NA
ATOM     16  H   UNL     1      38.141  -0.777   9.678  0.00  0.00    +0.000 HD
BRANCH  15  17
ATOM     17  C   UNL     1      36.353  -0.808  10.602  0.00  0.00    +0.000 C 
BRANCH  17  18
ATOM     18  C   UNL     1      37.048   0.095  11.639  0.00  0.00    +0.000 C 
BRANCH  18  19
ATOM     19  N   UNL     1      38.330   0.587  11.121  0.00  0.00    +0.000 NA
ATOM     20  H   UNL     1      38.279   0.629  10.105  0.00  0.00    +0.000 HD
ATOM     21  H   UNL     1      39.054  -0.095  11.343  0.00  0.00    +0.000 HD
ENDBRANCH  18  19
ENDBRANCH  17  18
ENDBRANCH  15  17
ENDBRANCH  14  15
ENDBRANCH   8  14
ENDBRANCH   7  11
ENDBRANCH   1   7
BRANCH   4  22
ATOM     22  C   UNL     1      40.471  -2.603  18.961  0.00  0.00    +0.000 C 
BRANCH  22  23
ATOM     23  N   UNL     1      40.187  -1.196  19.085  0.00  0.00    +0.000 N 
ATOM     24  C   UNL     1      39.150  -0.736  19.855  0.00  0.00    +0.000 C 
ATOM     25  O   UNL     1      38.436  -1.491  20.510  0.00  0.00    +0.000 OA
ATOM     26  H   UNL     1      40.587  -0.588  18.378  0.00  0.00    +0.000 HD
BRANCH  24  27
ATOM     27  C   UNL     1      38.975   0.721  19.903  0.00  0.00    +0.000 A 
ATOM     28  C   UNL     1      39.174   1.403  21.098  0.00  0.00    +0.000 A 
ATOM     29  S   UNL     1      38.982   3.093  20.959  0.00  0.00    +0.000 S 
ATOM     30  C   UNL     1      38.577   2.968  19.311  0.00  0.00    +0.000 A 
ATOM     31  N   UNL     1      38.267   4.073  18.581  0.00  0.00    +0.000 NA
ATOM     32  C   UNL     1      37.956   3.830  17.350  0.00  0.00    +0.000 A 
ATOM     33  N   UNL     1      37.936   2.586  16.784  0.00  0.00    +0.000 N 
ATOM     34  C   UNL     1      38.266   1.443  17.474  0.00  0.00    +0.000 A 
ATOM     35  O   UNL     1      38.276   0.351  16.923  0.00  0.00    +0.000 OA
ATOM     36  C   UNL     1      38.610   1.659  18.866  0.00  0.00    +0.000 A 
ATOM     37  H   UNL     1      37.692   2.460  15.811  0.00  0.00    +0.000 HD
ENDBRANCH  24  27
ENDBRANCH  22  23
ENDBRANCH   4  22
TORSDOF 10
ENDMDL
MODEL 7
REMARK VINA RESULT:    -5.000      9.200     12.960
REMARK INTER + INTRA:          -8.938
REMARK INTER:                  -7.776
REMARK INTRA:                  -1.162
REMARK UNBOUND:                -1.161
REMARK  Name = 
REMARK  10 active torsions:
REMARK  status: ('A' for Active; 'I' for Inactive)
REMARK    1  A    between atoms: N_1  and  C_2
REMARK    2  A    between atoms: C_2  and  C_3
REMARK    3  A    between atoms: C_3  and  N_4
REMARK    4  A    between atoms: N_4  and  C_5
REMARK    5  A    between atoms: C_5  and  C_6
REMARK    6  A    between atoms: C_9  and  C_10
REMARK    7  A    between atoms: C_10  and  C_11
REMARK    8  A    between atoms: C_14  and  C_15
REMARK    9  A    between atoms: C_15  and  N_16
REMARK   10  A    between atoms: C_17  and  C_19
REMARK                            x       y       z     vdW  Elec       q    Type
REMARK                         _______ _______ _______ _____ _____    ______ ____
ROOT
ATOM      1  C   UNL     1      54.544  -0.780  18.190  0.00  0.00    +0.000 A 
ATOM      2  C   UNL     1      53.947  -1.438  19.273  0.00  0.00    +0.000 A 
ATOM      3  C   UNL     1      53.804  -2.831  19.275  0.00  0.00    +0.000 A 
ATOM      4  C   UNL     1      54.264  -3.598  18.198  0.00  0.00    +0.000 A 
ATOM      5  C   UNL     1      54.834  -2.936  17.101  0.00  0.00    +0.000 A 
ATOM      6  C   UNL     1      54.985  -1.545  17.102  0.00  0.00    +0.000 A 
ENDROOT
BRANCH   1   7
ATOM      7  C   UNL     1      54.689   0.724  18.190  0.00  0.00    +0.000 C 
BRANCH   7  11
ATOM      8  C   UNL     1      51.124   3.016  17.718  0.00  0.00    +0.000 A 
ATOM      9  C   UNL     1      51.138   1.704  17.245  0.00  0.00    +0.000 A 
ATOM     10  C   UNL     1      52.284   0.937  17.419  0.00  0.00    +0.000 A 
ATOM     11  C   UNL     1      53.403   1.493  18.042  0.00  0.00    +0.000 A 
ATOM     12  C   UNL     1      53.292   2.803  18.500  0.00  0.00    +0.000 A 
ATOM     13  N   UNL     1      52.186   3.571  18.352  0.00  0.00    +0.000 NA
BRANCH   8  14
ATOM     14  C   UNL     1      49.851   3.834  17.614  0.00  0.00    +0.000 C 
BRANCH  14  15
ATOM     15  N   UNL     1      48.895   3.323  16.608  0.00  0.00    +0.000 NA
ATOM     16  H   UNL     1      49.335   3.460  15.694  0.00  0.00    +0.000 HD
BRANCH  15  17
ATOM     17  C   UNL     1      47.655   4.124  16.582  0.00  0.00    +0.000 C 
BRANCH  17  18
ATOM     18  C   UNL     1      47.087   4.330  15.165  0.00  0.00    +0.000 C 
BRANCH  18  19
ATOM     19  N   UNL     1      47.430   3.197  14.298  0.00  0.00    +0.000 NA
ATOM     20  H   UNL     1      46.999   3.341  13.386  0.00  0.00    +0.000 HD
ATOM     21  H   UNL     1      47.007   2.353  14.683  0.00  0.00    +0.000 HD
ENDBRANCH  18  19
ENDBRANCH  17  18
ENDBRANCH  15  17
ENDBRANCH  14  15
ENDBRANCH   8  14
ENDBRANCH   7  11
ENDBRANCH   1   7
BRANCH   4  22
ATOM     22  C   UNL     1      54.132  -5.099  18.200  0.00  0.00    +0.000 C 
BRANCH  22  23
ATOM     23  N   UNL     1      54.433  -5.658  16.906  0.00  0.00    +0.000 N 
ATOM     24  C   UNL     1      53.446  -6.125  16.076  0.00  0.00    +0.000 C 
ATOM     25  O   UNL     1      52.256  -6.056  16.372  0.00  0.00    +0.000 OA
ATOM     26  H   UNL     1      55.392  -5.949  16.749  0.00  0.00    +0.000 HD
BRANCH  24  27
ATOM     27  C   UNL     1      53.887  -6.659  14.782  0.00  0.00    +0.000 A 
ATOM     28  C   UNL     1      54.087  -8.027  14.630  0.00  0.00    +0.000 A 
ATOM     29  S   UNL     1      54.547  -8.478  13.050  0.00  0.00    +0.000 S 
ATOM     30  C   UNL     1      54.544  -6.859  12.527  0.00  0.00    +0.000 A 
ATOM     31  N   UNL     1      54.879  -6.536  11.249  0.00  0.00    +0.000 NA
ATOM     32  C   UNL     1      54.858  -5.269  10.995  0.00  0.00    +0.000 A 
ATOM     33  N   UNL     1      54.525  -4.299  11.900  0.00  0.00    +0.000 N 
ATOM     34  C   UNL     1      54.156  -4.578  13.195  0.00  0.00    +0.000 A 
ATOM     35  O   UNL     1      53.825  -3.687  13.965  0.00  0.00    +0.000 OA
ATOM     36  C   UNL     1      54.176  -5.987  13.536  0.00  0.00    +0.000 A 
ATOM     37  H   UNL     1      54.519  -3.322  11.639  0.00  0.00    +0.000 HD
ENDBRANCH  24  27
ENDBRANCH  22  23
ENDBRANCH   4  22
TORSDOF 10
ENDMDL
MODEL 8
REMARK VINA RESULT:    -4.914     11.081     14.944
REMARK INTER + INTRA:          -8.804
REMARK INTER:                  -7.273
REMARK INTRA:                  -1.531
REMARK UNBOUND:                -1.161
REMARK  Name = 
REMARK  10 active torsions:
REMARK  status: ('A' for Active; 'I' for Inactive)
REMARK    1  A    between atoms: N_1  and  C_2
REMARK    2  A    between atoms: C_2  and  C_3
REMARK    3  A    between atoms: C_3  and  N_4
REMARK    4  A    between atoms: N_4  and  C_5
REMARK    5  A    between atoms: C_5  and  C_6
REMARK    6  A    between atoms: C_9  and  C_10
REMARK    7  A    between atoms: C_10  and  C_11
REMARK    8  A    between atoms: C_14  and  C_15
REMARK    9  A    between atoms: C_15  and  N_16
REMARK   10  A    between atoms: C_17  and  C_19
REMARK                            x       y       z     vdW  Elec       q    Type
REMARK                         _______ _______ _______ _____ _____    ______ ____
ROOT
ATOM      1  C   UNL     1      40.815  -3.840  14.887  0.00  0.00    +0.000 A 
ATOM      2  C   UNL     1      41.402  -3.233  13.768  0.00  0.00    +0.000 A 
ATOM      3  C   UNL     1      41.005  -3.583  12.471  0.00  0.00    +0.000 A 
ATOM      4  C   UNL     1      40.004  -4.541  12.266  0.00  0.00    +0.000 A 
ATOM      5  C   UNL     1      39.439  -5.169  13.384  0.00  0.00    +0.000 A 
ATOM      6  C   UNL     1      39.829  -4.814  14.680  0.00  0.00    +0.000 A 
ENDROOT
BRANCH   1   7
ATOM      7  C   UNL     1      41.253  -3.464  16.283  0.00  0.00    +0.000 C 
BRANCH   7  11
ATOM      8  C   UNL     1      38.998  -0.445  18.281  0.00  0.00    +0.000 A 
ATOM      9  C   UNL     1      39.097  -0.390  16.891  0.00  0.00    +0.000 A 
ATOM     10  C   UNL     1      39.805  -1.384  16.226  0.00  0.00    +0.000 A 
ATOM     11  C   UNL     1      40.419  -2.405  16.954  0.00  0.00    +0.000 A 
ATOM     12  C   UNL     1      40.251  -2.391  18.336  0.00  0.00    +0.000 A 
ATOM     13  N   UNL     1      39.561  -1.441  19.011  0.00  0.00    +0.000 NA
BRANCH   8  14
ATOM     14  C   UNL     1      38.155   0.583  19.012  0.00  0.00    +0.000 C 
BRANCH  14  15
ATOM     15  N   UNL     1      37.528   1.581  18.119  0.00  0.00    +0.000 NA
ATOM     16  H   UNL     1      37.993   1.491  17.211  0.00  0.00    +0.000 HD
BRANCH  15  17
ATOM     17  C   UNL     1      37.798   2.960  18.574  0.00  0.00    +0.000 C 
BRANCH  17  18
ATOM     18  C   UNL     1      38.179   3.920  17.430  0.00  0.00    +0.000 C 
BRANCH  18  19
ATOM     19  N   UNL     1      39.573   3.711  17.020  0.00  0.00    +0.000 NA
ATOM     20  H   UNL     1      40.185   4.139  17.712  0.00  0.00    +0.000 HD
ATOM     21  H   UNL     1      39.734   4.213  16.147  0.00  0.00    +0.000 HD
ENDBRANCH  18  19
ENDBRANCH  17  18
ENDBRANCH  15  17
ENDBRANCH  14  15
ENDBRANCH   8  14
ENDBRANCH   7  11
ENDBRANCH   1   7
BRANCH   4  22
ATOM     22  C   UNL     1      39.556  -4.910  10.875  0.00  0.00    +0.000 C 
BRANCH  22  23
ATOM     23  N   UNL     1      38.965  -3.785  10.195  0.00  0.00    +0.000 N 
ATOM     24  C   UNL     1      37.606  -3.654  10.067  0.00  0.00    +0.000 C 
ATOM     25  O   UNL     1      36.822  -4.462  10.557  0.00  0.00    +0.000 OA
ATOM     26  H   UNL     1      39.575  -3.254   9.582  0.00  0.00    +0.000 HD
BRANCH  24  27
ATOM     27  C   UNL     1      37.135  -2.456   9.360  0.00  0.00    +0.000 A 
ATOM     28  C   UNL     1      36.471  -2.586   8.145  0.00  0.00    +0.000 A 
ATOM     29  S   UNL     1      35.948  -1.099   7.491  0.00  0.00    +0.000 S 
ATOM     30  C   UNL     1      36.634  -0.227   8.781  0.00  0.00    +0.000 A 
ATOM     31  N   UNL     1      36.563   1.131   8.825  0.00  0.00    +0.000 NA
ATOM     32  C   UNL     1      37.146   1.665   9.847  0.00  0.00    +0.000 A 
ATOM     33  N   UNL     1      37.786   0.963  10.831  0.00  0.00    +0.000 N 
ATOM     34  C   UNL     1      37.862  -0.410  10.844  0.00  0.00    +0.000 A 
ATOM     35  O   UNL     1      38.408  -1.005  11.764  0.00  0.00    +0.000 OA
ATOM     36  C   UNL     1      37.234  -1.058   9.710  0.00  0.00    +0.000 A 
ATOM     37  H   UNL     1      38.217   1.438  11.613  0.00  0.00    +0.000 HD
ENDBRANCH  24  27
ENDBRANCH  22  23
ENDBRANCH   4  22
TORSDOF 10
ENDMDL
MODEL 9
REMARK VINA RESULT:    -4.824     11.409     13.368
REMARK INTER + INTRA:          -8.665
REMARK INTER:                  -7.723
REMARK INTRA:                  -0.942
REMARK UNBOUND:                -1.161
REMARK  Name = 
REMARK  10 active torsions:
REMARK  status: ('A' for Active; 'I' for Inactive)
REMARK    1  A    between atoms: N_1  and  C_2
REMARK    2  A    between atoms: C_2  and  C_3
REMARK    3  A    between atoms: C_3  and  N_4
REMARK    4  A    between atoms: N_4  and  C_5
REMARK    5  A    between atoms: C_5  and  C_6
REMARK    6  A    between atoms: C_9  and  C_10
REMARK    7  A    between atoms: C_10  and  C_11
REMARK    8  A    between atoms: C_14  and  C_15
REMARK    9  A    between atoms: C_15  and  N_16
REMARK   10  A    between atoms: C_17  and  C_19
REMARK                            x       y       z     vdW  Elec       q    Type
REMARK                         _______ _______ _______ _____ _____    ______ ____
ROOT
ATOM      1  C   UNL     1      42.165  -4.758  18.055  0.00  0.00    +0.000 A 
ATOM      2  C   UNL     1      41.429  -3.826  18.799  0.00  0.00    +0.000 A 
ATOM      3  C   UNL     1      40.759  -2.771  18.165  0.00  0.00    +0.000 A 
ATOM      4  C   UNL     1      40.803  -2.633  16.772  0.00  0.00    +0.000 A 
ATOM      5  C   UNL     1      41.564  -3.547  16.032  0.00  0.00    +0.000 A 
ATOM      6  C   UNL     1      42.227  -4.606  16.663  0.00  0.00    +0.000 A 
ENDROOT
BRANCH   1   7
ATOM      7  C   UNL     1      42.891  -5.889  18.745  0.00  0.00    +0.000 C 
BRANCH   7  11
ATOM      8  C   UNL     1      46.675  -6.828  17.016  0.00  0.00    +0.000 A 
ATOM      9  C   UNL     1      46.602  -5.769  17.920  0.00  0.00    +0.000 A 
ATOM     10  C   UNL     1      45.380  -5.472  18.512  0.00  0.00    +0.000 A 
ATOM     11  C   UNL     1      44.248  -6.219  18.182  0.00  0.00    +0.000 A 
ATOM     12  C   UNL     1      44.419  -7.270  17.285  0.00  0.00    +0.000 A 
ATOM     13  N   UNL     1      45.597  -7.589  16.698  0.00  0.00    +0.000 NA
BRANCH   8  14
ATOM     14  C   UNL     1      48.018  -7.220  16.430  0.00  0.00    +0.000 C 
BRANCH  14  15
ATOM     15  N   UNL     1      49.153  -6.440  16.969  0.00  0.00    +0.000 NA
ATOM     16  H   UNL     1      49.614  -6.005  16.164  0.00  0.00    +0.000 HD
BRANCH  15  17
ATOM     17  C   UNL     1      50.167  -7.316  17.590  0.00  0.00    +0.000 C 
BRANCH  17  18
ATOM     18  C   UNL     1      51.521  -6.619  17.820  0.00  0.00    +0.000 C 
BRANCH  18  19
ATOM     19  N   UNL     1      52.032  -6.050  16.567  0.00  0.00    +0.000 NA
ATOM     20  H   UNL     1      52.691  -5.306  16.790  0.00  0.00    +0.000 HD
ATOM     21  H   UNL     1      51.258  -5.608  16.071  0.00  0.00    +0.000 HD
ENDBRANCH  18  19
ENDBRANCH  17  18
ENDBRANCH  15  17
ENDBRANCH  14  15
ENDBRANCH   8  14
ENDBRANCH   7  11
ENDBRANCH   1   7
BRANCH   4  22
ATOM     22  C   UNL     1      40.069  -1.513  16.079  0.00  0.00    +0.000 C 
BRANCH  22  23
ATOM     23  N   UNL     1      39.183  -0.824  16.983  0.00  0.00    +0.000 N 
ATOM     24  C   UNL     1      38.214   0.033  16.527  0.00  0.00    +0.000 C 
ATOM     25  O   UNL     1      38.023   0.227  15.330  0.00  0.00    +0.000 OA
ATOM     26  H   UNL     1      39.474  -0.773  17.954  0.00  0.00    +0.000 HD
BRANCH  24  27
ATOM     27  C   UNL     1      37.372   0.661  17.553  0.00  0.00    +0.000 A 
ATOM     28  C   UNL     1      36.368  -0.076  18.172  0.00  0.00    +0.000 A 
ATOM     29  S   UNL     1      35.525   0.794  19.373  0.00  0.00    +0.000 S 
ATOM     30  C   UNL     1      36.436   2.200  19.074  0.00  0.00    +0.000 A 
ATOM     31  N   UNL     1      36.199   3.348  19.764  0.00  0.00    +0.000 NA
ATOM     32  C   UNL     1      36.948   4.343  19.419  0.00  0.00    +0.000 A 
ATOM     33  N   UNL     1      37.915   4.291  18.453  0.00  0.00    +0.000 N 
ATOM     34  C   UNL     1      38.208   3.148  17.748  0.00  0.00    +0.000 A 
ATOM     35  O   UNL     1      39.109   3.129  16.919  0.00  0.00    +0.000 OA
ATOM     36  C   UNL     1      37.386   2.003  18.088  0.00  0.00    +0.000 A 
ATOM     37  H   UNL     1      38.475   5.104  18.233  0.00  0.00    +0.000 HD
ENDBRANCH  24  27
ENDBRANCH  22  23
ENDBRANCH   4  22
TORSDOF 10
ENDMDL
