MODEL 1
REMARK VINA RESULT:    -8.947      0.000      0.000
REMARK INTER + INTRA:         -11.796
REMARK INTER:                 -11.039
REMARK INTRA:                  -0.757
REMARK UNBOUND:                -0.757
REMARK  Name = 
REMARK  4 active torsions:
REMARK  status: ('A' for Active; 'I' for Inactive)
REMARK    1  A    between atoms: C_2  and  C_4
REMARK    2  A    between atoms: N_8  and  C_9
REMARK    3  A    between atoms: C_9  and  C_10
REMARK    4  A    between atoms: C_12  and  C_13
REMARK                            x       y       z     vdW  Elec       q    Type
REMARK                         _______ _______ _______ _____ _____    ______ ____
ROOT
ATOM      1  C   UNL     1      43.615   5.366  10.956  0.00  0.00    +0.000 C 
ENDROOT
BRANCH   1   6
ATOM      2  C   UNL     1      46.421   2.484   7.753  0.00  0.00    +0.000 A 
ATOM      3  C   UNL     1      46.224   3.860   7.761  0.00  0.00    +0.000 A 
ATOM      4  C   UNL     1      45.298   4.410   8.648  0.00  0.00    +0.000 A 
ATOM      5  C   UNL     1      44.595   3.587   9.518  0.00  0.00    +0.000 A 
ATOM      6  N   UNL     1      43.617   4.039  10.373  0.00  0.00    +0.000 N 
ATOM      7  N   UNL     1      44.773   2.246   9.510  0.00  0.00    +0.000 NA
ATOM      8  C   UNL     1      45.666   1.724   8.627  0.00  0.00    +0.000 A 
ATOM      9  H   UNL     1      43.312   3.274  10.963  0.00  0.00    +0.000 HD
BRANCH   2  11
ATOM     10  N   UNL     1      48.440   2.562   6.409  0.00  0.00    +0.000 N 
ATOM     11  C   UNL     1      47.368   1.825   6.830  0.00  0.00    +0.000 C 
ATOM     12  O   UNL     1      47.218   0.663   6.478  0.00  0.00    +0.000 OA
ATOM     13  H   UNL     1      49.132   2.082   5.848  0.00  0.00    +0.000 HD
ATOM     14  H   UNL     1      48.718   3.425   6.857  0.00  0.00    +0.000 HD
ENDBRANCH   2  11
ENDBRANCH   1   6
BRANCH   1  15
ATOM     15  C   UNL     1      44.779   5.598  11.883  0.00  0.00    +0.000 A 
ATOM     16  C   UNL     1      45.745   6.579  11.598  0.00  0.00    +0.000 A 
ATOM     17  C   UNL     1      46.890   6.767  12.400  0.00  0.00    +0.000 A 
ATOM     18  C   UNL     1      47.037   5.923  13.518  0.00  0.00    +0.000 A 
ATOM     19  C   UNL     1      46.091   4.937  13.811  0.00  0.00    +0.000 A 
ATOM     20  C   UNL     1      44.975   4.784  12.998  0.00  0.00    +0.000 A 
ATOM     21  F   UNL     1      44.095   3.814  13.287  0.00  0.00    +0.000 F 
BRANCH  17  22
ATOM     22  C   UNL     1      47.902   7.791  12.059  0.00  0.00    +0.000 A 
ATOM     23  C   UNL     1      49.230   7.457  11.751  0.00  0.00    +0.000 A 
ATOM     24  C   UNL     1      50.170   8.448  11.465  0.00  0.00    +0.000 A 
ATOM     25  C   UNL     1      49.756   9.767  11.480  0.00  0.00    +0.000 A 
ATOM     26  N   UNL     1      48.494  10.147  11.758  0.00  0.00    +0.000 NA
ATOM     27  C   UNL     1      47.609   9.158  12.043  0.00  0.00    +0.000 A 
ENDBRANCH  17  22
ENDBRANCH   1  15
TORSDOF 4
ENDMDL
MODEL 2
REMARK VINA RESULT:    -7.895      2.940      6.809
REMARK INTER + INTRA:         -10.498
REMARK INTER:                  -9.843
REMARK INTRA:                  -0.655
REMARK UNBOUND:                -0.757
REMARK  Name = 
REMARK  4 active torsions:
REMARK  status: ('A' for Active; 'I' for Inactive)
REMARK    1  A    between atoms: C_2  and  C_4
REMARK    2  A    between atoms: N_8  and  C_9
REMARK    3  A    between atoms: C_9  and  C_10
REMARK    4  A    between atoms: C_12  and  C_13
REMARK                            x       y       z     vdW  Elec       q    Type
REMARK                         _______ _______ _______ _____ _____    ______ ____
ROOT
ATOM      1  C   UNL     1      44.138   6.719  11.357  0.00  0.00    +0.000 C 
ENDROOT
BRANCH   1   6
ATOM      2  C   UNL     1      48.855   8.142  12.832  0.00  0.00    +0.000 A 
ATOM      3  C   UNL     1      48.469   7.299  11.795  0.00  0.00    +0.000 A 
ATOM      4  C   UNL     1      47.126   6.942  11.672  0.00  0.00    +0.000 A 
ATOM      5  C   UNL     1      46.189   7.438  12.570  0.00  0.00    +0.000 A 
ATOM      6  N   UNL     1      44.861   7.082  12.560  0.00  0.00    +0.000 N 
ATOM      7  N   UNL     1      46.557   8.250  13.587  0.00  0.00    +0.000 NA
ATOM      8  C   UNL     1      47.873   8.573  13.705  0.00  0.00    +0.000 A 
ATOM      9  H   UNL     1      44.364   7.633  13.250  0.00  0.00    +0.000 HD
BRANCH   2  11
ATOM     10  N   UNL     1      51.009   7.777  13.886  0.00  0.00    +0.000 N 
ATOM     11  C   UNL     1      50.260   8.548  13.041  0.00  0.00    +0.000 C 
ATOM     12  O   UNL     1      50.741   9.513  12.465  0.00  0.00    +0.000 OA
ATOM     13  H   UNL     1      51.992   8.006  13.960  0.00  0.00    +0.000 HD
ATOM     14  H   UNL     1      50.719   6.857  14.186  0.00  0.00    +0.000 HD
ENDBRANCH   2  11
ENDBRANCH   1   6
BRANCH   1  15
ATOM     15  C   UNL     1      44.182   5.241  11.073  0.00  0.00    +0.000 A 
ATOM     16  C   UNL     1      44.926   4.736   9.992  0.00  0.00    +0.000 A 
ATOM     17  C   UNL     1      44.923   3.367   9.648  0.00  0.00    +0.000 A 
ATOM     18  C   UNL     1      44.136   2.508  10.438  0.00  0.00    +0.000 A 
ATOM     19  C   UNL     1      43.383   2.994  11.510  0.00  0.00    +0.000 A 
ATOM     20  C   UNL     1      43.414   4.349  11.819  0.00  0.00    +0.000 A 
ATOM     21  F   UNL     1      42.663   4.794  12.838  0.00  0.00    +0.000 F 
BRANCH  17  22
ATOM     22  C   UNL     1      45.696   2.870   8.489  0.00  0.00    +0.000 A 
ATOM     23  C   UNL     1      46.046   3.699   7.411  0.00  0.00    +0.000 A 
ATOM     24  C   UNL     1      46.746   3.192   6.316  0.00  0.00    +0.000 A 
ATOM     25  C   UNL     1      47.100   1.856   6.325  0.00  0.00    +0.000 A 
ATOM     26  N   UNL     1      46.801   1.015   7.334  0.00  0.00    +0.000 NA
ATOM     27  C   UNL     1      46.108   1.538   8.378  0.00  0.00    +0.000 A 
ENDBRANCH  17  22
ENDBRANCH   1  15
TORSDOF 4
ENDMDL
MODEL 3
REMARK VINA RESULT:    -7.848      2.442      3.978
REMARK INTER + INTRA:         -10.440
REMARK INTER:                  -9.692
REMARK INTRA:                  -0.748
REMARK UNBOUND:                -0.757
REMARK  Name = 
REMARK  4 active torsions:
REMARK  status: ('A' for Active; 'I' for Inactive)
REMARK    1  A    between atoms: C_2  and  C_4
REMARK    2  A    between atoms: N_8  and  C_9
REMARK    3  A    between atoms: C_9  and  C_10
REMARK    4  A    between atoms: C_12  and  C_13
REMARK                            x       y       z     vdW  Elec       q    Type
REMARK                         _______ _______ _______ _____ _____    ______ ____
ROOT
ATOM      1  C   UNL     1      43.604   5.162  11.696  0.00  0.00    +0.000 C 
ENDROOT
BRANCH   1   6
ATOM      2  C   UNL     1      46.079   2.849   7.827  0.00  0.00    +0.000 A 
ATOM      3  C   UNL     1      45.757   4.191   7.994  0.00  0.00    +0.000 A 
ATOM      4  C   UNL     1      44.948   4.569   9.067  0.00  0.00    +0.000 A 
ATOM      5  C   UNL     1      44.486   3.612   9.960  0.00  0.00    +0.000 A 
ATOM      6  N   UNL     1      43.631   3.890  11.001  0.00  0.00    +0.000 N 
ATOM      7  N   UNL     1      44.786   2.303   9.800  0.00  0.00    +0.000 NA
ATOM      8  C   UNL     1      45.560   1.948   8.738  0.00  0.00    +0.000 A 
ATOM      9  H   UNL     1      43.504   3.054  11.559  0.00  0.00    +0.000 HD
BRANCH   2  11
ATOM     10  N   UNL     1      47.874   1.444   7.000  0.00  0.00    +0.000 N 
ATOM     11  C   UNL     1      46.911   2.368   6.705  0.00  0.00    +0.000 C 
ATOM     12  O   UNL     1      46.730   2.756   5.560  0.00  0.00    +0.000 OA
ATOM     13  H   UNL     1      48.384   1.051   6.218  0.00  0.00    +0.000 HD
ATOM     14  H   UNL     1      47.893   0.935   7.873  0.00  0.00    +0.000 HD
ENDBRANCH   2  11
ENDBRANCH   1   6
BRANCH   1  15
ATOM     15  C   UNL     1      44.933   5.523  12.304  0.00  0.00    +0.000 A 
ATOM     16  C   UNL     1      45.464   4.780  13.373  0.00  0.00    +0.000 A 
ATOM     17  C   UNL     1      46.666   5.140  14.019  0.00  0.00    +0.000 A 
ATOM     18  C   UNL     1      47.329   6.290  13.549  0.00  0.00    +0.000 A 
ATOM     19  C   UNL     1      46.810   7.046  12.494  0.00  0.00    +0.000 A 
ATOM     20  C   UNL     1      45.624   6.658  11.881  0.00  0.00    +0.000 A 
ATOM     21  F   UNL     1      45.135   7.414  10.888  0.00  0.00    +0.000 F 
BRANCH  17  22
ATOM     22  C   UNL     1      47.186   4.352  15.158  0.00  0.00    +0.000 A 
ATOM     23  C   UNL     1      47.072   4.793  16.486  0.00  0.00    +0.000 A 
ATOM     24  C   UNL     1      47.603   4.042  17.536  0.00  0.00    +0.000 A 
ATOM     25  C   UNL     1      48.231   2.848  17.238  0.00  0.00    +0.000 A 
ATOM     26  N   UNL     1      48.361   2.370  15.985  0.00  0.00    +0.000 NA
ATOM     27  C   UNL     1      47.845   3.131  14.986  0.00  0.00    +0.000 A 
ENDBRANCH  17  22
ENDBRANCH   1  15
TORSDOF 4
ENDMDL
MODEL 4
REMARK VINA RESULT:    -7.538      4.634      7.859
REMARK INTER + INTRA:         -10.057
REMARK INTER:                  -9.542
REMARK INTRA:                  -0.516
REMARK UNBOUND:                -0.757
REMARK  Name = 
REMARK  4 active torsions:
REMARK  status: ('A' for Active; 'I' for Inactive)
REMARK    1  A    between atoms: C_2  and  C_4
REMARK    2  A    between atoms: N_8  and  C_9
REMARK    3  A    between atoms: C_9  and  C_10
REMARK    4  A    between atoms: C_12  and  C_13
REMARK                            x       y       z     vdW  Elec       q    Type
REMARK                         _______ _______ _______ _____ _____    ______ ____
ROOT
ATOM      1  C   UNL     1      45.919   5.251  13.668  0.00  0.00    +0.000 C 
ENDROOT
BRANCH   1   6
ATOM      2  C   UNL     1      48.523   4.404  18.021  0.00  0.00    +0.000 A 
ATOM      3  C   UNL     1      48.617   5.465  17.127  0.00  0.00    +0.000 A 
ATOM      4  C   UNL     1      47.904   5.410  15.928  0.00  0.00    +0.000 A 
ATOM      5  C   UNL     1      47.103   4.312  15.645  0.00  0.00    +0.000 A 
ATOM      6  N   UNL     1      46.425   4.148  14.460  0.00  0.00    +0.000 N 
ATOM      7  N   UNL     1      47.013   3.271  16.505  0.00  0.00    +0.000 NA
ATOM      8  C   UNL     1      47.729   3.332  17.661  0.00  0.00    +0.000 A 
ATOM      9  H   UNL     1      45.845   3.318  14.521  0.00  0.00    +0.000 HD
BRANCH   2  11
ATOM     10  N   UNL     1      48.606   3.868  20.386  0.00  0.00    +0.000 N 
ATOM     11  C   UNL     1      49.262   4.379  19.300  0.00  0.00    +0.000 C 
ATOM     12  O   UNL     1      50.418   4.770  19.381  0.00  0.00    +0.000 OA
ATOM     13  H   UNL     1      49.143   3.771  21.238  0.00  0.00    +0.000 HD
ATOM     14  H   UNL     1      47.756   3.328  20.304  0.00  0.00    +0.000 HD
ENDBRANCH   2  11
ENDBRANCH   1   6
BRANCH   1  15
ATOM     15  C   UNL     1      45.059   4.799  12.518  0.00  0.00    +0.000 A 
ATOM     16  C   UNL     1      45.636   4.269  11.350  0.00  0.00    +0.000 A 
ATOM     17  C   UNL     1      44.865   3.912  10.223  0.00  0.00    +0.000 A 
ATOM     18  C   UNL     1      43.473   4.107  10.309  0.00  0.00    +0.000 A 
ATOM     19  C   UNL     1      42.885   4.641  11.458  0.00  0.00    +0.000 A 
ATOM     20  C   UNL     1      43.677   4.978  12.549  0.00  0.00    +0.000 A 
ATOM     21  F   UNL     1      43.091   5.511  13.631  0.00  0.00    +0.000 F 
BRANCH  17  22
ATOM     22  C   UNL     1      45.504   3.382   8.998  0.00  0.00    +0.000 A 
ATOM     23  C   UNL     1      45.764   2.014   8.822  0.00  0.00    +0.000 A 
ATOM     24  C   UNL     1      46.398   1.549   7.669  0.00  0.00    +0.000 A 
ATOM     25  C   UNL     1      46.752   2.468   6.699  0.00  0.00    +0.000 A 
ATOM     26  N   UNL     1      46.521   3.790   6.809  0.00  0.00    +0.000 NA
ATOM     27  C   UNL     1      45.913   4.210   7.948  0.00  0.00    +0.000 A 
ENDBRANCH  17  22
ENDBRANCH   1  15
TORSDOF 4
ENDMDL
MODEL 5
REMARK VINA RESULT:    -6.956      2.851      6.813
REMARK INTER + INTRA:          -9.340
REMARK INTER:                  -8.747
REMARK INTRA:                  -0.592
REMARK UNBOUND:                -0.757
REMARK  Name = 
REMARK  4 active torsions:
REMARK  status: ('A' for Active; 'I' for Inactive)
REMARK    1  A    between atoms: C_2  and  C_4
REMARK    2  A    between atoms: N_8  and  C_9
REMARK    3  A    between atoms: C_9  and  C_10
REMARK    4  A    between atoms: C_12  and  C_13
REMARK                            x       y       z     vdW  Elec       q    Type
REMARK                         _______ _______ _______ _____ _____    ______ ____
ROOT
ATOM      1  C   UNL     1      45.729   4.542  13.718  0.00  0.00    +0.000 C 
ENDROOT
BRANCH   1   6
ATOM      2  C   UNL     1      48.753   8.521  12.508  0.00  0.00    +0.000 A 
ATOM      3  C   UNL     1      47.458   8.237  12.092  0.00  0.00    +0.000 A 
ATOM      4  C   UNL     1      46.883   7.014  12.441  0.00  0.00    +0.000 A 
ATOM      5  C   UNL     1      47.598   6.103  13.207  0.00  0.00    +0.000 A 
ATOM      6  N   UNL     1      47.133   4.851  13.535  0.00  0.00    +0.000 N 
ATOM      7  N   UNL     1      48.863   6.367  13.607  0.00  0.00    +0.000 NA
ATOM      8  C   UNL     1      49.416   7.556  13.243  0.00  0.00    +0.000 A 
ATOM      9  H   UNL     1      47.791   4.407  14.165  0.00  0.00    +0.000 HD
BRANCH   2  11
ATOM     10  N   UNL     1      50.371  10.247  13.046  0.00  0.00    +0.000 N 
ATOM     11  C   UNL     1      49.437   9.784  12.161  0.00  0.00    +0.000 C 
ATOM     12  O   UNL     1      49.201  10.376  11.118  0.00  0.00    +0.000 OA
ATOM     13  H   UNL     1      50.900  11.063  12.765  0.00  0.00    +0.000 HD
ATOM     14  H   UNL     1      50.755   9.672  13.784  0.00  0.00    +0.000 HD
ENDBRANCH   2  11
ENDBRANCH   1   6
BRANCH   1  15
ATOM     15  C   UNL     1      44.980   4.435  12.416  0.00  0.00    +0.000 A 
ATOM     16  C   UNL     1      45.570   3.829  11.292  0.00  0.00    +0.000 A 
ATOM     17  C   UNL     1      44.930   3.786  10.035  0.00  0.00    +0.000 A 
ATOM     18  C   UNL     1      43.656   4.380   9.942  0.00  0.00    +0.000 A 
ATOM     19  C   UNL     1      43.060   4.994  11.047  0.00  0.00    +0.000 A 
ATOM     20  C   UNL     1      43.721   5.014  12.268  0.00  0.00    +0.000 A 
ATOM     21  F   UNL     1      43.138   5.631  13.307  0.00  0.00    +0.000 F 
BRANCH  17  22
ATOM     22  C   UNL     1      45.587   3.165   8.864  0.00  0.00    +0.000 A 
ATOM     23  C   UNL     1      46.017   3.918   7.761  0.00  0.00    +0.000 A 
ATOM     24  C   UNL     1      46.605   3.298   6.657  0.00  0.00    +0.000 A 
ATOM     25  C   UNL     1      46.765   1.925   6.683  0.00  0.00    +0.000 A 
ATOM     26  N   UNL     1      46.381   1.153   7.717  0.00  0.00    +0.000 NA
ATOM     27  C   UNL     1      45.802   1.786   8.769  0.00  0.00    +0.000 A 
ENDBRANCH  17  22
ENDBRANCH   1  15
TORSDOF 4
ENDMDL
MODEL 6
REMARK VINA RESULT:    -6.873      4.049      7.415
REMARK INTER + INTRA:          -9.237
REMARK INTER:                  -8.968
REMARK INTRA:                  -0.269
REMARK UNBOUND:                -0.757
REMARK  Name = 
REMARK  4 active torsions:
REMARK  status: ('A' for Active; 'I' for Inactive)
REMARK    1  A    between atoms: C_2  and  C_4
REMARK    2  A    between atoms: N_8  and  C_9
REMARK    3  A    between atoms: C_9  and  C_10
REMARK    4  A    between atoms: C_12  and  C_13
REMARK                            x       y       z     vdW  Elec       q    Type
REMARK                         _______ _______ _______ _____ _____    ______ ____
ROOT
ATOM      1  C   UNL     1      48.704   7.559  12.901  0.00  0.00    +0.000 C 
ENDROOT
BRANCH   1   6
ATOM      2  C   UNL     1      47.854   4.337  16.817  0.00  0.00    +0.000 A 
ATOM      3  C   UNL     1      47.211   4.422  15.588  0.00  0.00    +0.000 A 
ATOM      4  C   UNL     1      47.520   5.479  14.730  0.00  0.00    +0.000 A 
ATOM      5  C   UNL     1      48.469   6.422  15.102  0.00  0.00    +0.000 A 
ATOM      6  N   UNL     1      48.781   7.529  14.348  0.00  0.00    +0.000 N 
ATOM      7  N   UNL     1      49.092   6.352  16.300  0.00  0.00    +0.000 NA
ATOM      8  C   UNL     1      48.766   5.326  17.133  0.00  0.00    +0.000 A 
ATOM      9  H   UNL     1      49.555   8.018  14.781  0.00  0.00    +0.000 HD
BRANCH   2  11
ATOM     10  N   UNL     1      48.392   3.167  18.873  0.00  0.00    +0.000 N 
ATOM     11  C   UNL     1      47.566   3.261  17.788  0.00  0.00    +0.000 C 
ATOM     12  O   UNL     1      46.617   2.504  17.644  0.00  0.00    +0.000 OA
ATOM     13  H   UNL     1      48.142   2.487  19.580  0.00  0.00    +0.000 HD
ATOM     14  H   UNL     1      49.027   3.907  19.141  0.00  0.00    +0.000 HD
ENDBRANCH   2  11
ENDBRANCH   1   6
BRANCH   1  15
ATOM     15  C   UNL     1      47.295   7.425  12.388  0.00  0.00    +0.000 A 
ATOM     16  C   UNL     1      46.903   6.301  11.638  0.00  0.00    +0.000 A 
ATOM     17  C   UNL     1      45.616   6.183  11.073  0.00  0.00    +0.000 A 
ATOM     18  C   UNL     1      44.719   7.247  11.288  0.00  0.00    +0.000 A 
ATOM     19  C   UNL     1      45.095   8.375  12.022  0.00  0.00    +0.000 A 
ATOM     20  C   UNL     1      46.372   8.454  12.565  0.00  0.00    +0.000 A 
ATOM     21  F   UNL     1      46.716   9.558  13.245  0.00  0.00    +0.000 F 
BRANCH  17  22
ATOM     22  C   UNL     1      45.242   5.000  10.267  0.00  0.00    +0.000 A 
ATOM     23  C   UNL     1      45.618   4.861   8.922  0.00  0.00    +0.000 A 
ATOM     24  C   UNL     1      45.221   3.749   8.179  0.00  0.00    +0.000 A 
ATOM     25  C   UNL     1      44.461   2.779   8.805  0.00  0.00    +0.000 A 
ATOM     26  N   UNL     1      44.079   2.852  10.095  0.00  0.00    +0.000 NA
ATOM     27  C   UNL     1      44.472   3.954  10.784  0.00  0.00    +0.000 A 
ENDBRANCH  17  22
ENDBRANCH   1  15
TORSDOF 4
ENDMDL
MODEL 7
REMARK VINA RESULT:    -6.608      3.821      5.900
REMARK INTER + INTRA:          -8.910
REMARK INTER:                  -8.282
REMARK INTRA:                  -0.628
REMARK UNBOUND:                -0.757
REMARK  Name = 
REMARK  4 active torsions:
REMARK  status: ('A' for Active; 'I' for Inactive)
REMARK    1  A    between atoms: C_2  and  C_4
REMARK    2  A    between atoms: N_8  and  C_9
REMARK    3  A    between atoms: C_9  and  C_10
REMARK    4  A    between atoms: C_12  and  C_13
REMARK                            x       y       z     vdW  Elec       q    Type
REMARK                         _______ _______ _______ _____ _____    ______ ____
ROOT
ATOM      1  C   UNL     1      47.213   8.549  13.053  0.00  0.00    +0.000 C 
ENDROOT
BRANCH   1   6
ATOM      2  C   UNL     1      44.575   4.405  11.530  0.00  0.00    +0.000 A 
ATOM      3  C   UNL     1      45.590   5.096  10.878  0.00  0.00    +0.000 A 
ATOM      4  C   UNL     1      46.064   6.288  11.427  0.00  0.00    +0.000 A 
ATOM      5  C   UNL     1      45.532   6.766  12.617  0.00  0.00    +0.000 A 
ATOM      6  N   UNL     1      45.893   7.964  13.187  0.00  0.00    +0.000 N 
ATOM      7  N   UNL     1      44.538   6.106  13.253  0.00  0.00    +0.000 NA
ATOM      8  C   UNL     1      44.073   4.955  12.696  0.00  0.00    +0.000 A 
ATOM      9  H   UNL     1      45.436   8.055  14.087  0.00  0.00    +0.000 HD
BRANCH   2  11
ATOM     10  N   UNL     1      44.717   2.508  10.025  0.00  0.00    +0.000 N 
ATOM     11  C   UNL     1      44.006   3.148  11.002  0.00  0.00    +0.000 C 
ATOM     12  O   UNL     1      42.962   2.684  11.437  0.00  0.00    +0.000 OA
ATOM     13  H   UNL     1      44.371   1.605   9.728  0.00  0.00    +0.000 HD
ATOM     14  H   UNL     1      45.680   2.732   9.816  0.00  0.00    +0.000 HD
ENDBRANCH   2  11
ENDBRANCH   1   6
BRANCH   1  15
ATOM     15  C   UNL     1      48.222   7.933  13.985  0.00  0.00    +0.000 A 
ATOM     16  C   UNL     1      47.904   6.789  14.739  0.00  0.00    +0.000 A 
ATOM     17  C   UNL     1      48.796   6.235  15.682  0.00  0.00    +0.000 A 
ATOM     18  C   UNL     1      50.038   6.878  15.846  0.00  0.00    +0.000 A 
ATOM     19  C   UNL     1      50.366   8.021  15.112  0.00  0.00    +0.000 A 
ATOM     20  C   UNL     1      49.462   8.535  14.191  0.00  0.00    +0.000 A 
ATOM     21  F   UNL     1      49.791   9.647  13.517  0.00  0.00    +0.000 F 
BRANCH  17  22
ATOM     22  C   UNL     1      48.422   5.046  16.479  0.00  0.00    +0.000 A 
ATOM     23  C   UNL     1      49.292   4.471  17.418  0.00  0.00    +0.000 A 
ATOM     24  C   UNL     1      48.923   3.329  18.131  0.00  0.00    +0.000 A 
ATOM     25  C   UNL     1      47.674   2.786  17.898  0.00  0.00    +0.000 A 
ATOM     26  N   UNL     1      46.793   3.299  17.017  0.00  0.00    +0.000 NA
ATOM     27  C   UNL     1      47.189   4.403  16.332  0.00  0.00    +0.000 A 
ENDBRANCH  17  22
ENDBRANCH   1  15
TORSDOF 4
ENDMDL
MODEL 8
REMARK VINA RESULT:    -6.423      4.941      7.334
REMARK INTER + INTRA:          -8.682
REMARK INTER:                  -8.079
REMARK INTRA:                  -0.603
REMARK UNBOUND:                -0.757
REMARK  Name = 
REMARK  4 active torsions:
REMARK  status: ('A' for Active; 'I' for Inactive)
REMARK    1  A    between atoms: C_2  and  C_4
REMARK    2  A    between atoms: N_8  and  C_9
REMARK    3  A    between atoms: C_9  and  C_10
REMARK    4  A    between atoms: C_12  and  C_13
REMARK                            x       y       z     vdW  Elec       q    Type
REMARK                         _______ _______ _______ _____ _____    ______ ____
ROOT
ATOM      1  C   UNL     1      46.480   4.352  13.512  0.00  0.00    +0.000 C 
ENDROOT
BRANCH   1   6
ATOM      2  C   UNL     1      48.745   4.522  18.125  0.00  0.00    +0.000 A 
ATOM      3  C   UNL     1      47.654   3.771  17.704  0.00  0.00    +0.000 A 
ATOM      4  C   UNL     1      47.121   3.998  16.434  0.00  0.00    +0.000 A 
ATOM      5  C   UNL     1      47.689   4.954  15.602  0.00  0.00    +0.000 A 
ATOM      6  N   UNL     1      47.184   5.287  14.367  0.00  0.00    +0.000 N 
ATOM      7  N   UNL     1      48.744   5.696  16.008  0.00  0.00    +0.000 NA
ATOM      8  C   UNL     1      49.240   5.476  17.256  0.00  0.00    +0.000 A 
ATOM      9  H   UNL     1      47.812   5.942  13.917  0.00  0.00    +0.000 HD
BRANCH   2  11
ATOM     10  N   UNL     1      48.593   3.736  20.415  0.00  0.00    +0.000 N 
ATOM     11  C   UNL     1      49.352   4.356  19.462  0.00  0.00    +0.000 C 
ATOM     12  O   UNL     1      50.492   4.730  19.700  0.00  0.00    +0.000 OA
ATOM     13  H   UNL     1      49.041   3.545  21.303  0.00  0.00    +0.000 HD
ATOM     14  H   UNL     1      47.757   3.213  20.192  0.00  0.00    +0.000 HD
ENDBRANCH   2  11
ENDBRANCH   1   6
BRANCH   1  15
ATOM     15  C   UNL     1      45.418   5.013  12.674  0.00  0.00    +0.000 A 
ATOM     16  C   UNL     1      45.467   6.392  12.403  0.00  0.00    +0.000 A 
ATOM     17  C   UNL     1      44.447   7.058  11.692  0.00  0.00    +0.000 A 
ATOM     18  C   UNL     1      43.357   6.282  11.254  0.00  0.00    +0.000 A 
ATOM     19  C   UNL     1      43.287   4.913  11.523  0.00  0.00    +0.000 A 
ATOM     20  C   UNL     1      44.313   4.292  12.224  0.00  0.00    +0.000 A 
ATOM     21  F   UNL     1      44.211   2.981  12.491  0.00  0.00    +0.000 F 
BRANCH  17  22
ATOM     22  C   UNL     1      44.515   8.516  11.445  0.00  0.00    +0.000 A 
ATOM     23  C   UNL     1      45.531   9.319  11.985  0.00  0.00    +0.000 A 
ATOM     24  C   UNL     1      45.549  10.697  11.761  0.00  0.00    +0.000 A 
ATOM     25  C   UNL     1      44.548  11.248  10.983  0.00  0.00    +0.000 A 
ATOM     26  N   UNL     1      43.553  10.526  10.432  0.00  0.00    +0.000 NA
ATOM     27  C   UNL     1      43.560   9.192  10.680  0.00  0.00    +0.000 A 
ENDBRANCH  17  22
ENDBRANCH   1  15
TORSDOF 4
ENDMDL
MODEL 9
REMARK VINA RESULT:    -6.203      4.700      8.224
REMARK INTER + INTRA:          -8.410
REMARK INTER:                  -7.562
REMARK INTRA:                  -0.848
REMARK UNBOUND:                -0.757
REMARK  Name = 
REMARK  4 active torsions:
REMARK  status: ('A' for Active; 'I' for Inactive)
REMARK    1  A    between atoms: C_2  and  C_4
REMARK    2  A    between atoms: N_8  and  C_9
REMARK    3  A    between atoms: C_9  and  C_10
REMARK    4  A    between atoms: C_12  and  C_13
REMARK                            x       y       z     vdW  Elec       q    Type
REMARK                         _______ _______ _______ _____ _____    ______ ____
ROOT
ATOM      1  C   UNL     1      48.942   7.909  12.464  0.00  0.00    +0.000 C 
ENDROOT
BRANCH   1   6
ATOM      2  C   UNL     1      48.683   7.205  17.552  0.00  0.00    +0.000 A 
ATOM      3  C   UNL     1      48.668   8.387  16.821  0.00  0.00    +0.000 A 
ATOM      4  C   UNL     1      48.896   8.341  15.446  0.00  0.00    +0.000 A 
ATOM      5  C   UNL     1      49.121   7.122  14.819  0.00  0.00    +0.000 A 
ATOM      6  N   UNL     1      49.422   6.996  13.483  0.00  0.00    +0.000 N 
ATOM      7  N   UNL     1      49.148   5.968  15.523  0.00  0.00    +0.000 NA
ATOM      8  C   UNL     1      48.942   6.032  16.866  0.00  0.00    +0.000 A 
ATOM      9  H   UNL     1      49.458   6.012  13.242  0.00  0.00    +0.000 HD
BRANCH   2  11
ATOM     10  N   UNL     1      47.637   6.206  19.500  0.00  0.00    +0.000 N 
ATOM     11  C   UNL     1      48.472   7.174  19.014  0.00  0.00    +0.000 C 
ATOM     12  O   UNL     1      49.038   7.959  19.760  0.00  0.00    +0.000 OA
ATOM     13  H   UNL     1      47.562   6.132  20.506  0.00  0.00    +0.000 HD
ATOM     14  H   UNL     1      47.347   5.410  18.949  0.00  0.00    +0.000 HD
ENDBRANCH   2  11
ENDBRANCH   1   6
BRANCH   1  15
ATOM     15  C   UNL     1      47.482   7.718  12.150  0.00  0.00    +0.000 A 
ATOM     16  C   UNL     1      47.027   6.544  11.523  0.00  0.00    +0.000 A 
ATOM     17  C   UNL     1      45.680   6.367  11.140  0.00  0.00    +0.000 A 
ATOM     18  C   UNL     1      44.790   7.424  11.412  0.00  0.00    +0.000 A 
ATOM     19  C   UNL     1      45.228   8.601  12.025  0.00  0.00    +0.000 A 
ATOM     20  C   UNL     1      46.562   8.737  12.390  0.00  0.00    +0.000 A 
ATOM     21  F   UNL     1      46.961   9.886  12.956  0.00  0.00    +0.000 F 
BRANCH  17  22
ATOM     22  C   UNL     1      45.237   5.131  10.458  0.00  0.00    +0.000 A 
ATOM     23  C   UNL     1      44.512   4.129  11.121  0.00  0.00    +0.000 A 
ATOM     24  C   UNL     1      44.137   2.959  10.459  0.00  0.00    +0.000 A 
ATOM     25  C   UNL     1      44.485   2.819   9.128  0.00  0.00    +0.000 A 
ATOM     26  N   UNL     1      45.171   3.750   8.437  0.00  0.00    +0.000 NA
ATOM     27  C   UNL     1      45.530   4.870   9.116  0.00  0.00    +0.000 A 
ENDBRANCH  17  22
ENDBRANCH   1  15
TORSDOF 4
ENDMDL
