MODEL 1
REMARK VINA RESULT:    -8.788      0.000      0.000
REMARK INTER + INTRA:         -12.378
REMARK INTER:                 -11.357
REMARK INTRA:                  -1.021
REMARK UNBOUND:                -1.021
REMARK  Name = 
REMARK  5 active torsions:
REMARK  status: ('A' for Active; 'I' for Inactive)
REMARK    1  A    between atoms: C_2  and  C_4
REMARK    2  A    between atoms: C_7  and  N_8
REMARK    3  A    between atoms: N_8  and  C_9
REMARK    4  A    between atoms: C_9  and  C_10
REMARK    5  A    between atoms: C_14  and  C_15
REMARK                            x       y       z     vdW  Elec       q    Type
REMARK                         _______ _______ _______ _____ _____    ______ ____
ROOT
ATOM      1  C   UNL     1      43.648   4.816  11.325  0.00  0.00    +0.000 C 
ENDROOT
BRANCH   1   2
ATOM      2  C   UNL     1      44.973   5.028  12.010  0.00  0.00    +0.000 A 
ATOM      3  C   UNL     1      45.456   4.100  12.932  0.00  0.00    +0.000 A 
ATOM      4  C   UNL     1      46.700   4.316  13.495  0.00  0.00    +0.000 A 
ATOM      5  N   UNL     1      47.478   5.383  13.212  0.00  0.00    +0.000 NA
ATOM      6  C   UNL     1      47.010   6.301  12.328  0.00  0.00    +0.000 A 
ATOM      7  C   UNL     1      45.773   6.138  11.702  0.00  0.00    +0.000 A 
BRANCH   6   8
ATOM      8  C   UNL     1      47.887   7.469  12.097  0.00  0.00    +0.000 A 
ATOM      9  C   UNL     1      49.274   7.330  11.886  0.00  0.00    +0.000 A 
ATOM     10  C   UNL     1      50.093   8.439  11.645  0.00  0.00    +0.000 A 
ATOM     11  C   UNL     1      49.540   9.715  11.607  0.00  0.00    +0.000 A 
ATOM     12  C   UNL     1      48.176   9.869  11.811  0.00  0.00    +0.000 A 
ATOM     13  F   UNL     1      47.643  11.099  11.773  0.00  0.00    +0.000 F 
ATOM     14  C   UNL     1      47.357   8.770  12.052  0.00  0.00    +0.000 A 
ENDBRANCH   6   8
ENDBRANCH   1   2
BRANCH   1  15
ATOM     15  N   UNL     1      43.797   4.915   9.881  0.00  0.00    +0.000 N 
ATOM     16  H   UNL     1      42.932   5.132   9.391  0.00  0.00    +0.000 HD
BRANCH  15  20
ATOM     17  C   UNL     1      46.349   2.222   7.863  0.00  0.00    +0.000 A 
ATOM     18  C   UNL     1      45.398   1.727   8.755  0.00  0.00    +0.000 A 
ATOM     19  C   UNL     1      44.537   2.608   9.422  0.00  0.00    +0.000 A 
ATOM     20  C   UNL     1      44.581   3.989   9.191  0.00  0.00    +0.000 A 
ATOM     21  C   UNL     1      45.558   4.469   8.307  0.00  0.00    +0.000 A 
ATOM     22  C   UNL     1      46.438   3.599   7.652  0.00  0.00    +0.000 A 
BRANCH  17  24
ATOM     23  N   UNL     1      48.364   1.913   6.532  0.00  0.00    +0.000 N 
ATOM     24  C   UNL     1      47.301   1.326   7.162  0.00  0.00    +0.000 C 
ATOM     25  O   UNL     1      47.168   0.109   7.169  0.00  0.00    +0.000 OA
ATOM     26  H   UNL     1      49.058   1.286   6.148  0.00  0.00    +0.000 HD
ATOM     27  H   UNL     1      48.642   2.865   6.717  0.00  0.00    +0.000 HD
ENDBRANCH  17  24
ENDBRANCH  15  20
ENDBRANCH   1  15
TORSDOF 5
ENDMDL
MODEL 2
REMARK VINA RESULT:    -8.702      1.167      1.811
REMARK INTER + INTRA:         -12.267
REMARK INTER:                 -11.333
REMARK INTRA:                  -0.934
REMARK UNBOUND:                -1.021
REMARK  Name = 
REMARK  5 active torsions:
REMARK  status: ('A' for Active; 'I' for Inactive)
REMARK    1  A    between atoms: C_2  and  C_4
REMARK    2  A    between atoms: C_7  and  N_8
REMARK    3  A    between atoms: N_8  and  C_9
REMARK    4  A    between atoms: C_9  and  C_10
REMARK    5  A    between atoms: C_14  and  C_15
REMARK                            x       y       z     vdW  Elec       q    Type
REMARK                         _______ _______ _______ _____ _____    ______ ____
ROOT
ATOM      1  C   UNL     1      43.576   4.906  11.273  0.00  0.00    +0.000 C 
ENDROOT
BRANCH   1   2
ATOM      2  C   UNL     1      44.874   5.164  11.993  0.00  0.00    +0.000 A 
ATOM      3  C   UNL     1      45.331   4.289  12.977  0.00  0.00    +0.000 A 
ATOM      4  C   UNL     1      46.552   4.545  13.571  0.00  0.00    +0.000 A 
ATOM      5  N   UNL     1      47.331   5.604  13.263  0.00  0.00    +0.000 NA
ATOM      6  C   UNL     1      46.888   6.471  12.318  0.00  0.00    +0.000 A 
ATOM      7  C   UNL     1      45.676   6.265  11.658  0.00  0.00    +0.000 A 
BRANCH   6   8
ATOM      8  C   UNL     1      47.764   7.635  12.060  0.00  0.00    +0.000 A 
ATOM      9  C   UNL     1      47.266   8.954  12.050  0.00  0.00    +0.000 A 
ATOM     10  C   UNL     1      48.106  10.052  11.829  0.00  0.00    +0.000 A 
ATOM     11  C   UNL     1      49.467   9.853  11.615  0.00  0.00    +0.000 A 
ATOM     12  C   UNL     1      49.973   8.561  11.623  0.00  0.00    +0.000 A 
ATOM     13  F   UNL     1      51.284   8.369  11.419  0.00  0.00    +0.000 F 
ATOM     14  C   UNL     1      49.142   7.465  11.841  0.00  0.00    +0.000 A 
ENDBRANCH   6   8
ENDBRANCH   1   2
BRANCH   1  15
ATOM     15  N   UNL     1      43.778   4.919   9.833  0.00  0.00    +0.000 N 
ATOM     16  H   UNL     1      42.921   5.038   9.297  0.00  0.00    +0.000 HD
BRANCH  15  20
ATOM     17  C   UNL     1      46.259   2.055   7.970  0.00  0.00    +0.000 A 
ATOM     18  C   UNL     1      46.405   3.403   7.644  0.00  0.00    +0.000 A 
ATOM     19  C   UNL     1      45.597   4.365   8.263  0.00  0.00    +0.000 A 
ATOM     20  C   UNL     1      44.656   4.011   9.239  0.00  0.00    +0.000 A 
ATOM     21  C   UNL     1      44.510   2.649   9.537  0.00  0.00    +0.000 A 
ATOM     22  C   UNL     1      45.296   1.677   8.907  0.00  0.00    +0.000 A 
BRANCH  17  24
ATOM     23  N   UNL     1      46.804  -0.296   7.647  0.00  0.00    +0.000 N 
ATOM     24  C   UNL     1      47.072   1.002   7.312  0.00  0.00    +0.000 C 
ATOM     25  O   UNL     1      47.927   1.272   6.479  0.00  0.00    +0.000 OA
ATOM     26  H   UNL     1      47.292  -1.006   7.117  0.00  0.00    +0.000 HD
ATOM     27  H   UNL     1      45.954  -0.566   8.122  0.00  0.00    +0.000 HD
ENDBRANCH  17  24
ENDBRANCH  15  20
ENDBRANCH   1  15
TORSDOF 5
ENDMDL
MODEL 3
REMARK VINA RESULT:    -8.390      3.825      6.920
REMARK INTER + INTRA:         -11.863
REMARK INTER:                 -10.887
REMARK INTRA:                  -0.976
REMARK UNBOUND:                -1.021
REMARK  Name = 
REMARK  5 active torsions:
REMARK  status: ('A' for Active; 'I' for Inactive)
REMARK    1  A    between atoms: C_2  and  C_4
REMARK    2  A    between atoms: C_7  and  N_8
REMARK    3  A    between atoms: N_8  and  C_9
REMARK    4  A    between atoms: C_9  and  C_10
REMARK    5  A    between atoms: C_14  and  C_15
REMARK                            x       y       z     vdW  Elec       q    Type
REMARK                         _______ _______ _______ _____ _____    ______ ____
ROOT
ATOM      1  C   UNL     1      43.734   6.630  11.400  0.00  0.00    +0.000 C 
ENDROOT
BRANCH   1   2
ATOM      2  C   UNL     1      43.842   5.164  11.068  0.00  0.00    +0.000 A 
ATOM      3  C   UNL     1      43.138   4.212  11.804  0.00  0.00    +0.000 A 
ATOM      4  C   UNL     1      43.233   2.886  11.427  0.00  0.00    +0.000 A 
ATOM      5  N   UNL     1      43.978   2.451  10.388  0.00  0.00    +0.000 NA
ATOM      6  C   UNL     1      44.681   3.368   9.676  0.00  0.00    +0.000 A 
ATOM      7  C   UNL     1      44.616   4.728   9.983  0.00  0.00    +0.000 A 
BRANCH   6   8
ATOM      8  C   UNL     1      45.515   2.823   8.582  0.00  0.00    +0.000 A 
ATOM      9  C   UNL     1      46.001   3.637   7.539  0.00  0.00    +0.000 A 
ATOM     10  C   UNL     1      46.810   3.119   6.521  0.00  0.00    +0.000 A 
ATOM     11  C   UNL     1      47.153   1.770   6.527  0.00  0.00    +0.000 A 
ATOM     12  C   UNL     1      46.684   0.955   7.547  0.00  0.00    +0.000 A 
ATOM     13  F   UNL     1      47.015  -0.344   7.554  0.00  0.00    +0.000 F 
ATOM     14  C   UNL     1      45.878   1.465   8.562  0.00  0.00    +0.000 A 
ENDBRANCH   6   8
ENDBRANCH   1   2
BRANCH   1  15
ATOM     15  N   UNL     1      44.484   6.937  12.608  0.00  0.00    +0.000 N 
ATOM     16  H   UNL     1      44.049   7.647  13.195  0.00  0.00    +0.000 HD
BRANCH  15  20
ATOM     17  C   UNL     1      48.667   7.512  12.575  0.00  0.00    +0.000 A 
ATOM     18  C   UNL     1      48.145   6.304  13.040  0.00  0.00    +0.000 A 
ATOM     19  C   UNL     1      46.760   6.096  13.044  0.00  0.00    +0.000 A 
ATOM     20  C   UNL     1      45.873   7.065  12.559  0.00  0.00    +0.000 A 
ATOM     21  C   UNL     1      46.416   8.280  12.116  0.00  0.00    +0.000 A 
ATOM     22  C   UNL     1      47.797   8.507  12.127  0.00  0.00    +0.000 A 
BRANCH  17  24
ATOM     23  N   UNL     1      50.838   7.417  11.475  0.00  0.00    +0.000 N 
ATOM     24  C   UNL     1      50.126   7.784  12.584  0.00  0.00    +0.000 C 
ATOM     25  O   UNL     1      50.673   8.344  13.525  0.00  0.00    +0.000 OA
ATOM     26  H   UNL     1      51.808   7.702  11.452  0.00  0.00    +0.000 HD
ATOM     27  H   UNL     1      50.392   7.196  10.597  0.00  0.00    +0.000 HD
ENDBRANCH  17  24
ENDBRANCH  15  20
ENDBRANCH   1  15
TORSDOF 5
ENDMDL
MODEL 4
REMARK VINA RESULT:    -7.844      4.013      7.411
REMARK INTER + INTRA:         -11.158
REMARK INTER:                 -10.709
REMARK INTRA:                  -0.449
REMARK UNBOUND:                -1.021
REMARK  Name = 
REMARK  5 active torsions:
REMARK  status: ('A' for Active; 'I' for Inactive)
REMARK    1  A    between atoms: C_2  and  C_4
REMARK    2  A    between atoms: C_7  and  N_8
REMARK    3  A    between atoms: N_8  and  C_9
REMARK    4  A    between atoms: C_9  and  C_10
REMARK    5  A    between atoms: C_14  and  C_15
REMARK                            x       y       z     vdW  Elec       q    Type
REMARK                         _______ _______ _______ _____ _____    ______ ____
ROOT
ATOM      1  C   UNL     1      45.557   7.056  11.540  0.00  0.00    +0.000 C 
ENDROOT
BRANCH   1   2
ATOM      2  C   UNL     1      44.986   5.785  10.968  0.00  0.00    +0.000 A 
ATOM      3  C   UNL     1      43.764   5.286  11.419  0.00  0.00    +0.000 A 
ATOM      4  C   UNL     1      43.260   4.144  10.826  0.00  0.00    +0.000 A 
ATOM      5  N   UNL     1      43.886   3.470   9.838  0.00  0.00    +0.000 NA
ATOM      6  C   UNL     1      45.084   3.938   9.404  0.00  0.00    +0.000 A 
ATOM      7  C   UNL     1      45.645   5.099   9.938  0.00  0.00    +0.000 A 
BRANCH   6   8
ATOM      8  C   UNL     1      45.741   3.129   8.354  0.00  0.00    +0.000 A 
ATOM      9  C   UNL     1      46.201   3.702   7.150  0.00  0.00    +0.000 A 
ATOM     10  C   UNL     1      46.844   2.934   6.172  0.00  0.00    +0.000 A 
ATOM     11  C   UNL     1      47.044   1.573   6.379  0.00  0.00    +0.000 A 
ATOM     12  C   UNL     1      46.599   0.994   7.560  0.00  0.00    +0.000 A 
ATOM     13  F   UNL     1      46.793  -0.318   7.761  0.00  0.00    +0.000 F 
ATOM     14  C   UNL     1      45.958   1.752   8.535  0.00  0.00    +0.000 A 
ENDBRANCH   6   8
ENDBRANCH   1   2
BRANCH   1  15
ATOM     15  N   UNL     1      46.923   6.843  11.995  0.00  0.00    +0.000 N 
ATOM     16  H   UNL     1      47.550   6.496  11.272  0.00  0.00    +0.000 HD
BRANCH  15  20
ATOM     17  C   UNL     1      47.712   4.877  15.648  0.00  0.00    +0.000 A 
ATOM     18  C   UNL     1      48.341   6.092  15.373  0.00  0.00    +0.000 A 
ATOM     19  C   UNL     1      48.078   6.760  14.172  0.00  0.00    +0.000 A 
ATOM     20  C   UNL     1      47.165   6.255  13.237  0.00  0.00    +0.000 A 
ATOM     21  C   UNL     1      46.561   5.022  13.521  0.00  0.00    +0.000 A 
ATOM     22  C   UNL     1      46.832   4.334  14.710  0.00  0.00    +0.000 A 
BRANCH  17  24
ATOM     23  N   UNL     1      46.957   3.398  17.428  0.00  0.00    +0.000 N 
ATOM     24  C   UNL     1      47.988   4.120  16.894  0.00  0.00    +0.000 C 
ATOM     25  O   UNL     1      49.097   4.110  17.412  0.00  0.00    +0.000 OA
ATOM     26  H   UNL     1      47.186   2.807  18.216  0.00  0.00    +0.000 HD
ATOM     27  H   UNL     1      46.123   3.179  16.903  0.00  0.00    +0.000 HD
ENDBRANCH  17  24
ENDBRANCH  15  20
ENDBRANCH   1  15
TORSDOF 5
ENDMDL
MODEL 5
REMARK VINA RESULT:    -7.711      2.741      4.078
REMARK INTER + INTRA:         -10.986
REMARK INTER:                 -10.186
REMARK INTRA:                  -0.799
REMARK UNBOUND:                -1.021
REMARK  Name = 
REMARK  5 active torsions:
REMARK  status: ('A' for Active; 'I' for Inactive)
REMARK    1  A    between atoms: C_2  and  C_4
REMARK    2  A    between atoms: C_7  and  N_8
REMARK    3  A    between atoms: N_8  and  C_9
REMARK    4  A    between atoms: C_9  and  C_10
REMARK    5  A    between atoms: C_14  and  C_15
REMARK                            x       y       z     vdW  Elec       q    Type
REMARK                         _______ _______ _______ _____ _____    ______ ____
ROOT
ATOM      1  C   UNL     1      44.755   5.928  11.418  0.00  0.00    +0.000 C 
ENDROOT
BRANCH   1   2
ATOM      2  C   UNL     1      46.072   6.034  12.143  0.00  0.00    +0.000 A 
ATOM      3  C   UNL     1      47.138   6.738  11.586  0.00  0.00    +0.000 A 
ATOM      4  C   UNL     1      48.308   6.848  12.314  0.00  0.00    +0.000 A 
ATOM      5  N   UNL     1      48.487   6.302  13.536  0.00  0.00    +0.000 NA
ATOM      6  C   UNL     1      47.460   5.600  14.080  0.00  0.00    +0.000 A 
ATOM      7  C   UNL     1      46.241   5.467  13.414  0.00  0.00    +0.000 A 
BRANCH   6   8
ATOM      8  C   UNL     1      47.735   4.988  15.398  0.00  0.00    +0.000 A 
ATOM      9  C   UNL     1      47.311   3.681  15.715  0.00  0.00    +0.000 A 
ATOM     10  C   UNL     1      47.596   3.099  16.956  0.00  0.00    +0.000 A 
ATOM     11  C   UNL     1      48.316   3.814  17.909  0.00  0.00    +0.000 A 
ATOM     12  C   UNL     1      48.742   5.101  17.612  0.00  0.00    +0.000 A 
ATOM     13  F   UNL     1      49.436   5.790  18.529  0.00  0.00    +0.000 F 
ATOM     14  C   UNL     1      48.460   5.685  16.380  0.00  0.00    +0.000 A 
ENDBRANCH   6   8
ENDBRANCH   1   2
BRANCH   1  15
ATOM     15  N   UNL     1      44.442   4.538  11.127  0.00  0.00    +0.000 N 
ATOM     16  H   UNL     1      44.472   3.928  11.942  0.00  0.00    +0.000 HD
BRANCH  15  20
ATOM     17  C   UNL     1      46.199   2.797   7.704  0.00  0.00    +0.000 A 
ATOM     18  C   UNL     1      45.657   1.972   8.691  0.00  0.00    +0.000 A 
ATOM     19  C   UNL     1      45.060   2.537   9.824  0.00  0.00    +0.000 A 
ATOM     20  C   UNL     1      44.961   3.925   9.985  0.00  0.00    +0.000 A 
ATOM     21  C   UNL     1      45.531   4.736   8.993  0.00  0.00    +0.000 A 
ATOM     22  C   UNL     1      46.149   4.182   7.866  0.00  0.00    +0.000 A 
BRANCH  17  24
ATOM     23  N   UNL     1      47.097   3.092   5.460  0.00  0.00    +0.000 N 
ATOM     24  C   UNL     1      46.868   2.238   6.503  0.00  0.00    +0.000 C 
ATOM     25  O   UNL     1      47.235   1.071   6.452  0.00  0.00    +0.000 OA
ATOM     26  H   UNL     1      47.645   2.726   4.693  0.00  0.00    +0.000 HD
ATOM     27  H   UNL     1      47.045   4.095   5.563  0.00  0.00    +0.000 HD
ENDBRANCH  17  24
ENDBRANCH  15  20
ENDBRANCH   1  15
TORSDOF 5
ENDMDL
MODEL 6
REMARK VINA RESULT:    -6.979      3.458      6.972
REMARK INTER + INTRA:         -10.040
REMARK INTER:                  -9.187
REMARK INTRA:                  -0.853
REMARK UNBOUND:                -1.021
REMARK  Name = 
REMARK  5 active torsions:
REMARK  status: ('A' for Active; 'I' for Inactive)
REMARK    1  A    between atoms: C_2  and  C_4
REMARK    2  A    between atoms: C_7  and  N_8
REMARK    3  A    between atoms: N_8  and  C_9
REMARK    4  A    between atoms: C_9  and  C_10
REMARK    5  A    between atoms: C_14  and  C_15
REMARK                            x       y       z     vdW  Elec       q    Type
REMARK                         _______ _______ _______ _____ _____    ______ ____
ROOT
ATOM      1  C   UNL     1      45.601   4.622  13.377  0.00  0.00    +0.000 C 
ENDROOT
BRANCH   1   2
ATOM      2  C   UNL     1      44.986   3.817  12.262  0.00  0.00    +0.000 A 
ATOM      3  C   UNL     1      43.701   3.291  12.386  0.00  0.00    +0.000 A 
ATOM      4  C   UNL     1      43.163   2.603  11.315  0.00  0.00    +0.000 A 
ATOM      5  N   UNL     1      43.815   2.399  10.150  0.00  0.00    +0.000 NA
ATOM      6  C   UNL     1      45.072   2.893  10.024  0.00  0.00    +0.000 A 
ATOM      7  C   UNL     1      45.672   3.618  11.055  0.00  0.00    +0.000 A 
BRANCH   6   8
ATOM      8  C   UNL     1      45.749   2.595   8.743  0.00  0.00    +0.000 A 
ATOM      9  C   UNL     1      46.199   1.297   8.423  0.00  0.00    +0.000 A 
ATOM     10  C   UNL     1      46.817   1.018   7.198  0.00  0.00    +0.000 A 
ATOM     11  C   UNL     1      46.996   2.033   6.264  0.00  0.00    +0.000 A 
ATOM     12  C   UNL     1      46.558   3.316   6.563  0.00  0.00    +0.000 A 
ATOM     13  F   UNL     1      46.728   4.294   5.662  0.00  0.00    +0.000 F 
ATOM     14  C   UNL     1      45.943   3.600   7.779  0.00  0.00    +0.000 A 
ENDBRANCH   6   8
ENDBRANCH   1   2
BRANCH   1  15
ATOM     15  N   UNL     1      45.213   6.020  13.274  0.00  0.00    +0.000 N 
ATOM     16  H   UNL     1      44.308   6.166  12.831  0.00  0.00    +0.000 HD
BRANCH  15  20
ATOM     17  C   UNL     1      48.108   8.802  11.965  0.00  0.00    +0.000 A 
ATOM     18  C   UNL     1      46.790   9.220  12.150  0.00  0.00    +0.000 A 
ATOM     19  C   UNL     1      45.823   8.311  12.596  0.00  0.00    +0.000 A 
ATOM     20  C   UNL     1      46.151   6.983  12.896  0.00  0.00    +0.000 A 
ATOM     21  C   UNL     1      47.476   6.577  12.683  0.00  0.00    +0.000 A 
ATOM     22  C   UNL     1      48.446   7.471  12.216  0.00  0.00    +0.000 A 
BRANCH  17  24
ATOM     23  N   UNL     1      50.421   9.226  11.335  0.00  0.00    +0.000 N 
ATOM     24  C   UNL     1      49.155   9.726  11.462  0.00  0.00    +0.000 C 
ATOM     25  O   UNL     1      48.900  10.879  11.142  0.00  0.00    +0.000 OA
ATOM     26  H   UNL     1      51.100   9.833  10.895  0.00  0.00    +0.000 HD
ATOM     27  H   UNL     1      50.613   8.234  11.343  0.00  0.00    +0.000 HD
ENDBRANCH  17  24
ENDBRANCH  15  20
ENDBRANCH   1  15
TORSDOF 5
ENDMDL
MODEL 7
REMARK VINA RESULT:    -6.933      1.664      2.307
REMARK INTER + INTRA:          -9.981
REMARK INTER:                  -9.130
REMARK INTRA:                  -0.851
REMARK UNBOUND:                -1.021
REMARK  Name = 
REMARK  5 active torsions:
REMARK  status: ('A' for Active; 'I' for Inactive)
REMARK    1  A    between atoms: C_2  and  C_4
REMARK    2  A    between atoms: C_7  and  N_8
REMARK    3  A    between atoms: N_8  and  C_9
REMARK    4  A    between atoms: C_9  and  C_10
REMARK    5  A    between atoms: C_14  and  C_15
REMARK                            x       y       z     vdW  Elec       q    Type
REMARK                         _______ _______ _______ _____ _____    ______ ____
ROOT
ATOM      1  C   UNL     1      44.248   2.495  11.754  0.00  0.00    +0.000 C 
ENDROOT
BRANCH   1   2
ATOM      2  C   UNL     1      44.226   3.966  12.076  0.00  0.00    +0.000 A 
ATOM      3  C   UNL     1      43.022   4.667  12.132  0.00  0.00    +0.000 A 
ATOM      4  C   UNL     1      43.054   6.004  12.480  0.00  0.00    +0.000 A 
ATOM      5  N   UNL     1      44.187   6.682  12.762  0.00  0.00    +0.000 NA
ATOM      6  C   UNL     1      45.366   6.012  12.694  0.00  0.00    +0.000 A 
ATOM      7  C   UNL     1      45.412   4.655  12.372  0.00  0.00    +0.000 A 
BRANCH   6   8
ATOM      8  C   UNL     1      46.575   6.821  12.966  0.00  0.00    +0.000 A 
ATOM      9  C   UNL     1      47.772   6.239  13.431  0.00  0.00    +0.000 A 
ATOM     10  C   UNL     1      48.918   7.008  13.663  0.00  0.00    +0.000 A 
ATOM     11  C   UNL     1      48.892   8.380  13.431  0.00  0.00    +0.000 A 
ATOM     12  C   UNL     1      47.722   8.968  12.972  0.00  0.00    +0.000 A 
ATOM     13  F   UNL     1      47.697  10.290  12.747  0.00  0.00    +0.000 F 
ATOM     14  C   UNL     1      46.579   8.209  12.740  0.00  0.00    +0.000 A 
ENDBRANCH   6   8
ENDBRANCH   1   2
BRANCH   1  15
ATOM     15  N   UNL     1      43.868   2.268  10.369  0.00  0.00    +0.000 N 
ATOM     16  H   UNL     1      43.304   1.433  10.226  0.00  0.00    +0.000 HD
BRANCH  15  20
ATOM     17  C   UNL     1      46.575   2.703   7.156  0.00  0.00    +0.000 A 
ATOM     18  C   UNL     1      45.907   3.825   7.647  0.00  0.00    +0.000 A 
ATOM     19  C   UNL     1      45.017   3.697   8.719  0.00  0.00    +0.000 A 
ATOM     20  C   UNL     1      44.797   2.463   9.345  0.00  0.00    +0.000 A 
ATOM     21  C   UNL     1      45.461   1.344   8.824  0.00  0.00    +0.000 A 
ATOM     22  C   UNL     1      46.337   1.456   7.738  0.00  0.00    +0.000 A 
BRANCH  17  24
ATOM     23  N   UNL     1      48.840   2.687   6.262  0.00  0.00    +0.000 N 
ATOM     24  C   UNL     1      47.501   2.790   6.001  0.00  0.00    +0.000 C 
ATOM     25  O   UNL     1      47.093   2.916   4.854  0.00  0.00    +0.000 OA
ATOM     26  H   UNL     1      49.451   2.644   5.458  0.00  0.00    +0.000 HD
ATOM     27  H   UNL     1      49.192   2.332   7.140  0.00  0.00    +0.000 HD
ENDBRANCH  17  24
ENDBRANCH  15  20
ENDBRANCH   1  15
TORSDOF 5
ENDMDL
MODEL 8
REMARK VINA RESULT:    -6.377      4.525      7.963
REMARK INTER + INTRA:          -9.262
REMARK INTER:                  -8.626
REMARK INTRA:                  -0.636
REMARK UNBOUND:                -1.021
REMARK  Name = 
REMARK  5 active torsions:
REMARK  status: ('A' for Active; 'I' for Inactive)
REMARK    1  A    between atoms: C_2  and  C_4
REMARK    2  A    between atoms: C_7  and  N_8
REMARK    3  A    between atoms: N_8  and  C_9
REMARK    4  A    between atoms: C_9  and  C_10
REMARK    5  A    between atoms: C_14  and  C_15
REMARK                            x       y       z     vdW  Elec       q    Type
REMARK                         _______ _______ _______ _____ _____    ______ ____
ROOT
ATOM      1  C   UNL     1      48.408   7.587  13.609  0.00  0.00    +0.000 C 
ENDROOT
BRANCH   1   2
ATOM      2  C   UNL     1      47.118   7.453  12.843  0.00  0.00    +0.000 A 
ATOM      3  C   UNL     1      46.162   8.468  12.870  0.00  0.00    +0.000 A 
ATOM      4  C   UNL     1      45.018   8.317  12.109  0.00  0.00    +0.000 A 
ATOM      5  N   UNL     1      44.762   7.234  11.343  0.00  0.00    +0.000 NA
ATOM      6  C   UNL     1      45.679   6.234  11.322  0.00  0.00    +0.000 A 
ATOM      7  C   UNL     1      46.869   6.326  12.047  0.00  0.00    +0.000 A 
BRANCH   6   8
ATOM      8  C   UNL     1      45.318   5.056  10.503  0.00  0.00    +0.000 A 
ATOM      9  C   UNL     1      44.562   3.987  11.027  0.00  0.00    +0.000 A 
ATOM     10  C   UNL     1      44.204   2.888  10.238  0.00  0.00    +0.000 A 
ATOM     11  C   UNL     1      44.594   2.835   8.903  0.00  0.00    +0.000 A 
ATOM     12  C   UNL     1      45.337   3.880   8.372  0.00  0.00    +0.000 A 
ATOM     13  F   UNL     1      45.711   3.830   7.085  0.00  0.00    +0.000 F 
ATOM     14  C   UNL     1      45.697   4.975   9.151  0.00  0.00    +0.000 A 
ENDBRANCH   6   8
ENDBRANCH   1   2
BRANCH   1  15
ATOM     15  N   UNL     1      48.159   7.534  15.042  0.00  0.00    +0.000 N 
ATOM     16  H   UNL     1      48.035   8.448  15.474  0.00  0.00    +0.000 HD
BRANCH  15  20
ATOM     17  C   UNL     1      50.317   4.724  17.340  0.00  0.00    +0.000 A 
ATOM     18  C   UNL     1      50.943   5.904  16.936  0.00  0.00    +0.000 A 
ATOM     19  C   UNL     1      50.235   6.850  16.184  0.00  0.00    +0.000 A 
ATOM     20  C   UNL     1      48.888   6.658  15.849  0.00  0.00    +0.000 A 
ATOM     21  C   UNL     1      48.284   5.457  16.245  0.00  0.00    +0.000 A 
ATOM     22  C   UNL     1      48.989   4.494  16.978  0.00  0.00    +0.000 A 
BRANCH  17  24
ATOM     23  N   UNL     1      50.579   2.399  18.012  0.00  0.00    +0.000 N 
ATOM     24  C   UNL     1      51.041   3.682  18.109  0.00  0.00    +0.000 C 
ATOM     25  O   UNL     1      52.032   3.944  18.778  0.00  0.00    +0.000 OA
ATOM     26  H   UNL     1      51.142   1.685  18.457  0.00  0.00    +0.000 HD
ATOM     27  H   UNL     1      49.941   2.108  17.286  0.00  0.00    +0.000 HD
ENDBRANCH  17  24
ENDBRANCH  15  20
ENDBRANCH   1  15
TORSDOF 5
ENDMDL
MODEL 9
REMARK VINA RESULT:    -6.187      4.705      8.191
REMARK INTER + INTRA:          -9.017
REMARK INTER:                  -8.234
REMARK INTRA:                  -0.783
REMARK UNBOUND:                -1.021
REMARK  Name = 
REMARK  5 active torsions:
REMARK  status: ('A' for Active; 'I' for Inactive)
REMARK    1  A    between atoms: C_2  and  C_4
REMARK    2  A    between atoms: C_7  and  N_8
REMARK    3  A    between atoms: N_8  and  C_9
REMARK    4  A    between atoms: C_9  and  C_10
REMARK    5  A    between atoms: C_14  and  C_15
REMARK                            x       y       z     vdW  Elec       q    Type
REMARK                         _______ _______ _______ _____ _____    ______ ____
ROOT
ATOM      1  C   UNL     1      48.357   7.950  13.655  0.00  0.00    +0.000 C 
ENDROOT
BRANCH   1   2
ATOM      2  C   UNL     1      47.074   7.802  12.878  0.00  0.00    +0.000 A 
ATOM      3  C   UNL     1      46.139   8.836  12.843  0.00  0.00    +0.000 A 
ATOM      4  C   UNL     1      45.002   8.669  12.075  0.00  0.00    +0.000 A 
ATOM      5  N   UNL     1      44.734   7.556  11.360  0.00  0.00    +0.000 NA
ATOM      6  C   UNL     1      45.631   6.537  11.401  0.00  0.00    +0.000 A 
ATOM      7  C   UNL     1      46.813   6.642  12.135  0.00  0.00    +0.000 A 
BRANCH   6   8
ATOM      8  C   UNL     1      45.257   5.328  10.635  0.00  0.00    +0.000 A 
ATOM      9  C   UNL     1      45.671   5.133   9.302  0.00  0.00    +0.000 A 
ATOM     10  C   UNL     1      45.333   3.974   8.592  0.00  0.00    +0.000 A 
ATOM     11  C   UNL     1      44.574   2.982   9.205  0.00  0.00    +0.000 A 
ATOM     12  C   UNL     1      44.160   3.158  10.518  0.00  0.00    +0.000 A 
ATOM     13  F   UNL     1      43.430   2.201  11.109  0.00  0.00    +0.000 F 
ATOM     14  C   UNL     1      44.492   4.308  11.228  0.00  0.00    +0.000 A 
ENDBRANCH   6   8
ENDBRANCH   1   2
BRANCH   1  15
ATOM     15  N   UNL     1      48.824   6.654  14.122  0.00  0.00    +0.000 N 
ATOM     16  H   UNL     1      48.617   5.886  13.486  0.00  0.00    +0.000 HD
BRANCH  15  20
ATOM     17  C   UNL     1      48.403   5.353  18.118  0.00  0.00    +0.000 A 
ATOM     18  C   UNL     1      49.251   6.423  17.831  0.00  0.00    +0.000 A 
ATOM     19  C   UNL     1      49.390   6.872  16.512  0.00  0.00    +0.000 A 
ATOM     20  C   UNL     1      48.668   6.292  15.462  0.00  0.00    +0.000 A 
ATOM     21  C   UNL     1      47.837   5.205  15.767  0.00  0.00    +0.000 A 
ATOM     22  C   UNL     1      47.707   4.733  17.078  0.00  0.00    +0.000 A 
BRANCH  17  24
ATOM     23  N   UNL     1      48.613   3.524  19.711  0.00  0.00    +0.000 N 
ATOM     24  C   UNL     1      48.252   4.825  19.496  0.00  0.00    +0.000 C 
ATOM     25  O   UNL     1      47.854   5.527  20.417  0.00  0.00    +0.000 OA
ATOM     26  H   UNL     1      48.604   3.210  20.672  0.00  0.00    +0.000 HD
ATOM     27  H   UNL     1      49.175   3.004  19.052  0.00  0.00    +0.000 HD
ENDBRANCH  17  24
ENDBRANCH  15  20
ENDBRANCH   1  15
TORSDOF 5
ENDMDL
