MODEL 1
REMARK VINA RESULT:    -7.883      0.000      0.000
REMARK INTER + INTRA:         -12.181
REMARK INTER:                 -11.340
REMARK INTRA:                  -0.842
REMARK UNBOUND:                -0.842
REMARK  Name = 
REMARK  8 active torsions:
REMARK  status: ('A' for Active; 'I' for Inactive)
REMARK    1  A    between atoms: N_1  and  C_2
REMARK    2  A    between atoms: C_2  and  C_3
REMARK    3  A    between atoms: C_3  and  C_4
REMARK    4  A    between atoms: C_7  and  C_8
REMARK    5  A    between atoms: C_8  and  N_9
REMARK    6  A    between atoms: C_15  and  C_16
REMARK    7  A    between atoms: N_18  and  C_19
REMARK    8  A    between atoms: C_19  and  C_20
REMARK                            x       y       z     vdW  Elec       q    Type
REMARK                         _______ _______ _______ _____ _____    ______ ____
ROOT
ATOM      1  N   UNL     1      44.570   6.270  11.365  0.00  0.00    +0.000 N 
ATOM      2  C   UNL     1      44.452   7.591  10.994  0.00  0.00    +0.000 A 
ATOM      3  C   UNL     1      45.300   8.336  11.787  0.00  0.00    +0.000 A 
ATOM      4  C   UNL     1      45.957   7.439  12.672  0.00  0.00    +0.000 A 
ATOM      5  C   UNL     1      46.891   7.581  13.709  0.00  0.00    +0.000 A 
ATOM      6  C   UNL     1      47.306   6.428  14.371  0.00  0.00    +0.000 A 
ATOM      7  C   UNL     1      46.789   5.198  13.972  0.00  0.00    +0.000 A 
ATOM      8  N   UNL     1      45.873   4.999  12.975  0.00  0.00    +0.000 NA
ATOM      9  C   UNL     1      45.499   6.153  12.375  0.00  0.00    +0.000 A 
ENDROOT
BRANCH   7  10
ATOM     10  C   UNL     1      47.269   3.962  14.680  0.00  0.00    +0.000 C 
ATOM     11  O   UNL     1      47.504   2.919  14.078  0.00  0.00    +0.000 OA
ATOM     12  N   UNL     1      47.415   4.080  16.046  0.00  0.00    +0.000 N 
ATOM     13  H   UNL     1      47.319   5.016  16.432  0.00  0.00    +0.000 HD
BRANCH  12  14
ATOM     14  C   UNL     1      47.973   2.991  16.846  0.00  0.00    +0.000 C 
BRANCH  14  15
ATOM     15  C   UNL     1      49.068   3.377  17.848  0.00  0.00    +0.000 C 
ATOM     16  F   UNL     1      50.162   2.588  17.756  0.00  0.00    +0.000 F 
ATOM     17  F   UNL     1      49.481   4.650  17.618  0.00  0.00    +0.000 F 
ATOM     18  F   UNL     1      48.625   3.328  19.123  0.00  0.00    +0.000 F 
ENDBRANCH  14  15
ENDBRANCH  12  14
ENDBRANCH   7  10
BRANCH   1  19
ATOM     19  C   UNL     1      43.726   5.191  10.864  0.00  0.00    +0.000 C 
BRANCH  19  23
ATOM     20  C   UNL     1      45.830   2.516   8.176  0.00  0.00    +0.000 A 
ATOM     21  C   UNL     1      44.956   2.010   9.146  0.00  0.00    +0.000 A 
ATOM     22  C   UNL     1      44.276   2.871  10.012  0.00  0.00    +0.000 A 
ATOM     23  C   UNL     1      44.455   4.258   9.927  0.00  0.00    +0.000 A 
ATOM     24  C   UNL     1      45.298   4.765   8.929  0.00  0.00    +0.000 A 
ATOM     25  C   UNL     1      45.976   3.903   8.059  0.00  0.00    +0.000 A 
BRANCH  20  26
ATOM     26  C   UNL     1      46.625   1.578   7.299  0.00  0.00    +0.000 C 
BRANCH  26  27
ATOM     27  C   UNL     1      48.012   2.113   6.935  0.00  0.00    +0.000 C 
BRANCH  27  28
ATOM     28  N   UNL     1      48.350   1.765   5.554  0.00  0.00    +0.000 NA
ATOM     29  H   UNL     1      47.704   1.050   5.217  0.00  0.00    +0.000 HD
ATOM     30  H   UNL     1      49.278   1.346   5.522  0.00  0.00    +0.000 HD
ENDBRANCH  27  28
ENDBRANCH  26  27
ENDBRANCH  20  26
ENDBRANCH  19  23
ENDBRANCH   1  19
TORSDOF 8
ENDMDL
MODEL 2
REMARK VINA RESULT:    -7.731      1.322      1.605
REMARK INTER + INTRA:         -11.962
REMARK INTER:                 -11.272
REMARK INTRA:                  -0.690
REMARK UNBOUND:                -0.842
REMARK  Name = 
REMARK  8 active torsions:
REMARK  status: ('A' for Active; 'I' for Inactive)
REMARK    1  A    between atoms: N_1  and  C_2
REMARK    2  A    between atoms: C_2  and  C_3
REMARK    3  A    between atoms: C_3  and  C_4
REMARK    4  A    between atoms: C_7  and  C_8
REMARK    5  A    between atoms: C_8  and  N_9
REMARK    6  A    between atoms: C_15  and  C_16
REMARK    7  A    between atoms: N_18  and  C_19
REMARK    8  A    between atoms: C_19  and  C_20
REMARK                            x       y       z     vdW  Elec       q    Type
REMARK                         _______ _______ _______ _____ _____    ______ ____
ROOT
ATOM      1  N   UNL     1      44.584   6.438  11.553  0.00  0.00    +0.000 N 
ATOM      2  C   UNL     1      43.979   7.484  10.891  0.00  0.00    +0.000 A 
ATOM      3  C   UNL     1      44.568   8.657  11.315  0.00  0.00    +0.000 A 
ATOM      4  C   UNL     1      45.565   8.315  12.269  0.00  0.00    +0.000 A 
ATOM      5  C   UNL     1      46.465   9.043  13.061  0.00  0.00    +0.000 A 
ATOM      6  C   UNL     1      47.309   8.328  13.907  0.00  0.00    +0.000 A 
ATOM      7  C   UNL     1      47.230   6.939  13.922  0.00  0.00    +0.000 A 
ATOM      8  N   UNL     1      46.370   6.177  13.180  0.00  0.00    +0.000 NA
ATOM      9  C   UNL     1      45.568   6.923  12.385  0.00  0.00    +0.000 A 
ENDROOT
BRANCH   7  10
ATOM     10  C   UNL     1      48.167   6.183  14.823  0.00  0.00    +0.000 C 
ATOM     11  O   UNL     1      49.385   6.326  14.761  0.00  0.00    +0.000 OA
ATOM     12  N   UNL     1      47.566   5.316  15.711  0.00  0.00    +0.000 N 
ATOM     13  H   UNL     1      46.552   5.363  15.774  0.00  0.00    +0.000 HD
BRANCH  12  14
ATOM     14  C   UNL     1      48.347   4.597  16.716  0.00  0.00    +0.000 C 
BRANCH  14  15
ATOM     15  C   UNL     1      48.172   3.074  16.749  0.00  0.00    +0.000 C 
ATOM     16  F   UNL     1      47.144   2.685  17.535  0.00  0.00    +0.000 F 
ATOM     17  F   UNL     1      47.911   2.609  15.501  0.00  0.00    +0.000 F 
ATOM     18  F   UNL     1      49.287   2.446  17.181  0.00  0.00    +0.000 F 
ENDBRANCH  14  15
ENDBRANCH  12  14
ENDBRANCH   7  10
BRANCH   1  19
ATOM     19  C   UNL     1      44.139   5.050  11.490  0.00  0.00    +0.000 C 
BRANCH  19  23
ATOM     20  C   UNL     1      45.838   2.884   8.140  0.00  0.00    +0.000 A 
ATOM     21  C   UNL     1      45.119   2.209   9.134  0.00  0.00    +0.000 A 
ATOM     22  C   UNL     1      44.569   2.906  10.214  0.00  0.00    +0.000 A 
ATOM     23  C   UNL     1      44.727   4.295  10.323  0.00  0.00    +0.000 A 
ATOM     24  C   UNL     1      45.411   4.974   9.306  0.00  0.00    +0.000 A 
ATOM     25  C   UNL     1      45.959   4.275   8.223  0.00  0.00    +0.000 A 
BRANCH  20  26
ATOM     26  C   UNL     1      46.500   2.115   7.022  0.00  0.00    +0.000 C 
BRANCH  26  27
ATOM     27  C   UNL     1      47.969   2.493   6.809  0.00  0.00    +0.000 C 
BRANCH  27  28
ATOM     28  N   UNL     1      48.514   1.795   5.643  0.00  0.00    +0.000 NA
ATOM     29  H   UNL     1      48.465   2.407   4.828  0.00  0.00    +0.000 HD
ATOM     30  H   UNL     1      47.935   0.986   5.425  0.00  0.00    +0.000 HD
ENDBRANCH  27  28
ENDBRANCH  26  27
ENDBRANCH  20  26
ENDBRANCH  19  23
ENDBRANCH   1  19
TORSDOF 8
ENDMDL
MODEL 3
REMARK VINA RESULT:    -6.908      4.353      8.303
REMARK INTER + INTRA:         -10.778
REMARK INTER:                 -10.496
REMARK INTRA:                  -0.282
REMARK UNBOUND:                -0.842
REMARK  Name = 
REMARK  8 active torsions:
REMARK  status: ('A' for Active; 'I' for Inactive)
REMARK    1  A    between atoms: N_1  and  C_2
REMARK    2  A    between atoms: C_2  and  C_3
REMARK    3  A    between atoms: C_3  and  C_4
REMARK    4  A    between atoms: C_7  and  C_8
REMARK    5  A    between atoms: C_8  and  N_9
REMARK    6  A    between atoms: C_15  and  C_16
REMARK    7  A    between atoms: N_18  and  C_19
REMARK    8  A    between atoms: C_19  and  C_20
REMARK                            x       y       z     vdW  Elec       q    Type
REMARK                         _______ _______ _______ _____ _____    ______ ____
ROOT
ATOM      1  N   UNL     1      47.982   5.221  15.983  0.00  0.00    +0.000 N 
ATOM      2  C   UNL     1      48.775   6.328  16.187  0.00  0.00    +0.000 A 
ATOM      3  C   UNL     1      48.696   7.125  15.064  0.00  0.00    +0.000 A 
ATOM      4  C   UNL     1      47.826   6.480  14.143  0.00  0.00    +0.000 A 
ATOM      5  C   UNL     1      47.374   6.766  12.846  0.00  0.00    +0.000 A 
ATOM      6  C   UNL     1      46.502   5.859  12.249  0.00  0.00    +0.000 A 
ATOM      7  C   UNL     1      46.113   4.728  12.962  0.00  0.00    +0.000 A 
ATOM      8  N   UNL     1      46.526   4.394  14.223  0.00  0.00    +0.000 NA
ATOM      9  C   UNL     1      47.378   5.304  14.749  0.00  0.00    +0.000 A 
ENDROOT
BRANCH   7  10
ATOM     10  C   UNL     1      45.151   3.773  12.311  0.00  0.00    +0.000 C 
ATOM     11  O   UNL     1      44.398   3.061  12.969  0.00  0.00    +0.000 OA
ATOM     12  N   UNL     1      45.179   3.750  10.932  0.00  0.00    +0.000 N 
ATOM     13  H   UNL     1      45.742   4.465  10.479  0.00  0.00    +0.000 HD
BRANCH  12  14
ATOM     14  C   UNL     1      44.226   2.948  10.168  0.00  0.00    +0.000 C 
BRANCH  14  15
ATOM     15  C   UNL     1      44.783   2.220   8.938  0.00  0.00    +0.000 C 
ATOM     16  F   UNL     1      44.512   2.867   7.783  0.00  0.00    +0.000 F 
ATOM     17  F   UNL     1      46.134   2.125   9.028  0.00  0.00    +0.000 F 
ATOM     18  F   UNL     1      44.303   0.962   8.835  0.00  0.00    +0.000 F 
ENDBRANCH  14  15
ENDBRANCH  12  14
ENDBRANCH   7  10
BRANCH   1  19
ATOM     19  C   UNL     1      47.920   4.071  16.879  0.00  0.00    +0.000 C 
BRANCH  19  23
ATOM     20  C   UNL     1      51.817   2.383  17.752  0.00  0.00    +0.000 A 
ATOM     21  C   UNL     1      50.840   1.621  17.099  0.00  0.00    +0.000 A 
ATOM     22  C   UNL     1      49.584   2.164  16.816  0.00  0.00    +0.000 A 
ATOM     23  C   UNL     1      49.277   3.482  17.179  0.00  0.00    +0.000 A 
ATOM     24  C   UNL     1      50.269   4.256  17.795  0.00  0.00    +0.000 A 
ATOM     25  C   UNL     1      51.529   3.713  18.076  0.00  0.00    +0.000 A 
BRANCH  20  26
ATOM     26  C   UNL     1      53.142   1.764  18.130  0.00  0.00    +0.000 C 
BRANCH  26  27
ATOM     27  C   UNL     1      53.393   0.408  17.465  0.00  0.00    +0.000 C 
BRANCH  27  28
ATOM     28  N   UNL     1      53.280  -0.673  18.446  0.00  0.00    +0.000 NA
ATOM     29  H   UNL     1      54.169  -0.779  18.937  0.00  0.00    +0.000 HD
ATOM     30  H   UNL     1      53.116  -1.556  17.966  0.00  0.00    +0.000 HD
ENDBRANCH  27  28
ENDBRANCH  26  27
ENDBRANCH  20  26
ENDBRANCH  19  23
ENDBRANCH   1  19
TORSDOF 8
ENDMDL
MODEL 4
REMARK VINA RESULT:    -6.730      2.447      3.562
REMARK INTER + INTRA:         -10.523
REMARK INTER:                  -9.433
REMARK INTRA:                  -1.090
REMARK UNBOUND:                -0.842
REMARK  Name = 
REMARK  8 active torsions:
REMARK  status: ('A' for Active; 'I' for Inactive)
REMARK    1  A    between atoms: N_1  and  C_2
REMARK    2  A    between atoms: C_2  and  C_3
REMARK    3  A    between atoms: C_3  and  C_4
REMARK    4  A    between atoms: C_7  and  C_8
REMARK    5  A    between atoms: C_8  and  N_9
REMARK    6  A    between atoms: C_15  and  C_16
REMARK    7  A    between atoms: N_18  and  C_19
REMARK    8  A    between atoms: C_19  and  C_20
REMARK                            x       y       z     vdW  Elec       q    Type
REMARK                         _______ _______ _______ _____ _____    ______ ____
ROOT
ATOM      1  N   UNL     1      46.995   8.602  12.642  0.00  0.00    +0.000 N 
ATOM      2  C   UNL     1      47.474   9.555  11.769  0.00  0.00    +0.000 A 
ATOM      3  C   UNL     1      48.818   9.731  12.024  0.00  0.00    +0.000 A 
ATOM      4  C   UNL     1      49.170   8.857  13.088  0.00  0.00    +0.000 A 
ATOM      5  C   UNL     1      50.350   8.597  13.801  0.00  0.00    +0.000 A 
ATOM      6  C   UNL     1      50.296   7.642  14.814  0.00  0.00    +0.000 A 
ATOM      7  C   UNL     1      49.092   6.989  15.064  0.00  0.00    +0.000 A 
ATOM      8  N   UNL     1      47.912   7.207  14.407  0.00  0.00    +0.000 NA
ATOM      9  C   UNL     1      48.020   8.150  13.442  0.00  0.00    +0.000 A 
ENDROOT
BRANCH   7  10
ATOM     10  C   UNL     1      49.060   5.943  16.143  0.00  0.00    +0.000 C 
ATOM     11  O   UNL     1      50.085   5.528  16.676  0.00  0.00    +0.000 OA
ATOM     12  N   UNL     1      47.806   5.481  16.484  0.00  0.00    +0.000 N 
ATOM     13  H   UNL     1      47.016   5.976  16.079  0.00  0.00    +0.000 HD
BRANCH  12  14
ATOM     14  C   UNL     1      47.619   4.541  17.588  0.00  0.00    +0.000 C 
BRANCH  14  15
ATOM     15  C   UNL     1      47.740   3.052  17.240  0.00  0.00    +0.000 C 
ATOM     16  F   UNL     1      46.738   2.312  17.766  0.00  0.00    +0.000 F 
ATOM     17  F   UNL     1      47.690   2.884  15.895  0.00  0.00    +0.000 F 
ATOM     18  F   UNL     1      48.911   2.528  17.662  0.00  0.00    +0.000 F 
ENDBRANCH  14  15
ENDBRANCH  12  14
ENDBRANCH   7  10
BRANCH   1  19
ATOM     19  C   UNL     1      45.588   8.247  12.789  0.00  0.00    +0.000 C 
BRANCH  19  23
ATOM     20  C   UNL     1      44.665   4.283  11.293  0.00  0.00    +0.000 A 
ATOM     21  C   UNL     1      45.336   5.211  10.487  0.00  0.00    +0.000 A 
ATOM     22  C   UNL     1      45.635   6.488  10.968  0.00  0.00    +0.000 A 
ATOM     23  C   UNL     1      45.270   6.867  12.267  0.00  0.00    +0.000 A 
ATOM     24  C   UNL     1      44.636   5.923  13.087  0.00  0.00    +0.000 A 
ATOM     25  C   UNL     1      44.339   4.642  12.605  0.00  0.00    +0.000 A 
BRANCH  20  26
ATOM     26  C   UNL     1      44.270   2.935  10.739  0.00  0.00    +0.000 C 
BRANCH  26  27
ATOM     27  C   UNL     1      44.562   2.781   9.244  0.00  0.00    +0.000 C 
BRANCH  27  28
ATOM     28  N   UNL     1      45.398   1.603   9.003  0.00  0.00    +0.000 NA
ATOM     29  H   UNL     1      46.281   1.706   9.504  0.00  0.00    +0.000 HD
ATOM     30  H   UNL     1      45.639   1.550   8.015  0.00  0.00    +0.000 HD
ENDBRANCH  27  28
ENDBRANCH  26  27
ENDBRANCH  20  26
ENDBRANCH  19  23
ENDBRANCH   1  19
TORSDOF 8
ENDMDL
MODEL 5
REMARK VINA RESULT:    -6.523      4.224      7.847
REMARK INTER + INTRA:         -10.225
REMARK INTER:                  -9.403
REMARK INTRA:                  -0.823
REMARK UNBOUND:                -0.842
REMARK  Name = 
REMARK  8 active torsions:
REMARK  status: ('A' for Active; 'I' for Inactive)
REMARK    1  A    between atoms: N_1  and  C_2
REMARK    2  A    between atoms: C_2  and  C_3
REMARK    3  A    between atoms: C_3  and  C_4
REMARK    4  A    between atoms: C_7  and  C_8
REMARK    5  A    between atoms: C_8  and  N_9
REMARK    6  A    between atoms: C_15  and  C_16
REMARK    7  A    between atoms: N_18  and  C_19
REMARK    8  A    between atoms: C_19  and  C_20
REMARK                            x       y       z     vdW  Elec       q    Type
REMARK                         _______ _______ _______ _____ _____    ______ ____
ROOT
ATOM      1  N   UNL     1      46.475   7.029  12.581  0.00  0.00    +0.000 N 
ATOM      2  C   UNL     1      46.011   8.286  12.900  0.00  0.00    +0.000 A 
ATOM      3  C   UNL     1      44.740   8.419  12.380  0.00  0.00    +0.000 A 
ATOM      4  C   UNL     1      44.418   7.202  11.721  0.00  0.00    +0.000 A 
ATOM      5  C   UNL     1      43.313   6.736  10.993  0.00  0.00    +0.000 A 
ATOM      6  C   UNL     1      43.375   5.443  10.479  0.00  0.00    +0.000 A 
ATOM      7  C   UNL     1      44.512   4.676  10.716  0.00  0.00    +0.000 A 
ATOM      8  N   UNL     1      45.620   5.079  11.410  0.00  0.00    +0.000 NA
ATOM      9  C   UNL     1      45.509   6.344  11.877  0.00  0.00    +0.000 A 
ENDROOT
BRANCH   7  10
ATOM     10  C   UNL     1      44.549   3.273  10.175  0.00  0.00    +0.000 C 
ATOM     11  O   UNL     1      43.750   2.416  10.540  0.00  0.00    +0.000 OA
ATOM     12  N   UNL     1      45.543   3.020   9.253  0.00  0.00    +0.000 N 
ATOM     13  H   UNL     1      46.070   3.824   8.922  0.00  0.00    +0.000 HD
BRANCH  12  14
ATOM     14  C   UNL     1      45.630   1.731   8.569  0.00  0.00    +0.000 C 
BRANCH  14  15
ATOM     15  C   UNL     1      46.601   1.657   7.384  0.00  0.00    +0.000 C 
ATOM     16  F   UNL     1      46.851   0.387   6.993  0.00  0.00    +0.000 F 
ATOM     17  F   UNL     1      46.077   2.303   6.312  0.00  0.00    +0.000 F 
ATOM     18  F   UNL     1      47.784   2.246   7.663  0.00  0.00    +0.000 F 
ENDBRANCH  14  15
ENDBRANCH  12  14
ENDBRANCH   7  10
BRANCH   1  19
ATOM     19  C   UNL     1      47.835   6.562  12.822  0.00  0.00    +0.000 C 
BRANCH  19  23
ATOM     20  C   UNL     1      48.387   4.955  16.811  0.00  0.00    +0.000 A 
ATOM     21  C   UNL     1      47.532   4.323  15.901  0.00  0.00    +0.000 A 
ATOM     22  C   UNL     1      47.354   4.839  14.614  0.00  0.00    +0.000 A 
ATOM     23  C   UNL     1      48.028   5.999  14.209  0.00  0.00    +0.000 A 
ATOM     24  C   UNL     1      48.916   6.607  15.108  0.00  0.00    +0.000 A 
ATOM     25  C   UNL     1      49.096   6.088  16.396  0.00  0.00    +0.000 A 
BRANCH  20  26
ATOM     26  C   UNL     1      48.510   4.441  18.226  0.00  0.00    +0.000 C 
BRANCH  26  27
ATOM     27  C   UNL     1      47.831   5.341  19.262  0.00  0.00    +0.000 C 
BRANCH  27  28
ATOM     28  N   UNL     1      46.415   5.520  18.936  0.00  0.00    +0.000 NA
ATOM     29  H   UNL     1      46.278   5.384  17.934  0.00  0.00    +0.000 HD
ATOM     30  H   UNL     1      46.136   6.480  19.133  0.00  0.00    +0.000 HD
ENDBRANCH  27  28
ENDBRANCH  26  27
ENDBRANCH  20  26
ENDBRANCH  19  23
ENDBRANCH   1  19
TORSDOF 8
ENDMDL
MODEL 6
REMARK VINA RESULT:    -6.493      4.272      8.102
REMARK INTER + INTRA:         -10.182
REMARK INTER:                  -9.374
REMARK INTRA:                  -0.808
REMARK UNBOUND:                -0.842
REMARK  Name = 
REMARK  8 active torsions:
REMARK  status: ('A' for Active; 'I' for Inactive)
REMARK    1  A    between atoms: N_1  and  C_2
REMARK    2  A    between atoms: C_2  and  C_3
REMARK    3  A    between atoms: C_3  and  C_4
REMARK    4  A    between atoms: C_7  and  C_8
REMARK    5  A    between atoms: C_8  and  N_9
REMARK    6  A    between atoms: C_15  and  C_16
REMARK    7  A    between atoms: N_18  and  C_19
REMARK    8  A    between atoms: C_19  and  C_20
REMARK                            x       y       z     vdW  Elec       q    Type
REMARK                         _______ _______ _______ _____ _____    ______ ____
ROOT
ATOM      1  N   UNL     1      49.468   6.841  16.329  0.00  0.00    +0.000 N 
ATOM      2  C   UNL     1      50.370   7.854  16.088  0.00  0.00    +0.000 A 
ATOM      3  C   UNL     1      50.301   8.179  14.749  0.00  0.00    +0.000 A 
ATOM      4  C   UNL     1      49.324   7.336  14.154  0.00  0.00    +0.000 A 
ATOM      5  C   UNL     1      48.829   7.166  12.852  0.00  0.00    +0.000 A 
ATOM      6  C   UNL     1      47.844   6.200  12.655  0.00  0.00    +0.000 A 
ATOM      7  C   UNL     1      47.394   5.463  13.747  0.00  0.00    +0.000 A 
ATOM      8  N   UNL     1      47.844   5.580  15.033  0.00  0.00    +0.000 NA
ATOM      9  C   UNL     1      48.806   6.524  15.164  0.00  0.00    +0.000 A 
ENDROOT
BRANCH   7  10
ATOM     10  C   UNL     1      46.312   4.444  13.519  0.00  0.00    +0.000 C 
ATOM     11  O   UNL     1      46.501   3.245  13.701  0.00  0.00    +0.000 OA
ATOM     12  N   UNL     1      45.104   4.948  13.087  0.00  0.00    +0.000 N 
ATOM     13  H   UNL     1      45.009   5.961  13.089  0.00  0.00    +0.000 HD
BRANCH  12  14
ATOM     14  C   UNL     1      43.935   4.084  12.927  0.00  0.00    +0.000 C 
BRANCH  14  15
ATOM     15  C   UNL     1      43.739   3.458  11.541  0.00  0.00    +0.000 C 
ATOM     16  F   UNL     1      42.896   2.402  11.561  0.00  0.00    +0.000 F 
ATOM     17  F   UNL     1      43.206   4.371  10.690  0.00  0.00    +0.000 F 
ATOM     18  F   UNL     1      44.908   3.049  11.002  0.00  0.00    +0.000 F 
ENDBRANCH  14  15
ENDBRANCH  12  14
ENDBRANCH   7  10
BRANCH   1  19
ATOM     19  C   UNL     1      49.350   6.120  17.591  0.00  0.00    +0.000 C 
BRANCH  19  23
ATOM     20  C   UNL     1      51.353   2.274  17.547  0.00  0.00    +0.000 A 
ATOM     21  C   UNL     1      49.969   2.359  17.354  0.00  0.00    +0.000 A 
ATOM     22  C   UNL     1      49.322   3.598  17.367  0.00  0.00    +0.000 A 
ATOM     23  C   UNL     1      50.046   4.780  17.573  0.00  0.00    +0.000 A 
ATOM     24  C   UNL     1      51.437   4.696  17.724  0.00  0.00    +0.000 A 
ATOM     25  C   UNL     1      52.085   3.456  17.708  0.00  0.00    +0.000 A 
BRANCH  20  26
ATOM     26  C   UNL     1      52.033   0.927  17.616  0.00  0.00    +0.000 C 
BRANCH  26  27
ATOM     27  C   UNL     1      53.561   1.018  17.655  0.00  0.00    +0.000 C 
BRANCH  27  28
ATOM     28  N   UNL     1      54.070   0.553  18.946  0.00  0.00    +0.000 NA
ATOM     29  H   UNL     1      54.786  -0.158  18.793  0.00  0.00    +0.000 HD
ATOM     30  H   UNL     1      53.323   0.095  19.465  0.00  0.00    +0.000 HD
ENDBRANCH  27  28
ENDBRANCH  26  27
ENDBRANCH  20  26
ENDBRANCH  19  23
ENDBRANCH   1  19
TORSDOF 8
ENDMDL
MODEL 7
REMARK VINA RESULT:    -6.423      4.306      7.796
REMARK INTER + INTRA:         -10.081
REMARK INTER:                  -9.132
REMARK INTRA:                  -0.950
REMARK UNBOUND:                -0.842
REMARK  Name = 
REMARK  8 active torsions:
REMARK  status: ('A' for Active; 'I' for Inactive)
REMARK    1  A    between atoms: N_1  and  C_2
REMARK    2  A    between atoms: C_2  and  C_3
REMARK    3  A    between atoms: C_3  and  C_4
REMARK    4  A    between atoms: C_7  and  C_8
REMARK    5  A    between atoms: C_8  and  N_9
REMARK    6  A    between atoms: C_15  and  C_16
REMARK    7  A    between atoms: N_18  and  C_19
REMARK    8  A    between atoms: C_19  and  C_20
REMARK                            x       y       z     vdW  Elec       q    Type
REMARK                         _______ _______ _______ _____ _____    ______ ____
ROOT
ATOM      1  N   UNL     1      49.309   7.203  15.422  0.00  0.00    +0.000 N 
ATOM      2  C   UNL     1      50.534   7.766  15.137  0.00  0.00    +0.000 A 
ATOM      3  C   UNL     1      50.591   8.000  13.778  0.00  0.00    +0.000 A 
ATOM      4  C   UNL     1      49.360   7.564  13.217  0.00  0.00    +0.000 A 
ATOM      5  C   UNL     1      48.832   7.511  11.919  0.00  0.00    +0.000 A 
ATOM      6  C   UNL     1      47.548   6.994  11.762  0.00  0.00    +0.000 A 
ATOM      7  C   UNL     1      46.851   6.567  12.889  0.00  0.00    +0.000 A 
ATOM      8  N   UNL     1      47.316   6.588  14.175  0.00  0.00    +0.000 NA
ATOM      9  C   UNL     1      48.570   7.090  14.266  0.00  0.00    +0.000 A 
ENDROOT
BRANCH   7  10
ATOM     10  C   UNL     1      45.456   6.037  12.704  0.00  0.00    +0.000 C 
ATOM     11  O   UNL     1      44.570   6.707  12.182  0.00  0.00    +0.000 OA
ATOM     12  N   UNL     1      45.243   4.755  13.166  0.00  0.00    +0.000 N 
ATOM     13  H   UNL     1      46.067   4.238  13.464  0.00  0.00    +0.000 HD
BRANCH  12  14
ATOM     14  C   UNL     1      43.966   4.076  12.957  0.00  0.00    +0.000 C 
BRANCH  14  15
ATOM     15  C   UNL     1      43.798   3.344  11.619  0.00  0.00    +0.000 C 
ATOM     16  F   UNL     1      44.973   2.909  11.113  0.00  0.00    +0.000 F 
ATOM     17  F   UNL     1      43.011   2.250  11.783  0.00  0.00    +0.000 F 
ATOM     18  F   UNL     1      43.206   4.123  10.688  0.00  0.00    +0.000 F 
ENDBRANCH  14  15
ENDBRANCH  12  14
ENDBRANCH   7  10
BRANCH   1  19
ATOM     19  C   UNL     1      48.925   6.674  16.726  0.00  0.00    +0.000 C 
BRANCH  19  23
ATOM     20  C   UNL     1      50.369   2.641  17.402  0.00  0.00    +0.000 A 
ATOM     21  C   UNL     1      51.226   3.739  17.549  0.00  0.00    +0.000 A 
ATOM     22  C   UNL     1      50.761   5.039  17.333  0.00  0.00    +0.000 A 
ATOM     23  C   UNL     1      49.429   5.271  16.965  0.00  0.00    +0.000 A 
ATOM     24  C   UNL     1      48.563   4.174  16.858  0.00  0.00    +0.000 A 
ATOM     25  C   UNL     1      49.027   2.872  17.078  0.00  0.00    +0.000 A 
BRANCH  20  26
ATOM     26  C   UNL     1      50.897   1.235  17.554  0.00  0.00    +0.000 C 
BRANCH  26  27
ATOM     27  C   UNL     1      52.423   1.143  17.461  0.00  0.00    +0.000 C 
BRANCH  27  28
ATOM     28  N   UNL     1      52.910  -0.039  18.175  0.00  0.00    +0.000 NA
ATOM     29  H   UNL     1      53.845  -0.275  17.841  0.00  0.00    +0.000 HD
ATOM     30  H   UNL     1      52.320  -0.840  17.955  0.00  0.00    +0.000 HD
ENDBRANCH  27  28
ENDBRANCH  26  27
ENDBRANCH  20  26
ENDBRANCH  19  23
ENDBRANCH   1  19
TORSDOF 8
ENDMDL
MODEL 8
REMARK VINA RESULT:    -6.254      3.856      6.968
REMARK INTER + INTRA:          -9.838
REMARK INTER:                  -9.212
REMARK INTRA:                  -0.626
REMARK UNBOUND:                -0.842
REMARK  Name = 
REMARK  8 active torsions:
REMARK  status: ('A' for Active; 'I' for Inactive)
REMARK    1  A    between atoms: N_1  and  C_2
REMARK    2  A    between atoms: C_2  and  C_3
REMARK    3  A    between atoms: C_3  and  C_4
REMARK    4  A    between atoms: C_7  and  C_8
REMARK    5  A    between atoms: C_8  and  N_9
REMARK    6  A    between atoms: C_15  and  C_16
REMARK    7  A    between atoms: N_18  and  C_19
REMARK    8  A    between atoms: C_19  and  C_20
REMARK                            x       y       z     vdW  Elec       q    Type
REMARK                         _______ _______ _______ _____ _____    ______ ____
ROOT
ATOM      1  N   UNL     1      47.947   8.597  12.650  0.00  0.00    +0.000 N 
ATOM      2  C   UNL     1      48.332   9.903  12.864  0.00  0.00    +0.000 A 
ATOM      3  C   UNL     1      47.276  10.722  12.520  0.00  0.00    +0.000 A 
ATOM      4  C   UNL     1      46.212   9.887  12.082  0.00  0.00    +0.000 A 
ATOM      5  C   UNL     1      44.918  10.114  11.590  0.00  0.00    +0.000 A 
ATOM      6  C   UNL     1      44.150   9.003  11.249  0.00  0.00    +0.000 A 
ATOM      7  C   UNL     1      44.691   7.732  11.419  0.00  0.00    +0.000 A 
ATOM      8  N   UNL     1      45.946   7.450  11.886  0.00  0.00    +0.000 NA
ATOM      9  C   UNL     1      46.649   8.566  12.191  0.00  0.00    +0.000 A 
ENDROOT
BRANCH   7  10
ATOM     10  C   UNL     1      43.838   6.544  11.070  0.00  0.00    +0.000 C 
ATOM     11  O   UNL     1      42.631   6.522  11.295  0.00  0.00    +0.000 OA
ATOM     12  N   UNL     1      44.505   5.485  10.491  0.00  0.00    +0.000 N 
ATOM     13  H   UNL     1      45.473   5.648  10.229  0.00  0.00    +0.000 HD
BRANCH  12  14
ATOM     14  C   UNL     1      43.783   4.309  10.005  0.00  0.00    +0.000 C 
BRANCH  14  15
ATOM     15  C   UNL     1      44.137   2.974  10.671  0.00  0.00    +0.000 C 
ATOM     16  F   UNL     1      43.200   2.569  11.558  0.00  0.00    +0.000 F 
ATOM     17  F   UNL     1      44.238   1.999   9.732  0.00  0.00    +0.000 F 
ATOM     18  F   UNL     1      45.323   3.029  11.315  0.00  0.00    +0.000 F 
ENDBRANCH  14  15
ENDBRANCH  12  14
ENDBRANCH   7  10
BRANCH   1  19
ATOM     19  C   UNL     1      48.835   7.445  12.753  0.00  0.00    +0.000 C 
BRANCH  19  23
ATOM     20  C   UNL     1      47.651   4.650  15.850  0.00  0.00    +0.000 A 
ATOM     21  C   UNL     1      48.495   5.728  16.146  0.00  0.00    +0.000 A 
ATOM     22  C   UNL     1      48.876   6.630  15.149  0.00  0.00    +0.000 A 
ATOM     23  C   UNL     1      48.422   6.475  13.833  0.00  0.00    +0.000 A 
ATOM     24  C   UNL     1      47.545   5.420  13.547  0.00  0.00    +0.000 A 
ATOM     25  C   UNL     1      47.160   4.518  14.546  0.00  0.00    +0.000 A 
BRANCH  20  26
ATOM     26  C   UNL     1      47.311   3.632  16.911  0.00  0.00    +0.000 C 
BRANCH  26  27
ATOM     27  C   UNL     1      48.503   2.766  17.330  0.00  0.00    +0.000 C 
BRANCH  27  28
ATOM     28  N   UNL     1      49.059   2.065  16.171  0.00  0.00    +0.000 NA
ATOM     29  H   UNL     1      48.489   2.263  15.349  0.00  0.00    +0.000 HD
ATOM     30  H   UNL     1      49.002   1.059  16.319  0.00  0.00    +0.000 HD
ENDBRANCH  27  28
ENDBRANCH  26  27
ENDBRANCH  20  26
ENDBRANCH  19  23
ENDBRANCH   1  19
TORSDOF 8
ENDMDL
MODEL 9
REMARK VINA RESULT:    -6.047      3.669      4.928
REMARK INTER + INTRA:          -9.541
REMARK INTER:                  -8.455
REMARK INTRA:                  -1.086
REMARK UNBOUND:                -0.842
REMARK  Name = 
REMARK  8 active torsions:
REMARK  status: ('A' for Active; 'I' for Inactive)
REMARK    1  A    between atoms: N_1  and  C_2
REMARK    2  A    between atoms: C_2  and  C_3
REMARK    3  A    between atoms: C_3  and  C_4
REMARK    4  A    between atoms: C_7  and  C_8
REMARK    5  A    between atoms: C_8  and  N_9
REMARK    6  A    between atoms: C_15  and  C_16
REMARK    7  A    between atoms: N_18  and  C_19
REMARK    8  A    between atoms: C_19  and  C_20
REMARK                            x       y       z     vdW  Elec       q    Type
REMARK                         _______ _______ _______ _____ _____    ______ ____
ROOT
ATOM      1  N   UNL     1      48.932   8.707  13.328  0.00  0.00    +0.000 N 
ATOM      2  C   UNL     1      48.994  10.033  12.958  0.00  0.00    +0.000 A 
ATOM      3  C   UNL     1      49.018  10.797  14.106  0.00  0.00    +0.000 A 
ATOM      4  C   UNL     1      48.968   9.907  15.213  0.00  0.00    +0.000 A 
ATOM      5  C   UNL     1      48.936  10.066  16.607  0.00  0.00    +0.000 A 
ATOM      6  C   UNL     1      48.880   8.915  17.389  0.00  0.00    +0.000 A 
ATOM      7  C   UNL     1      48.869   7.672  16.762  0.00  0.00    +0.000 A 
ATOM      8  N   UNL     1      48.891   7.457  15.411  0.00  0.00    +0.000 NA
ATOM      9  C   UNL     1      48.934   8.608  14.701  0.00  0.00    +0.000 A 
ENDROOT
BRANCH   7  10
ATOM     10  C   UNL     1      48.835   6.440  17.623  0.00  0.00    +0.000 C 
ATOM     11  O   UNL     1      48.678   6.502  18.839  0.00  0.00    +0.000 OA
ATOM     12  N   UNL     1      49.000   5.245  16.955  0.00  0.00    +0.000 N 
ATOM     13  H   UNL     1      48.995   5.290  15.939  0.00  0.00    +0.000 HD
BRANCH  12  14
ATOM     14  C   UNL     1      48.884   3.965  17.652  0.00  0.00    +0.000 C 
BRANCH  14  15
ATOM     15  C   UNL     1      48.105   2.864  16.922  0.00  0.00    +0.000 C 
ATOM     16  F   UNL     1      48.880   1.805  16.598  0.00  0.00    +0.000 F 
ATOM     17  F   UNL     1      47.109   2.396  17.715  0.00  0.00    +0.000 F 
ATOM     18  F   UNL     1      47.528   3.320  15.789  0.00  0.00    +0.000 F 
ENDBRANCH  14  15
ENDBRANCH  12  14
ENDBRANCH   7  10
BRANCH   1  19
ATOM     19  C   UNL     1      48.739   7.597  12.401  0.00  0.00    +0.000 C 
BRANCH  19  23
ATOM     20  C   UNL     1      44.849   5.721  12.781  0.00  0.00    +0.000 A 
ATOM     21  C   UNL     1      46.011   5.032  13.148  0.00  0.00    +0.000 A 
ATOM     22  C   UNL     1      47.266   5.636  13.027  0.00  0.00    +0.000 A 
ATOM     23  C   UNL     1      47.386   6.944  12.537  0.00  0.00    +0.000 A 
ATOM     24  C   UNL     1      46.218   7.646  12.209  0.00  0.00    +0.000 A 
ATOM     25  C   UNL     1      44.961   7.042  12.333  0.00  0.00    +0.000 A 
BRANCH  20  26
ATOM     26  C   UNL     1      43.505   5.034  12.834  0.00  0.00    +0.000 C 
BRANCH  26  27
ATOM     27  C   UNL     1      43.583   3.523  12.601  0.00  0.00    +0.000 C 
BRANCH  27  28
ATOM     28  N   UNL     1      42.908   3.160  11.354  0.00  0.00    +0.000 NA
ATOM     29  H   UNL     1      42.880   2.143  11.267  0.00  0.00    +0.000 HD
ATOM     30  H   UNL     1      43.450   3.496  10.560  0.00  0.00    +0.000 HD
ENDBRANCH  27  28
ENDBRANCH  26  27
ENDBRANCH  20  26
ENDBRANCH  19  23
ENDBRANCH   1  19
TORSDOF 8
ENDMDL
