MODEL 1
REMARK VINA RESULT:    -9.047      0.000      0.000
REMARK INTER + INTRA:         -11.835
REMARK INTER:                 -11.162
REMARK INTRA:                  -0.673
REMARK UNBOUND:                -0.673
REMARK  Name = 
REMARK  6 active torsions:
REMARK  status: ('A' for Active; 'I' for Inactive)
REMARK    1  A    between atoms: C_1  and  C_2
REMARK    2  A    between atoms: C_7  and  C_8
REMARK    3  A    between atoms: C_8  and  N_9
REMARK    4  A    between atoms: N_9  and  C_10
REMARK    5  A    between atoms: C_13  and  C_14
REMARK    6  A    between atoms: C_25  and  C_26
REMARK                            x       y       z     vdW  Elec       q    Type
REMARK                         _______ _______ _______ _____ _____    ______ ____
ROOT
ATOM      1  C   UNL     1      43.914   5.057  11.440  0.00  0.00    +0.000 C 
ATOM      2  C   UNL     1      43.005   6.229  11.144  0.00  0.00    +0.000 C 
ATOM      3  C   UNL     1      42.547   5.193  12.112  0.00  0.00    +0.000 C 
ENDROOT
BRANCH   1  10
ATOM      4  C   UNL     1      50.229   7.436  14.681  0.00  0.00    +0.000 C 
ATOM      5  C   UNL     1      49.422   8.708  14.441  0.00  0.00    +0.000 C 
ATOM      6  C   UNL     1      47.897   8.527  14.546  0.00  0.00    +0.000 C 
ATOM      7  N   UNL     1      47.250   8.154  13.285  0.00  0.00    +0.000 N 
ATOM      8  C   UNL     1      46.779   6.864  13.141  0.00  0.00    +0.000 A 
ATOM      9  C   UNL     1      45.663   6.639  12.357  0.00  0.00    +0.000 A 
ATOM     10  C   UNL     1      45.165   5.347  12.264  0.00  0.00    +0.000 A 
ATOM     11  N   UNL     1      45.795   4.322  12.877  0.00  0.00    +0.000 NA
ATOM     12  C   UNL     1      46.859   4.635  13.623  0.00  0.00    +0.000 A 
ATOM     13  N   UNL     1      47.368   5.861  13.802  0.00  0.00    +0.000 NA
ATOM     14  C   UNL     1      47.728   8.856  12.087  0.00  0.00    +0.000 C 
ATOM     15  C   UNL     1      49.266   8.946  12.029  0.00  0.00    +0.000 C 
ATOM     16  C   UNL     1      49.942   7.683  11.505  0.00  0.00    +0.000 C 
ATOM     17  O   UNL     1      49.846   9.402  13.259  0.00  0.00    +0.000 OA
ENDBRANCH   1  10
BRANCH   1  18
ATOM     18  N   UNL     1      44.004   3.805  10.663  0.00  0.00    +0.000 N 
ATOM     19  H   UNL     1      43.927   2.999  11.284  0.00  0.00    +0.000 HD
BRANCH  18  20
ATOM     20  C   UNL     1      44.923   3.534   9.632  0.00  0.00    +0.000 A 
ATOM     21  C   UNL     1      45.468   4.491   8.777  0.00  0.00    +0.000 A 
ATOM     22  C   UNL     1      46.301   4.099   7.713  0.00  0.00    +0.000 A 
ATOM     23  C   UNL     1      46.579   2.740   7.491  0.00  0.00    +0.000 A 
ATOM     24  C   UNL     1      46.005   1.780   8.318  0.00  0.00    +0.000 A 
ATOM     25  C   UNL     1      45.173   2.178   9.367  0.00  0.00    +0.000 A 
BRANCH  23  26
ATOM     26  C   UNL     1      47.436   2.350   6.342  0.00  0.00    +0.000 C 
ATOM     27  N   UNL     1      47.280   3.040   5.175  0.00  0.00    +0.000 N 
ATOM     28  O   UNL     1      48.247   1.434   6.433  0.00  0.00    +0.000 OA
ATOM     29  H   UNL     1      46.539   3.702   5.008  0.00  0.00    +0.000 HD
ATOM     30  H   UNL     1      47.841   2.745   4.385  0.00  0.00    +0.000 HD
ENDBRANCH  23  26
ENDBRANCH  18  20
ENDBRANCH   1  18
TORSDOF 4
ENDMDL
MODEL 2
REMARK VINA RESULT:    -8.370      1.353      2.228
REMARK INTER + INTRA:         -11.000
REMARK INTER:                 -10.904
REMARK INTRA:                  -0.096
REMARK UNBOUND:                -0.673
REMARK  Name = 
REMARK  6 active torsions:
REMARK  status: ('A' for Active; 'I' for Inactive)
REMARK    1  A    between atoms: C_1  and  C_2
REMARK    2  A    between atoms: C_7  and  C_8
REMARK    3  A    between atoms: C_8  and  N_9
REMARK    4  A    between atoms: N_9  and  C_10
REMARK    5  A    between atoms: C_13  and  C_14
REMARK    6  A    between atoms: C_25  and  C_26
REMARK                            x       y       z     vdW  Elec       q    Type
REMARK                         _______ _______ _______ _____ _____    ______ ____
ROOT
ATOM      1  C   UNL     1      43.930   5.020  11.621  0.00  0.00    +0.000 C 
ATOM      2  C   UNL     1      43.013   4.754  12.794  0.00  0.00    +0.000 C 
ATOM      3  C   UNL     1      44.190   3.863  12.587  0.00  0.00    +0.000 C 
ENDROOT
BRANCH   1  10
ATOM      4  C   UNL     1      49.027  10.378  12.785  0.00  0.00    +0.000 C 
ATOM      5  C   UNL     1      49.850   9.133  12.471  0.00  0.00    +0.000 C 
ATOM      6  C   UNL     1      49.188   8.165  11.475  0.00  0.00    +0.000 C 
ATOM      7  N   UNL     1      48.327   7.157  12.100  0.00  0.00    +0.000 N 
ATOM      8  C   UNL     1      46.959   7.275  11.953  0.00  0.00    +0.000 A 
ATOM      9  C   UNL     1      46.185   6.130  11.912  0.00  0.00    +0.000 A 
ATOM     10  C   UNL     1      44.818   6.257  11.709  0.00  0.00    +0.000 A 
ATOM     11  N   UNL     1      44.249   7.478  11.614  0.00  0.00    +0.000 NA
ATOM     12  C   UNL     1      45.076   8.527  11.652  0.00  0.00    +0.000 A 
ATOM     13  N   UNL     1      46.406   8.483  11.795  0.00  0.00    +0.000 NA
ATOM     14  C   UNL     1      48.843   6.549  13.333  0.00  0.00    +0.000 C 
ATOM     15  C   UNL     1      49.437   7.591  14.301  0.00  0.00    +0.000 C 
ATOM     16  C   UNL     1      48.395   8.316  15.147  0.00  0.00    +0.000 C 
ATOM     17  O   UNL     1      50.343   8.498  13.660  0.00  0.00    +0.000 OA
ENDBRANCH   1  10
BRANCH   1  18
ATOM     18  N   UNL     1      43.746   4.530  10.241  0.00  0.00    +0.000 N 
ATOM     19  H   UNL     1      42.866   4.018  10.164  0.00  0.00    +0.000 HD
BRANCH  18  20
ATOM     20  C   UNL     1      44.731   3.922   9.440  0.00  0.00    +0.000 A 
ATOM     21  C   UNL     1      45.554   4.596   8.539  0.00  0.00    +0.000 A 
ATOM     22  C   UNL     1      46.438   3.878   7.712  0.00  0.00    +0.000 A 
ATOM     23  C   UNL     1      46.487   2.475   7.773  0.00  0.00    +0.000 A 
ATOM     24  C   UNL     1      45.639   1.798   8.643  0.00  0.00    +0.000 A 
ATOM     25  C   UNL     1      44.760   2.518   9.455  0.00  0.00    +0.000 A 
BRANCH  23  26
ATOM     26  C   UNL     1      47.406   1.739   6.868  0.00  0.00    +0.000 C 
ATOM     27  N   UNL     1      48.494   2.410   6.391  0.00  0.00    +0.000 N 
ATOM     28  O   UNL     1      47.191   0.573   6.550  0.00  0.00    +0.000 OA
ATOM     29  H   UNL     1      48.641   3.399   6.510  0.00  0.00    +0.000 HD
ATOM     30  H   UNL     1      49.096   1.914   5.745  0.00  0.00    +0.000 HD
ENDBRANCH  23  26
ENDBRANCH  18  20
ENDBRANCH   1  18
TORSDOF 4
ENDMDL
MODEL 3
REMARK VINA RESULT:    -6.852      4.036      6.050
REMARK INTER + INTRA:          -9.127
REMARK INTER:                  -8.647
REMARK INTRA:                  -0.480
REMARK UNBOUND:                -0.673
REMARK  Name = 
REMARK  6 active torsions:
REMARK  status: ('A' for Active; 'I' for Inactive)
REMARK    1  A    between atoms: C_1  and  C_2
REMARK    2  A    between atoms: C_7  and  C_8
REMARK    3  A    between atoms: C_8  and  N_9
REMARK    4  A    between atoms: N_9  and  C_10
REMARK    5  A    between atoms: C_13  and  C_14
REMARK    6  A    between atoms: C_25  and  C_26
REMARK                            x       y       z     vdW  Elec       q    Type
REMARK                         _______ _______ _______ _____ _____    ______ ____
ROOT
ATOM      1  C   UNL     1      48.459   7.223  13.675  0.00  0.00    +0.000 C 
ATOM      2  C   UNL     1      49.377   7.362  12.481  0.00  0.00    +0.000 C 
ATOM      3  C   UNL     1      48.823   8.596  13.107  0.00  0.00    +0.000 C 
ENDROOT
BRANCH   1  10
ATOM      4  C   UNL     1      50.457   5.251  20.615  0.00  0.00    +0.000 C 
ATOM      5  C   UNL     1      49.136   4.527  20.380  0.00  0.00    +0.000 C 
ATOM      6  C   UNL     1      48.897   4.090  18.924  0.00  0.00    +0.000 C 
ATOM      7  N   UNL     1      48.227   5.098  18.097  0.00  0.00    +0.000 N 
ATOM      8  C   UNL     1      48.964   5.759  17.135  0.00  0.00    +0.000 A 
ATOM      9  C   UNL     1      48.339   6.170  15.973  0.00  0.00    +0.000 A 
ATOM     10  C   UNL     1      49.100   6.784  14.988  0.00  0.00    +0.000 A 
ATOM     11  N   UNL     1      50.413   7.028  15.188  0.00  0.00    +0.000 NA
ATOM     12  C   UNL     1      50.935   6.583  16.335  0.00  0.00    +0.000 A 
ATOM     13  N   UNL     1      50.278   5.941  17.309  0.00  0.00    +0.000 NA
ATOM     14  C   UNL     1      47.117   5.817  18.737  0.00  0.00    +0.000 C 
ATOM     15  C   UNL     1      47.456   6.269  20.171  0.00  0.00    +0.000 C 
ATOM     16  C   UNL     1      48.271   7.556  20.240  0.00  0.00    +0.000 C 
ATOM     17  O   UNL     1      48.026   5.222  20.968  0.00  0.00    +0.000 OA
ENDBRANCH   1  10
BRANCH   1  18
ATOM     18  N   UNL     1      47.001   6.998  13.633  0.00  0.00    +0.000 N 
ATOM     19  H   UNL     1      46.614   7.025  14.577  0.00  0.00    +0.000 HD
BRANCH  18  20
ATOM     20  C   UNL     1      46.335   6.026  12.864  0.00  0.00    +0.000 A 
ATOM     21  C   UNL     1      45.585   6.290  11.719  0.00  0.00    +0.000 A 
ATOM     22  C   UNL     1      44.876   5.256  11.081  0.00  0.00    +0.000 A 
ATOM     23  C   UNL     1      44.901   3.952  11.601  0.00  0.00    +0.000 A 
ATOM     24  C   UNL     1      45.616   3.692  12.766  0.00  0.00    +0.000 A 
ATOM     25  C   UNL     1      46.312   4.727  13.396  0.00  0.00    +0.000 A 
BRANCH  23  26
ATOM     26  C   UNL     1      44.119   2.884  10.927  0.00  0.00    +0.000 C 
ATOM     27  N   UNL     1      44.682   2.278   9.842  0.00  0.00    +0.000 N 
ATOM     28  O   UNL     1      43.002   2.564  11.323  0.00  0.00    +0.000 OA
ATOM     29  H   UNL     1      45.529   2.594   9.398  0.00  0.00    +0.000 HD
ATOM     30  H   UNL     1      44.128   1.577   9.365  0.00  0.00    +0.000 HD
ENDBRANCH  23  26
ENDBRANCH  18  20
ENDBRANCH   1  18
TORSDOF 4
ENDMDL
MODEL 4
REMARK VINA RESULT:    -6.833      3.421      5.642
REMARK INTER + INTRA:          -9.104
REMARK INTER:                  -8.500
REMARK INTRA:                  -0.604
REMARK UNBOUND:                -0.673
REMARK  Name = 
REMARK  6 active torsions:
REMARK  status: ('A' for Active; 'I' for Inactive)
REMARK    1  A    between atoms: C_1  and  C_2
REMARK    2  A    between atoms: C_7  and  C_8
REMARK    3  A    between atoms: C_8  and  N_9
REMARK    4  A    between atoms: N_9  and  C_10
REMARK    5  A    between atoms: C_13  and  C_14
REMARK    6  A    between atoms: C_25  and  C_26
REMARK                            x       y       z     vdW  Elec       q    Type
REMARK                         _______ _______ _______ _____ _____    ______ ____
ROOT
ATOM      1  C   UNL     1      47.829   7.908  12.782  0.00  0.00    +0.000 C 
ATOM      2  C   UNL     1      48.885   7.590  11.747  0.00  0.00    +0.000 C 
ATOM      3  C   UNL     1      48.375   8.986  11.844  0.00  0.00    +0.000 C 
ENDROOT
BRANCH   1  10
ATOM      4  C   UNL     1      49.555   6.777  19.978  0.00  0.00    +0.000 C 
ATOM      5  C   UNL     1      50.001   5.499  19.275  0.00  0.00    +0.000 C 
ATOM      6  C   UNL     1      50.505   5.704  17.835  0.00  0.00    +0.000 C 
ATOM      7  N   UNL     1      49.455   5.625  16.816  0.00  0.00    +0.000 N 
ATOM      8  C   UNL     1      49.054   6.789  16.190  0.00  0.00    +0.000 A 
ATOM      9  C   UNL     1      48.624   6.734  14.878  0.00  0.00    +0.000 A 
ATOM     10  C   UNL     1      48.276   7.917  14.241  0.00  0.00    +0.000 A 
ATOM     11  N   UNL     1      48.299   9.089  14.910  0.00  0.00    +0.000 NA
ATOM     12  C   UNL     1      48.741   9.049  16.171  0.00  0.00    +0.000 A 
ATOM     13  N   UNL     1      49.140   7.958  16.836  0.00  0.00    +0.000 NA
ATOM     14  C   UNL     1      48.463   4.558  16.997  0.00  0.00    +0.000 C 
ATOM     15  C   UNL     1      47.967   4.455  18.454  0.00  0.00    +0.000 C 
ATOM     16  C   UNL     1      46.882   5.464  18.812  0.00  0.00    +0.000 C 
ATOM     17  O   UNL     1      49.037   4.444  19.409  0.00  0.00    +0.000 OA
ENDBRANCH   1  10
BRANCH   1  18
ATOM     18  N   UNL     1      46.371   7.748  12.619  0.00  0.00    +0.000 N 
ATOM     19  H   UNL     1      45.877   8.252  13.356  0.00  0.00    +0.000 HD
BRANCH  18  20
ATOM     20  C   UNL     1      45.699   6.548  12.318  0.00  0.00    +0.000 A 
ATOM     21  C   UNL     1      45.396   5.550  13.243  0.00  0.00    +0.000 A 
ATOM     22  C   UNL     1      44.810   4.344  12.817  0.00  0.00    +0.000 A 
ATOM     23  C   UNL     1      44.541   4.125  11.456  0.00  0.00    +0.000 A 
ATOM     24  C   UNL     1      44.878   5.104  10.526  0.00  0.00    +0.000 A 
ATOM     25  C   UNL     1      45.466   6.295  10.957  0.00  0.00    +0.000 A 
BRANCH  23  26
ATOM     26  C   UNL     1      43.951   2.831  11.028  0.00  0.00    +0.000 C 
ATOM     27  N   UNL     1      44.510   2.208   9.950  0.00  0.00    +0.000 N 
ATOM     28  O   UNL     1      42.989   2.343  11.614  0.00  0.00    +0.000 OA
ATOM     29  H   UNL     1      45.205   2.630   9.356  0.00  0.00    +0.000 HD
ATOM     30  H   UNL     1      44.079   1.345   9.641  0.00  0.00    +0.000 HD
ENDBRANCH  23  26
ENDBRANCH  18  20
ENDBRANCH   1  18
TORSDOF 4
ENDMDL
