MODEL 1
REMARK VINA RESULT:    -8.616      0.000      0.000
REMARK INTER + INTRA:         -12.843
REMARK INTER:                 -11.638
REMARK INTRA:                  -1.205
REMARK UNBOUND:                -1.205
REMARK  Name = 
REMARK  7 active torsions:
REMARK  status: ('A' for Active; 'I' for Inactive)
REMARK    1  A    between atoms: C_1  and  C_2
REMARK    2  A    between atoms: C_4  and  C_5
REMARK    3  A    between atoms: C_5  and  N_6
REMARK    4  A    between atoms: C_7  and  C_9
REMARK    5  A    between atoms: C_21  and  C_22
REMARK    6  A    between atoms: C_22  and  N_23
REMARK    7  A    between atoms: C_24  and  C_26
REMARK                            x       y       z     vdW  Elec       q    Type
REMARK                         _______ _______ _______ _____ _____    ______ ____
ROOT
ATOM      1  C   UNL     1      43.014   5.132  12.671  0.00  0.00    +0.000 C 
ATOM      2  C   UNL     1      44.292   5.698  12.116  0.00  0.00    +0.000 A 
ATOM      3  C   UNL     1      45.021   6.591  12.930  0.00  0.00    +0.000 A 
ATOM      4  C   UNL     1      46.245   7.136  12.522  0.00  0.00    +0.000 A 
ATOM      5  C   UNL     1      46.718   6.816  11.248  0.00  0.00    +0.000 A 
ATOM      6  C   UNL     1      46.000   5.943  10.420  0.00  0.00    +0.000 A 
ATOM      7  C   UNL     1      44.790   5.355  10.841  0.00  0.00    +0.000 A 
ENDROOT
BRANCH   4   8
ATOM      8  C   UNL     1      47.001   8.067  13.438  0.00  0.00    +0.000 C 
BRANCH   8   9
ATOM      9  N   UNL     1      47.475   7.378  14.612  0.00  0.00    +0.000 N 
ATOM     10  C   UNL     1      48.731   6.832  14.667  0.00  0.00    +0.000 C 
ATOM     11  O   UNL     1      49.529   6.928  13.738  0.00  0.00    +0.000 OA
ATOM     12  H   UNL     1      46.771   7.069  15.275  0.00  0.00    +0.000 HD
BRANCH  10  13
ATOM     13  C   UNL     1      49.103   6.173  15.929  0.00  0.00    +0.000 A 
ATOM     14  C   UNL     1      50.188   6.638  16.658  0.00  0.00    +0.000 A 
ATOM     15  S   UNL     1      50.447   5.795  18.119  0.00  0.00    +0.000 S 
ATOM     16  C   UNL     1      49.153   4.738  17.799  0.00  0.00    +0.000 A 
ATOM     17  N   UNL     1      48.845   3.732  18.662  0.00  0.00    +0.000 NA
ATOM     18  C   UNL     1      47.856   2.988  18.281  0.00  0.00    +0.000 A 
ATOM     19  N   UNL     1      47.149   3.165  17.120  0.00  0.00    +0.000 N 
ATOM     20  C   UNL     1      47.406   4.185  16.237  0.00  0.00    +0.000 A 
ATOM     21  O   UNL     1      46.721   4.340  15.231  0.00  0.00    +0.000 OA
ATOM     22  C   UNL     1      48.515   5.041  16.610  0.00  0.00    +0.000 A 
ATOM     23  H   UNL     1      46.381   2.554  16.883  0.00  0.00    +0.000 HD
ENDBRANCH  10  13
ENDBRANCH   8   9
ENDBRANCH   4   8
BRANCH   7  24
ATOM     24  C   UNL     1      44.089   4.393   9.901  0.00  0.00    +0.000 C 
BRANCH  24  25
ATOM     25  N   UNL     1      44.942   3.970   8.819  0.00  0.00    +0.000 N 
ATOM     26  C   UNL     1      45.278   2.648   8.608  0.00  0.00    +0.000 C 
ATOM     27  O   UNL     1      44.851   1.730   9.306  0.00  0.00    +0.000 OA
ATOM     28  H   UNL     1      45.291   4.650   8.158  0.00  0.00    +0.000 HD
BRANCH  26  29
ATOM     29  C   UNL     1      46.190   2.454   7.489  0.00  0.00    +0.000 A 
ATOM     30  C   UNL     1      47.235   1.572   7.277  0.00  0.00    +0.000 A 
ATOM     31  C   UNL     1      47.778   1.870   6.002  0.00  0.00    +0.000 A 
ATOM     32  C   UNL     1      47.038   2.917   5.509  0.00  0.00    +0.000 A 
ATOM     33  O   UNL     1      46.067   3.271   6.390  0.00  0.00    +0.000 OA
ENDBRANCH  26  29
ENDBRANCH  24  25
ENDBRANCH   7  24
TORSDOF 6
ENDMDL
MODEL 2
REMARK VINA RESULT:    -7.996      2.027      2.520
REMARK INTER + INTRA:         -12.005
REMARK INTER:                 -11.069
REMARK INTRA:                  -0.936
REMARK UNBOUND:                -1.205
REMARK  Name = 
REMARK  7 active torsions:
REMARK  status: ('A' for Active; 'I' for Inactive)
REMARK    1  A    between atoms: C_1  and  C_2
REMARK    2  A    between atoms: C_4  and  C_5
REMARK    3  A    between atoms: C_5  and  N_6
REMARK    4  A    between atoms: C_7  and  C_9
REMARK    5  A    between atoms: C_21  and  C_22
REMARK    6  A    between atoms: C_22  and  N_23
REMARK    7  A    between atoms: C_24  and  C_26
REMARK                            x       y       z     vdW  Elec       q    Type
REMARK                         _______ _______ _______ _____ _____    ______ ____
ROOT
ATOM      1  C   UNL     1      46.514   3.776  13.343  0.00  0.00    +0.000 C 
ATOM      2  C   UNL     1      45.849   4.975  12.724  0.00  0.00    +0.000 A 
ATOM      3  C   UNL     1      46.327   6.251  13.091  0.00  0.00    +0.000 A 
ATOM      4  C   UNL     1      45.804   7.426  12.537  0.00  0.00    +0.000 A 
ATOM      5  C   UNL     1      44.745   7.315  11.633  0.00  0.00    +0.000 A 
ATOM      6  C   UNL     1      44.248   6.056  11.268  0.00  0.00    +0.000 A 
ATOM      7  C   UNL     1      44.799   4.868  11.788  0.00  0.00    +0.000 A 
ENDROOT
BRANCH   4   8
ATOM      8  C   UNL     1      46.363   8.768  12.943  0.00  0.00    +0.000 C 
BRANCH   8   9
ATOM      9  N   UNL     1      46.847   8.746  14.301  0.00  0.00    +0.000 N 
ATOM     10  C   UNL     1      48.181   8.873  14.591  0.00  0.00    +0.000 C 
ATOM     11  O   UNL     1      49.028   9.045  13.718  0.00  0.00    +0.000 OA
ATOM     12  H   UNL     1      46.222   8.360  15.001  0.00  0.00    +0.000 HD
BRANCH  10  13
ATOM     13  C   UNL     1      48.544   8.856  16.017  0.00  0.00    +0.000 A 
ATOM     14  C   UNL     1      48.577  10.042  16.735  0.00  0.00    +0.000 A 
ATOM     15  S   UNL     1      48.965   9.837  18.384  0.00  0.00    +0.000 S 
ATOM     16  C   UNL     1      49.162   8.159  18.182  0.00  0.00    +0.000 A 
ATOM     17  N   UNL     1      49.532   7.370  19.227  0.00  0.00    +0.000 NA
ATOM     18  C   UNL     1      49.672   6.119  18.926  0.00  0.00    +0.000 A 
ATOM     19  N   UNL     1      49.468   5.590  17.677  0.00  0.00    +0.000 N 
ATOM     20  C   UNL     1      49.066   6.344  16.603  0.00  0.00    +0.000 A 
ATOM     21  O   UNL     1      48.849   5.828  15.512  0.00  0.00    +0.000 OA
ATOM     22  C   UNL     1      48.908   7.758  16.883  0.00  0.00    +0.000 A 
ATOM     23  H   UNL     1      49.587   4.602  17.508  0.00  0.00    +0.000 HD
ENDBRANCH  10  13
ENDBRANCH   8   9
ENDBRANCH   4   8
BRANCH   7  24
ATOM     24  C   UNL     1      44.231   3.543  11.318  0.00  0.00    +0.000 C 
BRANCH  24  25
ATOM     25  N   UNL     1      45.089   2.890  10.363  0.00  0.00    +0.000 N 
ATOM     26  C   UNL     1      45.048   3.166   9.011  0.00  0.00    +0.000 C 
ATOM     27  O   UNL     1      44.299   4.012   8.524  0.00  0.00    +0.000 OA
ATOM     28  H   UNL     1      45.780   2.222  10.680  0.00  0.00    +0.000 HD
BRANCH  26  29
ATOM     29  C   UNL     1      45.967   2.355   8.226  0.00  0.00    +0.000 A 
ATOM     30  C   UNL     1      46.892   2.674   7.247  0.00  0.00    +0.000 A 
ATOM     31  C   UNL     1      47.484   1.457   6.821  0.00  0.00    +0.000 A 
ATOM     32  C   UNL     1      46.886   0.466   7.561  0.00  0.00    +0.000 A 
ATOM     33  O   UNL     1      45.978   0.994   8.422  0.00  0.00    +0.000 OA
ENDBRANCH  26  29
ENDBRANCH  24  25
ENDBRANCH   7  24
TORSDOF 6
ENDMDL
MODEL 3
REMARK VINA RESULT:    -7.777      2.253      2.753
REMARK INTER + INTRA:         -11.710
REMARK INTER:                 -10.709
REMARK INTRA:                  -1.001
REMARK UNBOUND:                -1.205
REMARK  Name = 
REMARK  7 active torsions:
REMARK  status: ('A' for Active; 'I' for Inactive)
REMARK    1  A    between atoms: C_1  and  C_2
REMARK    2  A    between atoms: C_4  and  C_5
REMARK    3  A    between atoms: C_5  and  N_6
REMARK    4  A    between atoms: C_7  and  C_9
REMARK    5  A    between atoms: C_21  and  C_22
REMARK    6  A    between atoms: C_22  and  N_23
REMARK    7  A    between atoms: C_24  and  C_26
REMARK                            x       y       z     vdW  Elec       q    Type
REMARK                         _______ _______ _______ _____ _____    ______ ____
ROOT
ATOM      1  C   UNL     1      45.014   6.564  11.169  0.00  0.00    +0.000 C 
ATOM      2  C   UNL     1      45.764   5.856  12.264  0.00  0.00    +0.000 A 
ATOM      3  C   UNL     1      46.608   6.631  13.087  0.00  0.00    +0.000 A 
ATOM      4  C   UNL     1      47.314   6.073  14.160  0.00  0.00    +0.000 A 
ATOM      5  C   UNL     1      47.206   4.697  14.377  0.00  0.00    +0.000 A 
ATOM      6  C   UNL     1      46.383   3.909  13.560  0.00  0.00    +0.000 A 
ATOM      7  C   UNL     1      45.635   4.472  12.507  0.00  0.00    +0.000 A 
ENDROOT
BRANCH   4   8
ATOM      8  C   UNL     1      48.186   6.946  15.028  0.00  0.00    +0.000 C 
BRANCH   8   9
ATOM      9  N   UNL     1      49.313   6.211  15.548  0.00  0.00    +0.000 N 
ATOM     10  C   UNL     1      49.395   5.863  16.872  0.00  0.00    +0.000 C 
ATOM     11  O   UNL     1      48.504   6.127  17.676  0.00  0.00    +0.000 OA
ATOM     12  H   UNL     1      50.154   6.206  14.981  0.00  0.00    +0.000 HD
BRANCH  10  13
ATOM     13  C   UNL     1      50.585   5.096  17.273  0.00  0.00    +0.000 A 
ATOM     14  C   UNL     1      51.741   5.762  17.653  0.00  0.00    +0.000 A 
ATOM     15  S   UNL     1      53.005   4.723  18.137  0.00  0.00    +0.000 S 
ATOM     16  C   UNL     1      52.071   3.342  17.796  0.00  0.00    +0.000 A 
ATOM     17  N   UNL     1      52.584   2.094  17.968  0.00  0.00    +0.000 NA
ATOM     18  C   UNL     1      51.775   1.137  17.645  0.00  0.00    +0.000 A 
ATOM     19  N   UNL     1      50.501   1.319  17.172  0.00  0.00    +0.000 N 
ATOM     20  C   UNL     1      49.934   2.559  17.013  0.00  0.00    +0.000 A 
ATOM     21  O   UNL     1      48.774   2.681  16.631  0.00  0.00    +0.000 OA
ATOM     22  C   UNL     1      50.804   3.669  17.348  0.00  0.00    +0.000 A 
ATOM     23  H   UNL     1      49.915   0.529  16.945  0.00  0.00    +0.000 HD
ENDBRANCH  10  13
ENDBRANCH   8   9
ENDBRANCH   4   8
BRANCH   7  24
ATOM     24  C   UNL     1      44.741   3.560  11.690  0.00  0.00    +0.000 C 
BRANCH  24  25
ATOM     25  N   UNL     1      45.449   2.935  10.600  0.00  0.00    +0.000 N 
ATOM     26  C   UNL     1      45.130   3.162   9.277  0.00  0.00    +0.000 C 
ATOM     27  O   UNL     1      44.242   3.937   8.926  0.00  0.00    +0.000 OA
ATOM     28  H   UNL     1      46.235   2.329  10.792  0.00  0.00    +0.000 HD
BRANCH  26  29
ATOM     29  C   UNL     1      45.942   2.390   8.346  0.00  0.00    +0.000 A 
ATOM     30  C   UNL     1      46.702   2.752   7.247  0.00  0.00    +0.000 A 
ATOM     31  C   UNL     1      47.253   1.559   6.712  0.00  0.00    +0.000 A 
ATOM     32  C   UNL     1      46.797   0.539   7.511  0.00  0.00    +0.000 A 
ATOM     33  O   UNL     1      46.016   1.027   8.509  0.00  0.00    +0.000 OA
ENDBRANCH  26  29
ENDBRANCH  24  25
ENDBRANCH   7  24
TORSDOF 6
ENDMDL
MODEL 4
REMARK VINA RESULT:    -7.637      1.529      1.861
REMARK INTER + INTRA:         -11.521
REMARK INTER:                 -10.539
REMARK INTRA:                  -0.981
REMARK UNBOUND:                -1.205
REMARK  Name = 
REMARK  7 active torsions:
REMARK  status: ('A' for Active; 'I' for Inactive)
REMARK    1  A    between atoms: C_1  and  C_2
REMARK    2  A    between atoms: C_4  and  C_5
REMARK    3  A    between atoms: C_5  and  N_6
REMARK    4  A    between atoms: C_7  and  C_9
REMARK    5  A    between atoms: C_21  and  C_22
REMARK    6  A    between atoms: C_22  and  N_23
REMARK    7  A    between atoms: C_24  and  C_26
REMARK                            x       y       z     vdW  Elec       q    Type
REMARK                         _______ _______ _______ _____ _____    ______ ____
ROOT
ATOM      1  C   UNL     1      43.128   6.522  11.143  0.00  0.00    +0.000 C 
ATOM      2  C   UNL     1      44.463   6.229  11.770  0.00  0.00    +0.000 A 
ATOM      3  C   UNL     1      45.200   7.318  12.283  0.00  0.00    +0.000 A 
ATOM      4  C   UNL     1      46.432   7.143  12.925  0.00  0.00    +0.000 A 
ATOM      5  C   UNL     1      46.956   5.851  13.007  0.00  0.00    +0.000 A 
ATOM      6  C   UNL     1      46.245   4.759  12.491  0.00  0.00    +0.000 A 
ATOM      7  C   UNL     1      44.984   4.922  11.883  0.00  0.00    +0.000 A 
ENDROOT
BRANCH   4   8
ATOM      8  C   UNL     1      47.172   8.335  13.479  0.00  0.00    +0.000 C 
BRANCH   8   9
ATOM      9  N   UNL     1      47.560   8.121  14.851  0.00  0.00    +0.000 N 
ATOM     10  C   UNL     1      48.833   7.740  15.187  0.00  0.00    +0.000 C 
ATOM     11  O   UNL     1      49.717   7.594  14.347  0.00  0.00    +0.000 OA
ATOM     12  H   UNL     1      46.809   7.988  15.521  0.00  0.00    +0.000 HD
BRANCH  10  13
ATOM     13  C   UNL     1      49.108   7.575  16.624  0.00  0.00    +0.000 A 
ATOM     14  C   UNL     1      49.531   8.661  17.376  0.00  0.00    +0.000 A 
ATOM     15  S   UNL     1      49.753   8.307  19.030  0.00  0.00    +0.000 S 
ATOM     16  C   UNL     1      49.348   6.673  18.788  0.00  0.00    +0.000 A 
ATOM     17  N   UNL     1      49.370   5.789  19.823  0.00  0.00    +0.000 NA
ATOM     18  C   UNL     1      49.066   4.575  19.491  0.00  0.00    +0.000 A 
ATOM     19  N   UNL     1      48.740   4.171  18.223  0.00  0.00    +0.000 N 
ATOM     20  C   UNL     1      48.676   5.034  17.157  0.00  0.00    +0.000 A 
ATOM     21  O   UNL     1      48.335   4.645  16.045  0.00  0.00    +0.000 OA
ATOM     22  C   UNL     1      49.021   6.407  17.471  0.00  0.00    +0.000 A 
ATOM     23  H   UNL     1      48.505   3.208  18.030  0.00  0.00    +0.000 HD
ENDBRANCH  10  13
ENDBRANCH   8   9
ENDBRANCH   4   8
BRANCH   7  24
ATOM     24  C   UNL     1      44.260   3.688  11.380  0.00  0.00    +0.000 C 
BRANCH  24  25
ATOM     25  N   UNL     1      45.050   2.941  10.434  0.00  0.00    +0.000 N 
ATOM     26  C   UNL     1      45.026   3.194   9.077  0.00  0.00    +0.000 C 
ATOM     27  O   UNL     1      44.355   4.095   8.577  0.00  0.00    +0.000 OA
ATOM     28  H   UNL     1      45.679   2.220  10.762  0.00  0.00    +0.000 HD
BRANCH  26  29
ATOM     29  C   UNL     1      45.864   2.287   8.305  0.00  0.00    +0.000 A 
ATOM     30  C   UNL     1      46.752   2.494   7.263  0.00  0.00    +0.000 A 
ATOM     31  C   UNL     1      47.261   1.224   6.892  0.00  0.00    +0.000 A 
ATOM     32  C   UNL     1      46.654   0.314   7.724  0.00  0.00    +0.000 A 
ATOM     33  O   UNL     1      45.819   0.942   8.590  0.00  0.00    +0.000 OA
ENDBRANCH  26  29
ENDBRANCH  24  25
ENDBRANCH   7  24
TORSDOF 6
ENDMDL
MODEL 5
REMARK VINA RESULT:    -7.212      3.833      8.423
REMARK INTER + INTRA:         -10.946
REMARK INTER:                  -9.752
REMARK INTRA:                  -1.195
REMARK UNBOUND:                -1.205
REMARK  Name = 
REMARK  7 active torsions:
REMARK  status: ('A' for Active; 'I' for Inactive)
REMARK    1  A    between atoms: C_1  and  C_2
REMARK    2  A    between atoms: C_4  and  C_5
REMARK    3  A    between atoms: C_5  and  N_6
REMARK    4  A    between atoms: C_7  and  C_9
REMARK    5  A    between atoms: C_21  and  C_22
REMARK    6  A    between atoms: C_22  and  N_23
REMARK    7  A    between atoms: C_24  and  C_26
REMARK                            x       y       z     vdW  Elec       q    Type
REMARK                         _______ _______ _______ _____ _____    ______ ____
ROOT
ATOM      1  C   UNL     1      47.510   3.260  17.329  0.00  0.00    +0.000 C 
ATOM      2  C   UNL     1      48.426   4.392  16.954  0.00  0.00    +0.000 A 
ATOM      3  C   UNL     1      47.998   5.272  15.937  0.00  0.00    +0.000 A 
ATOM      4  C   UNL     1      48.759   6.381  15.548  0.00  0.00    +0.000 A 
ATOM      5  C   UNL     1      50.000   6.579  16.159  0.00  0.00    +0.000 A 
ATOM      6  C   UNL     1      50.447   5.706  17.160  0.00  0.00    +0.000 A 
ATOM      7  C   UNL     1      49.667   4.614  17.589  0.00  0.00    +0.000 A 
ENDROOT
BRANCH   4   8
ATOM      8  C   UNL     1      48.249   7.309  14.472  0.00  0.00    +0.000 C 
BRANCH   8   9
ATOM      9  N   UNL     1      47.010   6.829  13.911  0.00  0.00    +0.000 N 
ATOM     10  C   UNL     1      46.818   6.752  12.556  0.00  0.00    +0.000 C 
ATOM     11  O   UNL     1      47.695   7.054  11.750  0.00  0.00    +0.000 OA
ATOM     12  H   UNL     1      46.204   6.819  14.528  0.00  0.00    +0.000 HD
BRANCH  10  13
ATOM     13  C   UNL     1      45.518   6.227  12.109  0.00  0.00    +0.000 A 
ATOM     14  C   UNL     1      44.575   7.085  11.563  0.00  0.00    +0.000 A 
ATOM     15  S   UNL     1      43.148   6.304  11.051  0.00  0.00    +0.000 S 
ATOM     16  C   UNL     1      43.715   4.796  11.598  0.00  0.00    +0.000 A 
ATOM     17  N   UNL     1      42.945   3.680  11.486  0.00  0.00    +0.000 NA
ATOM     18  C   UNL     1      43.489   2.608  11.967  0.00  0.00    +0.000 A 
ATOM     19  N   UNL     1      44.732   2.555  12.543  0.00  0.00    +0.000 N 
ATOM     20  C   UNL     1      45.553   3.651  12.649  0.00  0.00    +0.000 A 
ATOM     21  O   UNL     1      46.678   3.556  13.129  0.00  0.00    +0.000 OA
ATOM     22  C   UNL     1      44.985   4.883  12.137  0.00  0.00    +0.000 A 
ATOM     23  H   UNL     1      45.103   1.685  12.894  0.00  0.00    +0.000 HD
ENDBRANCH  10  13
ENDBRANCH   8   9
ENDBRANCH   4   8
BRANCH   7  24
ATOM     24  C   UNL     1      50.204   3.735  18.702  0.00  0.00    +0.000 C 
BRANCH  24  25
ATOM     25  N   UNL     1      51.497   3.182  18.384  0.00  0.00    +0.000 N 
ATOM     26  C   UNL     1      51.651   2.015  17.662  0.00  0.00    +0.000 C 
ATOM     27  O   UNL     1      50.701   1.378  17.210  0.00  0.00    +0.000 OA
ATOM     28  H   UNL     1      52.337   3.671  18.663  0.00  0.00    +0.000 HD
BRANCH  26  29
ATOM     29  C   UNL     1      53.042   1.615  17.500  0.00  0.00    +0.000 A 
ATOM     30  C   UNL     1      54.237   2.273  17.736  0.00  0.00    +0.000 A 
ATOM     31  C   UNL     1      55.279   1.386  17.368  0.00  0.00    +0.000 A 
ATOM     32  C   UNL     1      54.664   0.240  16.925  0.00  0.00    +0.000 A 
ATOM     33  O   UNL     1      53.314   0.359  17.012  0.00  0.00    +0.000 OA
ENDBRANCH  26  29
ENDBRANCH  24  25
ENDBRANCH   7  24
TORSDOF 6
ENDMDL
MODEL 6
REMARK VINA RESULT:    -7.149      2.735      3.296
REMARK INTER + INTRA:         -10.862
REMARK INTER:                  -9.815
REMARK INTRA:                  -1.047
REMARK UNBOUND:                -1.205
REMARK  Name = 
REMARK  7 active torsions:
REMARK  status: ('A' for Active; 'I' for Inactive)
REMARK    1  A    between atoms: C_1  and  C_2
REMARK    2  A    between atoms: C_4  and  C_5
REMARK    3  A    between atoms: C_5  and  N_6
REMARK    4  A    between atoms: C_7  and  C_9
REMARK    5  A    between atoms: C_21  and  C_22
REMARK    6  A    between atoms: C_22  and  N_23
REMARK    7  A    between atoms: C_24  and  C_26
REMARK                            x       y       z     vdW  Elec       q    Type
REMARK                         _______ _______ _______ _____ _____    ______ ____
ROOT
ATOM      1  C   UNL     1      44.216   3.372  12.029  0.00  0.00    +0.000 C 
ATOM      2  C   UNL     1      45.304   4.316  12.464  0.00  0.00    +0.000 A 
ATOM      3  C   UNL     1      45.872   4.117  13.740  0.00  0.00    +0.000 A 
ATOM      4  C   UNL     1      46.920   4.914  14.218  0.00  0.00    +0.000 A 
ATOM      5  C   UNL     1      47.369   5.965  13.414  0.00  0.00    +0.000 A 
ATOM      6  C   UNL     1      46.806   6.186  12.150  0.00  0.00    +0.000 A 
ATOM      7  C   UNL     1      45.783   5.361  11.644  0.00  0.00    +0.000 A 
ENDROOT
BRANCH   4   8
ATOM      8  C   UNL     1      47.512   4.648  15.580  0.00  0.00    +0.000 C 
BRANCH   8   9
ATOM      9  N   UNL     1      47.882   5.875  16.241  0.00  0.00    +0.000 N 
ATOM     10  C   UNL     1      49.148   6.078  16.724  0.00  0.00    +0.000 C 
ATOM     11  O   UNL     1      50.042   5.246  16.593  0.00  0.00    +0.000 OA
ATOM     12  H   UNL     1      47.122   6.456  16.581  0.00  0.00    +0.000 HD
BRANCH  10  13
ATOM     13  C   UNL     1      49.404   7.381  17.359  0.00  0.00    +0.000 A 
ATOM     14  C   UNL     1      50.389   8.215  16.852  0.00  0.00    +0.000 A 
ATOM     15  S   UNL     1      50.518   9.706  17.673  0.00  0.00    +0.000 S 
ATOM     16  C   UNL     1      49.300   9.263  18.775  0.00  0.00    +0.000 A 
ATOM     17  N   UNL     1      48.934  10.101  19.783  0.00  0.00    +0.000 NA
ATOM     18  C   UNL     1      48.016   9.626  20.562  0.00  0.00    +0.000 A 
ATOM     19  N   UNL     1      47.430   8.395  20.418  0.00  0.00    +0.000 N 
ATOM     20  C   UNL     1      47.748   7.532  19.399  0.00  0.00    +0.000 A 
ATOM     21  O   UNL     1      47.169   6.457  19.275  0.00  0.00    +0.000 OA
ATOM     22  C   UNL     1      48.783   8.009  18.503  0.00  0.00    +0.000 A 
ATOM     23  H   UNL     1      46.713   8.085  21.057  0.00  0.00    +0.000 HD
ENDBRANCH  10  13
ENDBRANCH   8   9
ENDBRANCH   4   8
BRANCH   7  24
ATOM     24  C   UNL     1      45.249   5.643  10.253  0.00  0.00    +0.000 C 
BRANCH  24  25
ATOM     25  N   UNL     1      45.923   4.868   9.243  0.00  0.00    +0.000 N 
ATOM     26  C   UNL     1      45.285   3.896   8.498  0.00  0.00    +0.000 C 
ATOM     27  O   UNL     1      44.088   3.642   8.617  0.00  0.00    +0.000 OA
ATOM     28  H   UNL     1      46.896   5.050   9.034  0.00  0.00    +0.000 HD
BRANCH  26  29
ATOM     29  C   UNL     1      46.169   3.204   7.571  0.00  0.00    +0.000 A 
ATOM     30  C   UNL     1      46.642   3.531   6.311  0.00  0.00    +0.000 A 
ATOM     31  C   UNL     1      47.456   2.452   5.881  0.00  0.00    +0.000 A 
ATOM     32  C   UNL     1      47.431   1.529   6.898  0.00  0.00    +0.000 A 
ATOM     33  O   UNL     1      46.670   1.975   7.930  0.00  0.00    +0.000 OA
ENDBRANCH  26  29
ENDBRANCH  24  25
ENDBRANCH   7  24
TORSDOF 6
ENDMDL
MODEL 7
REMARK VINA RESULT:    -7.117      4.696      9.579
REMARK INTER + INTRA:         -10.817
REMARK INTER:                  -9.974
REMARK INTRA:                  -0.844
REMARK UNBOUND:                -1.205
REMARK  Name = 
REMARK  7 active torsions:
REMARK  status: ('A' for Active; 'I' for Inactive)
REMARK    1  A    between atoms: C_1  and  C_2
REMARK    2  A    between atoms: C_4  and  C_5
REMARK    3  A    between atoms: C_5  and  N_6
REMARK    4  A    between atoms: C_7  and  C_9
REMARK    5  A    between atoms: C_21  and  C_22
REMARK    6  A    between atoms: C_22  and  N_23
REMARK    7  A    between atoms: C_24  and  C_26
REMARK                            x       y       z     vdW  Elec       q    Type
REMARK                         _______ _______ _______ _____ _____    ______ ____
ROOT
ATOM      1  C   UNL     1      51.130   5.514  19.142  0.00  0.00    +0.000 C 
ATOM      2  C   UNL     1      50.584   4.337  18.382  0.00  0.00    +0.000 A 
ATOM      3  C   UNL     1      49.210   4.345  18.061  0.00  0.00    +0.000 A 
ATOM      4  C   UNL     1      48.616   3.318  17.317  0.00  0.00    +0.000 A 
ATOM      5  C   UNL     1      49.411   2.236  16.932  0.00  0.00    +0.000 A 
ATOM      6  C   UNL     1      50.775   2.205  17.255  0.00  0.00    +0.000 A 
ATOM      7  C   UNL     1      51.389   3.256  17.964  0.00  0.00    +0.000 A 
ENDROOT
BRANCH   4   8
ATOM      8  C   UNL     1      47.147   3.382  16.977  0.00  0.00    +0.000 C 
BRANCH   8   9
ATOM      9  N   UNL     1      46.883   4.392  15.981  0.00  0.00    +0.000 N 
ATOM     10  C   UNL     1      47.029   4.136  14.643  0.00  0.00    +0.000 C 
ATOM     11  O   UNL     1      47.359   3.032  14.218  0.00  0.00    +0.000 OA
ATOM     12  H   UNL     1      46.860   5.354  16.304  0.00  0.00    +0.000 HD
BRANCH  10  13
ATOM     13  C   UNL     1      46.707   5.243  13.728  0.00  0.00    +0.000 A 
ATOM     14  C   UNL     1      47.638   6.247  13.504  0.00  0.00    +0.000 A 
ATOM     15  S   UNL     1      47.124   7.422  12.378  0.00  0.00    +0.000 S 
ATOM     16  C   UNL     1      45.613   6.662  12.195  0.00  0.00    +0.000 A 
ATOM     17  N   UNL     1      44.664   7.187  11.375  0.00  0.00    +0.000 NA
ATOM     18  C   UNL     1      43.553   6.522  11.352  0.00  0.00    +0.000 A 
ATOM     19  N   UNL     1      43.313   5.380  12.071  0.00  0.00    +0.000 N 
ATOM     20  C   UNL     1      44.253   4.800  12.887  0.00  0.00    +0.000 A 
ATOM     21  O   UNL     1      44.018   3.752  13.479  0.00  0.00    +0.000 OA
ATOM     22  C   UNL     1      45.513   5.514  12.960  0.00  0.00    +0.000 A 
ATOM     23  H   UNL     1      42.426   4.903  12.004  0.00  0.00    +0.000 HD
ENDBRANCH  10  13
ENDBRANCH   8   9
ENDBRANCH   4   8
BRANCH   7  24
ATOM     24  C   UNL     1      52.877   3.165  18.245  0.00  0.00    +0.000 C 
BRANCH  24  25
ATOM     25  N   UNL     1      53.295   1.817  18.534  0.00  0.00    +0.000 N 
ATOM     26  C   UNL     1      54.264   1.163  17.799  0.00  0.00    +0.000 C 
ATOM     27  O   UNL     1      54.864   1.692  16.864  0.00  0.00    +0.000 OA
ATOM     28  H   UNL     1      52.899   1.324  19.323  0.00  0.00    +0.000 HD
BRANCH  26  29
ATOM     29  C   UNL     1      54.494  -0.207  18.234  0.00  0.00    +0.000 A 
ATOM     30  C   UNL     1      54.770  -1.374  17.541  0.00  0.00    +0.000 A 
ATOM     31  C   UNL     1      54.871  -2.413  18.501  0.00  0.00    +0.000 A 
ATOM     32  C   UNL     1      54.647  -1.825  19.722  0.00  0.00    +0.000 A 
ATOM     33  O   UNL     1      54.432  -0.492  19.578  0.00  0.00    +0.000 OA
ENDBRANCH  26  29
ENDBRANCH  24  25
ENDBRANCH   7  24
TORSDOF 6
ENDMDL
MODEL 8
REMARK VINA RESULT:    -6.884      2.195      3.485
REMARK INTER + INTRA:         -10.504
REMARK INTER:                  -9.508
REMARK INTRA:                  -0.995
REMARK UNBOUND:                -1.205
REMARK  Name = 
REMARK  7 active torsions:
REMARK  status: ('A' for Active; 'I' for Inactive)
REMARK    1  A    between atoms: C_1  and  C_2
REMARK    2  A    between atoms: C_4  and  C_5
REMARK    3  A    between atoms: C_5  and  N_6
REMARK    4  A    between atoms: C_7  and  C_9
REMARK    5  A    between atoms: C_21  and  C_22
REMARK    6  A    between atoms: C_22  and  N_23
REMARK    7  A    between atoms: C_24  and  C_26
REMARK                            x       y       z     vdW  Elec       q    Type
REMARK                         _______ _______ _______ _____ _____    ______ ____
ROOT
ATOM      1  C   UNL     1      43.839   3.804  12.078  0.00  0.00    +0.000 C 
ATOM      2  C   UNL     1      45.084   4.534  12.502  0.00  0.00    +0.000 A 
ATOM      3  C   UNL     1      45.621   4.231  13.771  0.00  0.00    +0.000 A 
ATOM      4  C   UNL     1      46.800   4.823  14.239  0.00  0.00    +0.000 A 
ATOM      5  C   UNL     1      47.424   5.779  13.433  0.00  0.00    +0.000 A 
ATOM      6  C   UNL     1      46.896   6.104  12.176  0.00  0.00    +0.000 A 
ATOM      7  C   UNL     1      45.734   5.479  11.680  0.00  0.00    +0.000 A 
ENDROOT
BRANCH   4   8
ATOM      8  C   UNL     1      47.351   4.448  15.593  0.00  0.00    +0.000 C 
BRANCH   8   9
ATOM      9  N   UNL     1      47.977   5.577  16.236  0.00  0.00    +0.000 N 
ATOM     10  C   UNL     1      49.168   5.455  16.903  0.00  0.00    +0.000 C 
ATOM     11  O   UNL     1      49.781   4.392  16.961  0.00  0.00    +0.000 OA
ATOM     12  H   UNL     1      47.386   6.382  16.419  0.00  0.00    +0.000 HD
BRANCH  10  13
ATOM     13  C   UNL     1      49.713   6.685  17.498  0.00  0.00    +0.000 A 
ATOM     14  C   UNL     1      49.703   6.850  18.876  0.00  0.00    +0.000 A 
ATOM     15  S   UNL     1      50.418   8.308  19.399  0.00  0.00    +0.000 S 
ATOM     16  C   UNL     1      50.713   8.799  17.797  0.00  0.00    +0.000 A 
ATOM     17  N   UNL     1      51.292  10.001  17.532  0.00  0.00    +0.000 NA
ATOM     18  C   UNL     1      51.432  10.258  16.271  0.00  0.00    +0.000 A 
ATOM     19  N   UNL     1      51.049   9.419  15.257  0.00  0.00    +0.000 N 
ATOM     20  C   UNL     1      50.490   8.185  15.480  0.00  0.00    +0.000 A 
ATOM     21  O   UNL     1      50.202   7.441  14.547  0.00  0.00    +0.000 OA
ATOM     22  C   UNL     1      50.298   7.853  16.878  0.00  0.00    +0.000 A 
ATOM     23  H   UNL     1      51.192   9.675  14.291  0.00  0.00    +0.000 HD
ENDBRANCH  10  13
ENDBRANCH   8   9
ENDBRANCH   4   8
BRANCH   7  24
ATOM     24  C   UNL     1      45.245   5.859  10.296  0.00  0.00    +0.000 C 
BRANCH  24  25
ATOM     25  N   UNL     1      45.860   5.064   9.263  0.00  0.00    +0.000 N 
ATOM     26  C   UNL     1      45.195   4.045   8.610  0.00  0.00    +0.000 C 
ATOM     27  O   UNL     1      44.020   3.761   8.837  0.00  0.00    +0.000 OA
ATOM     28  H   UNL     1      46.805   5.267   8.967  0.00  0.00    +0.000 HD
BRANCH  26  29
ATOM     29  C   UNL     1      46.023   3.343   7.639  0.00  0.00    +0.000 A 
ATOM     30  C   UNL     1      46.573   2.073   7.626  0.00  0.00    +0.000 A 
ATOM     31  C   UNL     1      47.310   1.952   6.421  0.00  0.00    +0.000 A 
ATOM     32  C   UNL     1      47.172   3.154   5.769  0.00  0.00    +0.000 A 
ATOM     33  O   UNL     1      46.387   3.998   6.486  0.00  0.00    +0.000 OA
ENDBRANCH  26  29
ENDBRANCH  24  25
ENDBRANCH   7  24
TORSDOF 6
ENDMDL
MODEL 9
REMARK VINA RESULT:    -6.780      3.232      8.682
REMARK INTER + INTRA:         -10.362
REMARK INTER:                  -9.391
REMARK INTRA:                  -0.971
REMARK UNBOUND:                -1.205
REMARK  Name = 
REMARK  7 active torsions:
REMARK  status: ('A' for Active; 'I' for Inactive)
REMARK    1  A    between atoms: C_1  and  C_2
REMARK    2  A    between atoms: C_4  and  C_5
REMARK    3  A    between atoms: C_5  and  N_6
REMARK    4  A    between atoms: C_7  and  C_9
REMARK    5  A    between atoms: C_21  and  C_22
REMARK    6  A    between atoms: C_22  and  N_23
REMARK    7  A    between atoms: C_24  and  C_26
REMARK                            x       y       z     vdW  Elec       q    Type
REMARK                         _______ _______ _______ _____ _____    ______ ____
ROOT
ATOM      1  C   UNL     1      52.179   8.523  13.858  0.00  0.00    +0.000 C 
ATOM      2  C   UNL     1      50.781   8.005  14.062  0.00  0.00    +0.000 A 
ATOM      3  C   UNL     1      49.878   8.116  12.984  0.00  0.00    +0.000 A 
ATOM      4  C   UNL     1      48.569   7.624  13.060  0.00  0.00    +0.000 A 
ATOM      5  C   UNL     1      48.146   7.054  14.263  0.00  0.00    +0.000 A 
ATOM      6  C   UNL     1      49.026   6.949  15.349  0.00  0.00    +0.000 A 
ATOM      7  C   UNL     1      50.358   7.401  15.265  0.00  0.00    +0.000 A 
ENDROOT
BRANCH   4   8
ATOM      8  C   UNL     1      47.646   7.744  11.872  0.00  0.00    +0.000 C 
BRANCH   8   9
ATOM      9  N   UNL     1      46.923   6.518  11.643  0.00  0.00    +0.000 N 
ATOM     10  C   UNL     1      45.571   6.431  11.848  0.00  0.00    +0.000 C 
ATOM     11  O   UNL     1      44.898   7.395  12.204  0.00  0.00    +0.000 OA
ATOM     12  H   UNL     1      47.474   5.666  11.599  0.00  0.00    +0.000 HD
BRANCH  10  13
ATOM     13  C   UNL     1      44.948   5.130  11.558  0.00  0.00    +0.000 A 
ATOM     14  C   UNL     1      44.236   4.468  12.548  0.00  0.00    +0.000 A 
ATOM     15  S   UNL     1      43.537   3.001  12.028  0.00  0.00    +0.000 S 
ATOM     16  C   UNL     1      44.214   3.168  10.476  0.00  0.00    +0.000 A 
ATOM     17  N   UNL     1      44.021   2.214   9.526  0.00  0.00    +0.000 NA
ATOM     18  C   UNL     1      44.615   2.456   8.401  0.00  0.00    +0.000 A 
ATOM     19  N   UNL     1      45.376   3.567   8.143  0.00  0.00    +0.000 N 
ATOM     20  C   UNL     1      45.571   4.568   9.063  0.00  0.00    +0.000 A 
ATOM     21  O   UNL     1      46.220   5.570   8.781  0.00  0.00    +0.000 OA
ATOM     22  C   UNL     1      44.937   4.339  10.347  0.00  0.00    +0.000 A 
ATOM     23  H   UNL     1      45.807   3.701   7.241  0.00  0.00    +0.000 HD
ENDBRANCH  10  13
ENDBRANCH   8   9
ENDBRANCH   4   8
BRANCH   7  24
ATOM     24  C   UNL     1      51.258   7.220  16.472  0.00  0.00    +0.000 C 
BRANCH  24  25
ATOM     25  N   UNL     1      51.607   5.839  16.690  0.00  0.00    +0.000 N 
ATOM     26  C   UNL     1      50.947   5.038  17.600  0.00  0.00    +0.000 C 
ATOM     27  O   UNL     1      49.994   5.432  18.270  0.00  0.00    +0.000 OA
ATOM     28  H   UNL     1      52.339   5.411  16.139  0.00  0.00    +0.000 HD
BRANCH  26  29
ATOM     29  C   UNL     1      51.496   3.692  17.692  0.00  0.00    +0.000 A 
ATOM     30  C   UNL     1      52.675   3.199  18.224  0.00  0.00    +0.000 A 
ATOM     31  C   UNL     1      52.677   1.799  18.000  0.00  0.00    +0.000 A 
ATOM     32  C   UNL     1      51.504   1.517  17.343  0.00  0.00    +0.000 A 
ATOM     33  O   UNL     1      50.775   2.648  17.162  0.00  0.00    +0.000 OA
ENDBRANCH  26  29
ENDBRANCH  24  25
ENDBRANCH   7  24
TORSDOF 6
ENDMDL
