MODEL 1
REMARK VINA RESULT:    -7.377      0.000      0.000
REMARK INTER + INTRA:         -11.537
REMARK INTER:                 -10.396
REMARK INTRA:                  -1.140
REMARK UNBOUND:                -1.140
REMARK  Name = 
REMARK  8 active torsions:
REMARK  status: ('A' for Active; 'I' for Inactive)
REMARK    1  A    between atoms: C_1  and  C_2
REMARK    2  A    between atoms: C_2  and  N_3
REMARK    3  A    between atoms: C_2  and  C_16
REMARK    4  A    between atoms: C_4  and  C_6
REMARK    5  A    between atoms: C_19  and  C_20
REMARK    6  A    between atoms: C_20  and  N_21
REMARK    7  A    between atoms: C_22  and  C_24
REMARK    8  A    between atoms: C_25  and  C_26
REMARK                            x       y       z     vdW  Elec       q    Type
REMARK                         _______ _______ _______ _____ _____    ______ ____
ROOT
ATOM      1  C   UNL     1      47.171   7.945  13.627  0.00  0.00    +0.000 A 
ATOM      2  C   UNL     1      46.971   6.559  13.527  0.00  0.00    +0.000 A 
ATOM      3  C   UNL     1      45.873   6.032  12.835  0.00  0.00    +0.000 A 
ATOM      4  C   UNL     1      44.944   6.879  12.216  0.00  0.00    +0.000 A 
ATOM      5  C   UNL     1      45.108   8.263  12.359  0.00  0.00    +0.000 A 
ATOM      6  C   UNL     1      46.215   8.791  13.041  0.00  0.00    +0.000 A 
ENDROOT
BRANCH   1   8
ATOM      7  C   UNL     1      48.600   9.962  13.946  0.00  0.00    +0.000 C 
ATOM      8  C   UNL     1      48.461   8.466  14.260  0.00  0.00    +0.000 C 
BRANCH   8   9
ATOM      9  N   UNL     1      48.526   8.201  15.690  0.00  0.00    +0.000 N 
ATOM     10  C   UNL     1      49.368   7.248  16.217  0.00  0.00    +0.000 C 
ATOM     11  O   UNL     1      50.144   6.593  15.528  0.00  0.00    +0.000 OA
ATOM     12  H   UNL     1      47.699   8.439  16.229  0.00  0.00    +0.000 HD
BRANCH  10  13
ATOM     13  C   UNL     1      49.344   7.086  17.676  0.00  0.00    +0.000 A 
ATOM     14  C   UNL     1      49.694   8.152  18.494  0.00  0.00    +0.000 A 
ATOM     15  S   UNL     1      49.604   7.795  20.158  0.00  0.00    +0.000 S 
ATOM     16  C   UNL     1      49.138   6.189  19.842  0.00  0.00    +0.000 A 
ATOM     17  N   UNL     1      48.931   5.307  20.857  0.00  0.00    +0.000 NA
ATOM     18  C   UNL     1      48.617   4.116  20.469  0.00  0.00    +0.000 A 
ATOM     19  N   UNL     1      48.478   3.730  19.161  0.00  0.00    +0.000 N 
ATOM     20  C   UNL     1      48.634   4.597  18.107  0.00  0.00    +0.000 A 
ATOM     21  O   UNL     1      48.433   4.241  16.950  0.00  0.00    +0.000 OA
ATOM     22  C   UNL     1      49.021   5.940  18.487  0.00  0.00    +0.000 A 
ATOM     23  H   UNL     1      48.214   2.785  18.926  0.00  0.00    +0.000 HD
ENDBRANCH  10  13
ENDBRANCH   8   9
ENDBRANCH   1   8
BRANCH   4  24
ATOM     24  C   UNL     1      43.826   6.311  11.378  0.00  0.00    +0.000 C 
BRANCH  24  25
ATOM     25  N   UNL     1      44.301   5.460  10.312  0.00  0.00    +0.000 N 
ATOM     26  C   UNL     1      43.887   4.152  10.234  0.00  0.00    +0.000 C 
ATOM     27  O   UNL     1      43.110   3.627  11.019  0.00  0.00    +0.000 OA
ATOM     28  H   UNL     1      44.920   5.858   9.621  0.00  0.00    +0.000 HD
BRANCH  26  29
ATOM     29  C   UNL     1      44.495   3.418   9.095  0.00  0.00    +0.000 C 
ATOM     30  C   UNL     1      45.698   3.774   8.613  0.00  0.00    +0.000 C 
BRANCH  30  31
ATOM     31  C   UNL     1      46.291   3.108   7.496  0.00  0.00    +0.000 A 
ATOM     32  C   UNL     1      46.587   3.563   6.218  0.00  0.00    +0.000 A 
ATOM     33  C   UNL     1      47.204   2.578   5.392  0.00  0.00    +0.000 A 
ATOM     34  C   UNL     1      47.365   1.384   6.053  0.00  0.00    +0.000 A 
ATOM     35  S   UNL     1      46.773   1.457   7.653  0.00  0.00    +0.000 S 
ENDBRANCH  30  31
ENDBRANCH  26  29
ENDBRANCH  24  25
ENDBRANCH   4  24
TORSDOF 7
ENDMDL
MODEL 2
REMARK VINA RESULT:    -7.330      2.969      3.575
REMARK INTER + INTRA:         -11.470
REMARK INTER:                 -10.308
REMARK INTRA:                  -1.162
REMARK UNBOUND:                -1.140
REMARK  Name = 
REMARK  8 active torsions:
REMARK  status: ('A' for Active; 'I' for Inactive)
REMARK    1  A    between atoms: C_1  and  C_2
REMARK    2  A    between atoms: C_2  and  N_3
REMARK    3  A    between atoms: C_2  and  C_16
REMARK    4  A    between atoms: C_4  and  C_6
REMARK    5  A    between atoms: C_19  and  C_20
REMARK    6  A    between atoms: C_20  and  N_21
REMARK    7  A    between atoms: C_22  and  C_24
REMARK    8  A    between atoms: C_25  and  C_26
REMARK                            x       y       z     vdW  Elec       q    Type
REMARK                         _______ _______ _______ _____ _____    ______ ____
ROOT
ATOM      1  C   UNL     1      48.307   5.784  15.721  0.00  0.00    +0.000 A 
ATOM      2  C   UNL     1      48.050   6.435  14.504  0.00  0.00    +0.000 A 
ATOM      3  C   UNL     1      47.065   5.967  13.625  0.00  0.00    +0.000 A 
ATOM      4  C   UNL     1      46.302   4.835  13.942  0.00  0.00    +0.000 A 
ATOM      5  C   UNL     1      46.591   4.150  15.129  0.00  0.00    +0.000 A 
ATOM      6  C   UNL     1      47.570   4.626  16.016  0.00  0.00    +0.000 A 
ENDROOT
BRANCH   1   8
ATOM      7  C   UNL     1      48.484   7.158  17.792  0.00  0.00    +0.000 C 
ATOM      8  C   UNL     1      49.283   6.418  16.711  0.00  0.00    +0.000 C 
BRANCH   8   9
ATOM      9  N   UNL     1      50.207   5.448  17.281  0.00  0.00    +0.000 N 
ATOM     10  C   UNL     1      51.560   5.497  17.035  0.00  0.00    +0.000 C 
ATOM     11  O   UNL     1      52.081   6.378  16.358  0.00  0.00    +0.000 OA
ATOM     12  H   UNL     1      49.813   4.547  17.531  0.00  0.00    +0.000 HD
BRANCH  10  13
ATOM     13  C   UNL     1      52.382   4.466  17.679  0.00  0.00    +0.000 A 
ATOM     14  C   UNL     1      53.545   4.828  18.347  0.00  0.00    +0.000 A 
ATOM     15  S   UNL     1      54.372   3.510  19.042  0.00  0.00    +0.000 S 
ATOM     16  C   UNL     1      53.230   2.405  18.437  0.00  0.00    +0.000 A 
ATOM     17  N   UNL     1      53.371   1.068  18.643  0.00  0.00    +0.000 NA
ATOM     18  C   UNL     1      52.450   0.346  18.096  0.00  0.00    +0.000 A 
ATOM     19  N   UNL     1      51.395   0.840  17.373  0.00  0.00    +0.000 N 
ATOM     20  C   UNL     1      51.189   2.183  17.177  0.00  0.00    +0.000 A 
ATOM     21  O   UNL     1      50.197   2.600  16.587  0.00  0.00    +0.000 OA
ATOM     22  C   UNL     1      52.214   3.036  17.742  0.00  0.00    +0.000 A 
ATOM     23  H   UNL     1      50.699   0.221  16.985  0.00  0.00    +0.000 HD
ENDBRANCH  10  13
ENDBRANCH   8   9
ENDBRANCH   1   8
BRANCH   4  24
ATOM     24  C   UNL     1      45.167   4.399  13.049  0.00  0.00    +0.000 C 
BRANCH  24  25
ATOM     25  N   UNL     1      45.567   4.241  11.671  0.00  0.00    +0.000 N 
ATOM     26  C   UNL     1      44.660   4.445  10.659  0.00  0.00    +0.000 C 
ATOM     27  O   UNL     1      43.494   4.771  10.834  0.00  0.00    +0.000 OA
ATOM     28  H   UNL     1      46.529   4.004  11.474  0.00  0.00    +0.000 HD
BRANCH  26  29
ATOM     29  C   UNL     1      45.234   4.212   9.308  0.00  0.00    +0.000 C 
ATOM     30  C   UNL     1      45.690   2.998   8.958  0.00  0.00    +0.000 C 
BRANCH  30  31
ATOM     31  C   UNL     1      46.280   2.754   7.678  0.00  0.00    +0.000 A 
ATOM     32  C   UNL     1      46.350   3.549   6.543  0.00  0.00    +0.000 A 
ATOM     33  C   UNL     1      47.053   2.939   5.462  0.00  0.00    +0.000 A 
ATOM     34  C   UNL     1      47.504   1.683   5.791  0.00  0.00    +0.000 A 
ATOM     35  S   UNL     1      47.078   1.250   7.387  0.00  0.00    +0.000 S 
ENDBRANCH  30  31
ENDBRANCH  26  29
ENDBRANCH  24  25
ENDBRANCH   4  24
TORSDOF 7
ENDMDL
MODEL 3
REMARK VINA RESULT:    -6.880      1.382      2.186
REMARK INTER + INTRA:         -10.836
REMARK INTER:                  -9.539
REMARK INTRA:                  -1.297
REMARK UNBOUND:                -1.140
REMARK  Name = 
REMARK  8 active torsions:
REMARK  status: ('A' for Active; 'I' for Inactive)
REMARK    1  A    between atoms: C_1  and  C_2
REMARK    2  A    between atoms: C_2  and  N_3
REMARK    3  A    between atoms: C_2  and  C_16
REMARK    4  A    between atoms: C_4  and  C_6
REMARK    5  A    between atoms: C_19  and  C_20
REMARK    6  A    between atoms: C_20  and  N_21
REMARK    7  A    between atoms: C_22  and  C_24
REMARK    8  A    between atoms: C_25  and  C_26
REMARK                            x       y       z     vdW  Elec       q    Type
REMARK                         _______ _______ _______ _____ _____    ______ ____
ROOT
ATOM      1  C   UNL     1      47.075   7.925  13.561  0.00  0.00    +0.000 A 
ATOM      2  C   UNL     1      46.855   6.544  13.440  0.00  0.00    +0.000 A 
ATOM      3  C   UNL     1      45.755   6.043  12.732  0.00  0.00    +0.000 A 
ATOM      4  C   UNL     1      44.844   6.912  12.117  0.00  0.00    +0.000 A 
ATOM      5  C   UNL     1      45.028   8.292  12.280  0.00  0.00    +0.000 A 
ATOM      6  C   UNL     1      46.137   8.794  12.979  0.00  0.00    +0.000 A 
ENDROOT
BRANCH   1   8
ATOM      7  C   UNL     1      48.543   9.910  13.899  0.00  0.00    +0.000 C 
ATOM      8  C   UNL     1      48.367   8.418  14.212  0.00  0.00    +0.000 C 
BRANCH   8   9
ATOM      9  N   UNL     1      48.406   8.152  15.642  0.00  0.00    +0.000 N 
ATOM     10  C   UNL     1      49.163   7.132  16.174  0.00  0.00    +0.000 C 
ATOM     11  O   UNL     1      49.881   6.412  15.489  0.00  0.00    +0.000 OA
ATOM     12  H   UNL     1      47.602   8.461  16.179  0.00  0.00    +0.000 HD
BRANCH  10  13
ATOM     13  C   UNL     1      49.122   6.976  17.633  0.00  0.00    +0.000 A 
ATOM     14  C   UNL     1      48.666   5.787  18.187  0.00  0.00    +0.000 A 
ATOM     15  S   UNL     1      48.693   5.772  19.891  0.00  0.00    +0.000 S 
ATOM     16  C   UNL     1      49.273   7.371  19.949  0.00  0.00    +0.000 A 
ATOM     17  N   UNL     1      49.481   7.998  21.137  0.00  0.00    +0.000 NA
ATOM     18  C   UNL     1      49.887   9.220  21.030  0.00  0.00    +0.000 A 
ATOM     19  N   UNL     1      50.116   9.866  19.842  0.00  0.00    +0.000 N 
ATOM     20  C   UNL     1      49.962   9.258  18.620  0.00  0.00    +0.000 A 
ATOM     21  O   UNL     1      50.243   9.838  17.576  0.00  0.00    +0.000 OA
ATOM     22  C   UNL     1      49.474   7.896  18.685  0.00  0.00    +0.000 A 
ATOM     23  H   UNL     1      50.450  10.818  19.827  0.00  0.00    +0.000 HD
ENDBRANCH  10  13
ENDBRANCH   8   9
ENDBRANCH   1   8
BRANCH   4  24
ATOM     24  C   UNL     1      43.725   6.373  11.262  0.00  0.00    +0.000 C 
BRANCH  24  25
ATOM     25  N   UNL     1      44.197   5.538  10.183  0.00  0.00    +0.000 N 
ATOM     26  C   UNL     1      43.844   4.211  10.129  0.00  0.00    +0.000 C 
ATOM     27  O   UNL     1      43.126   3.655  10.949  0.00  0.00    +0.000 OA
ATOM     28  H   UNL     1      44.766   5.960   9.464  0.00  0.00    +0.000 HD
BRANCH  26  29
ATOM     29  C   UNL     1      44.440   3.498   8.970  0.00  0.00    +0.000 C 
ATOM     30  C   UNL     1      45.706   3.742   8.593  0.00  0.00    +0.000 C 
BRANCH  30  31
ATOM     31  C   UNL     1      46.294   3.097   7.460  0.00  0.00    +0.000 A 
ATOM     32  C   UNL     1      46.549   3.564   6.178  0.00  0.00    +0.000 A 
ATOM     33  C   UNL     1      47.175   2.600   5.335  0.00  0.00    +0.000 A 
ATOM     34  C   UNL     1      47.384   1.409   5.987  0.00  0.00    +0.000 A 
ATOM     35  S   UNL     1      46.825   1.459   7.600  0.00  0.00    +0.000 S 
ENDBRANCH  30  31
ENDBRANCH  26  29
ENDBRANCH  24  25
ENDBRANCH   4  24
TORSDOF 7
ENDMDL
MODEL 4
REMARK VINA RESULT:    -6.732      3.167      9.078
REMARK INTER + INTRA:         -10.628
REMARK INTER:                  -9.475
REMARK INTRA:                  -1.152
REMARK UNBOUND:                -1.140
REMARK  Name = 
REMARK  8 active torsions:
REMARK  status: ('A' for Active; 'I' for Inactive)
REMARK    1  A    between atoms: C_1  and  C_2
REMARK    2  A    between atoms: C_2  and  N_3
REMARK    3  A    between atoms: C_2  and  C_16
REMARK    4  A    between atoms: C_4  and  C_6
REMARK    5  A    between atoms: C_19  and  C_20
REMARK    6  A    between atoms: C_20  and  N_21
REMARK    7  A    between atoms: C_22  and  C_24
REMARK    8  A    between atoms: C_25  and  C_26
REMARK                            x       y       z     vdW  Elec       q    Type
REMARK                         _______ _______ _______ _____ _____    ______ ____
ROOT
ATOM      1  C   UNL     1      48.261   7.964  13.700  0.00  0.00    +0.000 A 
ATOM      2  C   UNL     1      48.404   9.098  14.515  0.00  0.00    +0.000 A 
ATOM      3  C   UNL     1      48.746   8.981  15.869  0.00  0.00    +0.000 A 
ATOM      4  C   UNL     1      48.963   7.722  16.445  0.00  0.00    +0.000 A 
ATOM      5  C   UNL     1      48.769   6.585  15.651  0.00  0.00    +0.000 A 
ATOM      6  C   UNL     1      48.438   6.703  14.292  0.00  0.00    +0.000 A 
ENDROOT
BRANCH   1   8
ATOM      7  C   UNL     1      49.376   8.496  11.536  0.00  0.00    +0.000 C 
ATOM      8  C   UNL     1      48.036   8.151  12.200  0.00  0.00    +0.000 C 
BRANCH   8   9
ATOM      9  N   UNL     1      47.403   6.995  11.584  0.00  0.00    +0.000 N 
ATOM     10  C   UNL     1      46.040   6.917  11.407  0.00  0.00    +0.000 C 
ATOM     11  O   UNL     1      45.277   7.828  11.717  0.00  0.00    +0.000 OA
ATOM     12  H   UNL     1      47.914   6.119  11.641  0.00  0.00    +0.000 HD
BRANCH  10  13
ATOM     13  C   UNL     1      45.529   5.701  10.764  0.00  0.00    +0.000 A 
ATOM     14  C   UNL     1      45.717   5.511   9.401  0.00  0.00    +0.000 A 
ATOM     15  S   UNL     1      45.070   4.045   8.820  0.00  0.00    +0.000 S 
ATOM     16  C   UNL     1      44.477   3.634  10.361  0.00  0.00    +0.000 A 
ATOM     17  N   UNL     1      43.770   2.490  10.557  0.00  0.00    +0.000 NA
ATOM     18  C   UNL     1      43.351   2.325  11.768  0.00  0.00    +0.000 A 
ATOM     19  N   UNL     1      43.587   3.193  12.803  0.00  0.00    +0.000 N 
ATOM     20  C   UNL     1      44.332   4.338  12.660  0.00  0.00    +0.000 A 
ATOM     21  O   UNL     1      44.588   5.060  13.619  0.00  0.00    +0.000 OA
ATOM     22  C   UNL     1      44.797   4.587  11.311  0.00  0.00    +0.000 A 
ATOM     23  H   UNL     1      43.245   2.997  13.731  0.00  0.00    +0.000 HD
ENDBRANCH  10  13
ENDBRANCH   8   9
ENDBRANCH   1   8
BRANCH   4  24
ATOM     24  C   UNL     1      49.440   7.602  17.871  0.00  0.00    +0.000 C 
BRANCH  24  25
ATOM     25  N   UNL     1      50.292   6.456  18.082  0.00  0.00    +0.000 N 
ATOM     26  C   UNL     1      49.807   5.343  18.728  0.00  0.00    +0.000 C 
ATOM     27  O   UNL     1      48.664   5.234  19.148  0.00  0.00    +0.000 OA
ATOM     28  H   UNL     1      51.235   6.486  17.723  0.00  0.00    +0.000 HD
BRANCH  26  29
ATOM     29  C   UNL     1      50.825   4.273  18.882  0.00  0.00    +0.000 C 
ATOM     30  C   UNL     1      51.220   3.544  17.825  0.00  0.00    +0.000 C 
BRANCH  30  31
ATOM     31  C   UNL     1      52.171   2.484  17.951  0.00  0.00    +0.000 A 
ATOM     32  C   UNL     1      52.118   1.160  17.539  0.00  0.00    +0.000 A 
ATOM     33  C   UNL     1      53.300   0.421  17.840  0.00  0.00    +0.000 A 
ATOM     34  C   UNL     1      54.235   1.195  18.483  0.00  0.00    +0.000 A 
ATOM     35  S   UNL     1      53.687   2.794  18.720  0.00  0.00    +0.000 S 
ENDBRANCH  30  31
ENDBRANCH  26  29
ENDBRANCH  24  25
ENDBRANCH   4  24
TORSDOF 7
ENDMDL
MODEL 5
REMARK VINA RESULT:    -6.719      4.223      9.279
REMARK INTER + INTRA:         -10.608
REMARK INTER:                  -9.395
REMARK INTRA:                  -1.213
REMARK UNBOUND:                -1.140
REMARK  Name = 
REMARK  8 active torsions:
REMARK  status: ('A' for Active; 'I' for Inactive)
REMARK    1  A    between atoms: C_1  and  C_2
REMARK    2  A    between atoms: C_2  and  N_3
REMARK    3  A    between atoms: C_2  and  C_16
REMARK    4  A    between atoms: C_4  and  C_6
REMARK    5  A    between atoms: C_19  and  C_20
REMARK    6  A    between atoms: C_20  and  N_21
REMARK    7  A    between atoms: C_22  and  C_24
REMARK    8  A    between atoms: C_25  and  C_26
REMARK                            x       y       z     vdW  Elec       q    Type
REMARK                         _______ _______ _______ _____ _____    ______ ____
ROOT
ATOM      1  C   UNL     1      48.406   6.616  14.827  0.00  0.00    +0.000 A 
ATOM      2  C   UNL     1      49.512   7.133  15.521  0.00  0.00    +0.000 A 
ATOM      3  C   UNL     1      49.938   6.569  16.731  0.00  0.00    +0.000 A 
ATOM      4  C   UNL     1      49.273   5.463  17.278  0.00  0.00    +0.000 A 
ATOM      5  C   UNL     1      48.137   4.977  16.618  0.00  0.00    +0.000 A 
ATOM      6  C   UNL     1      47.717   5.535  15.400  0.00  0.00    +0.000 A 
ENDROOT
BRANCH   1   8
ATOM      7  C   UNL     1      49.370   7.649  12.775  0.00  0.00    +0.000 C 
ATOM      8  C   UNL     1      48.074   7.168  13.442  0.00  0.00    +0.000 C 
BRANCH   8   9
ATOM      9  N   UNL     1      47.358   6.207  12.616  0.00  0.00    +0.000 N 
ATOM     10  C   UNL     1      46.359   6.591  11.750  0.00  0.00    +0.000 C 
ATOM     11  O   UNL     1      46.035   7.763  11.587  0.00  0.00    +0.000 OA
ATOM     12  H   UNL     1      47.335   5.252  12.956  0.00  0.00    +0.000 HD
BRANCH  10  13
ATOM     13  C   UNL     1      45.723   5.525  10.967  0.00  0.00    +0.000 A 
ATOM     14  C   UNL     1      45.787   5.556   9.580  0.00  0.00    +0.000 A 
ATOM     15  S   UNL     1      45.005   4.240   8.830  0.00  0.00    +0.000 S 
ATOM     16  C   UNL     1      44.516   3.607  10.332  0.00  0.00    +0.000 A 
ATOM     17  N   UNL     1      43.757   2.480  10.403  0.00  0.00    +0.000 NA
ATOM     18  C   UNL     1      43.429   2.136  11.604  0.00  0.00    +0.000 A 
ATOM     19  N   UNL     1      43.802   2.807  12.740  0.00  0.00    +0.000 N 
ATOM     20  C   UNL     1      44.603   3.923  12.718  0.00  0.00    +0.000 A 
ATOM     21  O   UNL     1      44.980   4.462  13.754  0.00  0.00    +0.000 OA
ATOM     22  C   UNL     1      44.970   4.371  11.391  0.00  0.00    +0.000 A 
ATOM     23  H   UNL     1      43.525   2.476  13.651  0.00  0.00    +0.000 HD
ENDBRANCH  10  13
ENDBRANCH   8   9
ENDBRANCH   1   8
BRANCH   4  24
ATOM     24  C   UNL     1      49.800   4.788  18.520  0.00  0.00    +0.000 C 
BRANCH  24  25
ATOM     25  N   UNL     1      51.002   4.025  18.276  0.00  0.00    +0.000 N 
ATOM     26  C   UNL     1      50.922   2.754  17.760  0.00  0.00    +0.000 C 
ATOM     27  O   UNL     1      49.875   2.192  17.469  0.00  0.00    +0.000 OA
ATOM     28  H   UNL     1      51.892   4.459  18.469  0.00  0.00    +0.000 HD
BRANCH  26  29
ATOM     29  C   UNL     1      52.250   2.108  17.600  0.00  0.00    +0.000 C 
ATOM     30  C   UNL     1      52.364   0.770  17.590  0.00  0.00    +0.000 C 
BRANCH  30  31
ATOM     31  C   UNL     1      53.633   0.121  17.473  0.00  0.00    +0.000 A 
ATOM     32  C   UNL     1      54.640   0.256  16.527  0.00  0.00    +0.000 A 
ATOM     33  C   UNL     1      55.775  -0.569  16.781  0.00  0.00    +0.000 A 
ATOM     34  C   UNL     1      55.613  -1.325  17.917  0.00  0.00    +0.000 A 
ATOM     35  S   UNL     1      54.104  -1.040  18.663  0.00  0.00    +0.000 S 
ENDBRANCH  30  31
ENDBRANCH  26  29
ENDBRANCH  24  25
ENDBRANCH   4  24
TORSDOF 7
ENDMDL
MODEL 6
REMARK VINA RESULT:    -6.693      3.201      9.414
REMARK INTER + INTRA:         -10.572
REMARK INTER:                  -9.449
REMARK INTRA:                  -1.123
REMARK UNBOUND:                -1.140
REMARK  Name = 
REMARK  8 active torsions:
REMARK  status: ('A' for Active; 'I' for Inactive)
REMARK    1  A    between atoms: C_1  and  C_2
REMARK    2  A    between atoms: C_2  and  N_3
REMARK    3  A    between atoms: C_2  and  C_16
REMARK    4  A    between atoms: C_4  and  C_6
REMARK    5  A    between atoms: C_19  and  C_20
REMARK    6  A    between atoms: C_20  and  N_21
REMARK    7  A    between atoms: C_22  and  C_24
REMARK    8  A    between atoms: C_25  and  C_26
REMARK                            x       y       z     vdW  Elec       q    Type
REMARK                         _______ _______ _______ _____ _____    ______ ____
ROOT
ATOM      1  C   UNL     1      48.042   7.831  13.756  0.00  0.00    +0.000 A 
ATOM      2  C   UNL     1      48.613   6.656  14.272  0.00  0.00    +0.000 A 
ATOM      3  C   UNL     1      49.039   6.581  15.604  0.00  0.00    +0.000 A 
ATOM      4  C   UNL     1      48.899   7.678  16.463  0.00  0.00    +0.000 A 
ATOM      5  C   UNL     1      48.381   8.871  15.940  0.00  0.00    +0.000 A 
ATOM      6  C   UNL     1      47.943   8.942  14.609  0.00  0.00    +0.000 A 
ENDROOT
BRANCH   1   8
ATOM      7  C   UNL     1      48.581   8.101  11.338  0.00  0.00    +0.000 C 
ATOM      8  C   UNL     1      47.458   7.816  12.344  0.00  0.00    +0.000 C 
BRANCH   8   9
ATOM      9  N   UNL     1      46.759   6.575  12.044  0.00  0.00    +0.000 N 
ATOM     10  C   UNL     1      45.396   6.534  11.847  0.00  0.00    +0.000 C 
ATOM     11  O   UNL     1      44.692   7.538  11.869  0.00  0.00    +0.000 OA
ATOM     12  H   UNL     1      47.208   5.719  12.356  0.00  0.00    +0.000 HD
BRANCH  10  13
ATOM     13  C   UNL     1      44.816   5.221  11.543  0.00  0.00    +0.000 A 
ATOM     14  C   UNL     1      44.054   4.565  12.501  0.00  0.00    +0.000 A 
ATOM     15  S   UNL     1      43.450   3.059  11.980  0.00  0.00    +0.000 S 
ATOM     16  C   UNL     1      44.224   3.210  10.472  0.00  0.00    +0.000 A 
ATOM     17  N   UNL     1      44.145   2.221   9.542  0.00  0.00    +0.000 NA
ATOM     18  C   UNL     1      44.811   2.455   8.460  0.00  0.00    +0.000 A 
ATOM     19  N   UNL     1      45.536   3.593   8.218  0.00  0.00    +0.000 N 
ATOM     20  C   UNL     1      45.608   4.635   9.110  0.00  0.00    +0.000 A 
ATOM     21  O   UNL     1      46.206   5.672   8.838  0.00  0.00    +0.000 OA
ATOM     22  C   UNL     1      44.906   4.408  10.357  0.00  0.00    +0.000 A 
ATOM     23  H   UNL     1      46.021   3.722   7.343  0.00  0.00    +0.000 HD
ENDBRANCH  10  13
ENDBRANCH   8   9
ENDBRANCH   1   8
BRANCH   4  24
ATOM     24  C   UNL     1      49.253   7.560  17.925  0.00  0.00    +0.000 C 
BRANCH  24  25
ATOM     25  N   UNL     1      50.167   6.476  18.194  0.00  0.00    +0.000 N 
ATOM     26  C   UNL     1      49.697   5.275  18.668  0.00  0.00    +0.000 C 
ATOM     27  O   UNL     1      48.517   5.033  18.883  0.00  0.00    +0.000 OA
ATOM     28  H   UNL     1      51.148   6.616  18.001  0.00  0.00    +0.000 HD
BRANCH  26  29
ATOM     29  C   UNL     1      50.776   4.285  18.915  0.00  0.00    +0.000 C 
ATOM     30  C   UNL     1      51.367   3.646  17.892  0.00  0.00    +0.000 C 
BRANCH  30  31
ATOM     31  C   UNL     1      52.384   2.663  18.102  0.00  0.00    +0.000 A 
ATOM     32  C   UNL     1      52.486   1.351  17.660  0.00  0.00    +0.000 A 
ATOM     33  C   UNL     1      53.685   0.701  18.076  0.00  0.00    +0.000 A 
ATOM     34  C   UNL     1      54.478   1.528  18.834  0.00  0.00    +0.000 A 
ATOM     35  S   UNL     1      53.776   3.071  19.040  0.00  0.00    +0.000 S 
ENDBRANCH  30  31
ENDBRANCH  26  29
ENDBRANCH  24  25
ENDBRANCH   4  24
TORSDOF 7
ENDMDL
MODEL 7
REMARK VINA RESULT:    -6.620      5.004      8.189
REMARK INTER + INTRA:         -10.469
REMARK INTER:                  -9.427
REMARK INTRA:                  -1.042
REMARK UNBOUND:                -1.140
REMARK  Name = 
REMARK  8 active torsions:
REMARK  status: ('A' for Active; 'I' for Inactive)
REMARK    1  A    between atoms: C_1  and  C_2
REMARK    2  A    between atoms: C_2  and  N_3
REMARK    3  A    between atoms: C_2  and  C_16
REMARK    4  A    between atoms: C_4  and  C_6
REMARK    5  A    between atoms: C_19  and  C_20
REMARK    6  A    between atoms: C_20  and  N_21
REMARK    7  A    between atoms: C_22  and  C_24
REMARK    8  A    between atoms: C_25  and  C_26
REMARK                            x       y       z     vdW  Elec       q    Type
REMARK                         _______ _______ _______ _____ _____    ______ ____
ROOT
ATOM      1  C   UNL     1      47.321   8.466  12.380  0.00  0.00    +0.000 A 
ATOM      2  C   UNL     1      47.913   9.714  12.631  0.00  0.00    +0.000 A 
ATOM      3  C   UNL     1      49.238   9.977  12.260  0.00  0.00    +0.000 A 
ATOM      4  C   UNL     1      50.009   8.999  11.618  0.00  0.00    +0.000 A 
ATOM      5  C   UNL     1      49.442   7.734  11.414  0.00  0.00    +0.000 A 
ATOM      6  C   UNL     1      48.111   7.474  11.775  0.00  0.00    +0.000 A 
ENDROOT
BRANCH   1   8
ATOM      7  C   UNL     1      45.076   9.531  12.206  0.00  0.00    +0.000 C 
ATOM      8  C   UNL     1      45.832   8.278  12.667  0.00  0.00    +0.000 C 
BRANCH   8   9
ATOM      9  N   UNL     1      45.298   7.066  12.065  0.00  0.00    +0.000 N 
ATOM     10  C   UNL     1      45.404   5.838  12.679  0.00  0.00    +0.000 C 
ATOM     11  O   UNL     1      45.916   5.691  13.784  0.00  0.00    +0.000 OA
ATOM     12  H   UNL     1      45.198   7.072  11.055  0.00  0.00    +0.000 HD
BRANCH  10  13
ATOM     13  C   UNL     1      44.815   4.696  11.970  0.00  0.00    +0.000 A 
ATOM     14  C   UNL     1      44.023   3.789  12.663  0.00  0.00    +0.000 A 
ATOM     15  S   UNL     1      43.413   2.531  11.688  0.00  0.00    +0.000 S 
ATOM     16  C   UNL     1      44.223   3.129  10.317  0.00  0.00    +0.000 A 
ATOM     17  N   UNL     1      44.153   2.480   9.123  0.00  0.00    +0.000 NA
ATOM     18  C   UNL     1      44.846   3.027   8.180  0.00  0.00    +0.000 A 
ATOM     19  N   UNL     1      45.590   4.170   8.318  0.00  0.00    +0.000 N 
ATOM     20  C   UNL     1      45.654   4.881   9.491  0.00  0.00    +0.000 A 
ATOM     21  O   UNL     1      46.271   5.939   9.566  0.00  0.00    +0.000 OA
ATOM     22  C   UNL     1      44.922   4.290  10.592  0.00  0.00    +0.000 A 
ATOM     23  H   UNL     1      46.097   4.555   7.535  0.00  0.00    +0.000 HD
ENDBRANCH  10  13
ENDBRANCH   8   9
ENDBRANCH   1   8
BRANCH   4  24
ATOM     24  C   UNL     1      51.395   9.320  11.118  0.00  0.00    +0.000 C 
BRANCH  24  25
ATOM     25  N   UNL     1      52.031   8.196  10.471  0.00  0.00    +0.000 N 
ATOM     26  C   UNL     1      53.316   7.841  10.805  0.00  0.00    +0.000 C 
ATOM     27  O   UNL     1      53.992   8.414  11.648  0.00  0.00    +0.000 OA
ATOM     28  H   UNL     1      51.500   7.671   9.792  0.00  0.00    +0.000 HD
BRANCH  26  29
ATOM     29  C   UNL     1      53.820   6.683  10.023  0.00  0.00    +0.000 C 
ATOM     30  C   UNL     1      53.397   6.469   8.766  0.00  0.00    +0.000 C 
BRANCH  30  31
ATOM     31  C   UNL     1      53.838   5.343   8.002  0.00  0.00    +0.000 A 
ATOM     32  C   UNL     1      53.236   4.664   6.953  0.00  0.00    +0.000 A 
ATOM     33  C   UNL     1      54.025   3.591   6.442  0.00  0.00    +0.000 A 
ATOM     34  C   UNL     1      55.216   3.467   7.114  0.00  0.00    +0.000 A 
ATOM     35  S   UNL     1      55.375   4.634   8.351  0.00  0.00    +0.000 S 
ENDBRANCH  30  31
ENDBRANCH  26  29
ENDBRANCH  24  25
ENDBRANCH   4  24
TORSDOF 7
ENDMDL
MODEL 8
REMARK VINA RESULT:    -6.560      2.993      4.377
REMARK INTER + INTRA:         -10.384
REMARK INTER:                  -9.363
REMARK INTRA:                  -1.021
REMARK UNBOUND:                -1.140
REMARK  Name = 
REMARK  8 active torsions:
REMARK  status: ('A' for Active; 'I' for Inactive)
REMARK    1  A    between atoms: C_1  and  C_2
REMARK    2  A    between atoms: C_2  and  N_3
REMARK    3  A    between atoms: C_2  and  C_16
REMARK    4  A    between atoms: C_4  and  C_6
REMARK    5  A    between atoms: C_19  and  C_20
REMARK    6  A    between atoms: C_20  and  N_21
REMARK    7  A    between atoms: C_22  and  C_24
REMARK    8  A    between atoms: C_25  and  C_26
REMARK                            x       y       z     vdW  Elec       q    Type
REMARK                         _______ _______ _______ _____ _____    ______ ____
ROOT
ATOM      1  C   UNL     1      48.916   7.523  17.223  0.00  0.00    +0.000 A 
ATOM      2  C   UNL     1      48.523   8.846  16.966  0.00  0.00    +0.000 A 
ATOM      3  C   UNL     1      48.215   9.273  15.668  0.00  0.00    +0.000 A 
ATOM      4  C   UNL     1      48.286   8.385  14.587  0.00  0.00    +0.000 A 
ATOM      5  C   UNL     1      48.730   7.078  14.828  0.00  0.00    +0.000 A 
ATOM      6  C   UNL     1      49.026   6.647  16.130  0.00  0.00    +0.000 A 
ENDROOT
BRANCH   1   8
ATOM      7  C   UNL     1      47.714   6.780  19.274  0.00  0.00    +0.000 C 
ATOM      8  C   UNL     1      49.095   7.068  18.670  0.00  0.00    +0.000 C 
BRANCH   8   9
ATOM      9  N   UNL     1      49.991   5.927  18.789  0.00  0.00    +0.000 N 
ATOM     10  C   UNL     1      51.352   6.048  18.621  0.00  0.00    +0.000 C 
ATOM     11  O   UNL     1      51.901   7.123  18.401  0.00  0.00    +0.000 OA
ATOM     12  H   UNL     1      49.581   5.015  18.617  0.00  0.00    +0.000 HD
BRANCH  10  13
ATOM     13  C   UNL     1      52.144   4.823  18.776  0.00  0.00    +0.000 A 
ATOM     14  C   UNL     1      53.329   4.856  19.499  0.00  0.00    +0.000 A 
ATOM     15  S   UNL     1      54.117   3.346  19.589  0.00  0.00    +0.000 S 
ATOM     16  C   UNL     1      52.925   2.607  18.627  0.00  0.00    +0.000 A 
ATOM     17  N   UNL     1      53.018   1.296  18.280  0.00  0.00    +0.000 NA
ATOM     18  C   UNL     1      52.063   0.878  17.517  0.00  0.00    +0.000 A 
ATOM     19  N   UNL     1      51.016   1.649  17.082  0.00  0.00    +0.000 N 
ATOM     20  C   UNL     1      50.858   2.965  17.442  0.00  0.00    +0.000 A 
ATOM     21  O   UNL     1      49.874   3.610  17.096  0.00  0.00    +0.000 OA
ATOM     22  C   UNL     1      51.923   3.492  18.270  0.00  0.00    +0.000 A 
ATOM     23  H   UNL     1      50.292   1.256  16.500  0.00  0.00    +0.000 HD
ENDBRANCH  10  13
ENDBRANCH   8   9
ENDBRANCH   1   8
BRANCH   4  24
ATOM     24  C   UNL     1      47.847   8.815  13.209  0.00  0.00    +0.000 C 
BRANCH  24  25
ATOM     25  N   UNL     1      47.607   7.700  12.324  0.00  0.00    +0.000 N 
ATOM     26  C   UNL     1      46.342   7.177  12.196  0.00  0.00    +0.000 C 
ATOM     27  O   UNL     1      45.358   7.601  12.785  0.00  0.00    +0.000 OA
ATOM     28  H   UNL     1      48.383   7.336  11.790  0.00  0.00    +0.000 HD
BRANCH  26  29
ATOM     29  C   UNL     1      46.284   6.019  11.267  0.00  0.00    +0.000 C 
ATOM     30  C   UNL     1      45.119   5.638  10.719  0.00  0.00    +0.000 C 
BRANCH  30  31
ATOM     31  C   UNL     1      45.027   4.506   9.850  0.00  0.00    +0.000 A 
ATOM     32  C   UNL     1      45.321   4.369   8.500  0.00  0.00    +0.000 A 
ATOM     33  C   UNL     1      45.110   3.050   8.002  0.00  0.00    +0.000 A 
ATOM     34  C   UNL     1      44.653   2.201   8.981  0.00  0.00    +0.000 A 
ATOM     35  S   UNL     1      44.480   2.995  10.483  0.00  0.00    +0.000 S 
ENDBRANCH  30  31
ENDBRANCH  26  29
ENDBRANCH  24  25
ENDBRANCH   4  24
TORSDOF 7
ENDMDL
MODEL 9
REMARK VINA RESULT:    -6.476      3.885      5.359
REMARK INTER + INTRA:         -10.266
REMARK INTER:                  -8.962
REMARK INTRA:                  -1.304
REMARK UNBOUND:                -1.140
REMARK  Name = 
REMARK  8 active torsions:
REMARK  status: ('A' for Active; 'I' for Inactive)
REMARK    1  A    between atoms: C_1  and  C_2
REMARK    2  A    between atoms: C_2  and  N_3
REMARK    3  A    between atoms: C_2  and  C_16
REMARK    4  A    between atoms: C_4  and  C_6
REMARK    5  A    between atoms: C_19  and  C_20
REMARK    6  A    between atoms: C_20  and  N_21
REMARK    7  A    between atoms: C_22  and  C_24
REMARK    8  A    between atoms: C_25  and  C_26
REMARK                            x       y       z     vdW  Elec       q    Type
REMARK                         _______ _______ _______ _____ _____    ______ ____
ROOT
ATOM      1  C   UNL     1      47.122   8.397  13.346  0.00  0.00    +0.000 A 
ATOM      2  C   UNL     1      47.036   6.997  13.395  0.00  0.00    +0.000 A 
ATOM      3  C   UNL     1      45.945   6.316  12.841  0.00  0.00    +0.000 A 
ATOM      4  C   UNL     1      44.908   7.019  12.213  0.00  0.00    +0.000 A 
ATOM      5  C   UNL     1      44.961   8.419  12.209  0.00  0.00    +0.000 A 
ATOM      6  C   UNL     1      46.061   9.100  12.753  0.00  0.00    +0.000 A 
ENDROOT
BRANCH   1   8
ATOM      7  C   UNL     1      48.456   9.005  15.361  0.00  0.00    +0.000 C 
ATOM      8  C   UNL     1      48.400   9.081  13.830  0.00  0.00    +0.000 C 
BRANCH   8   9
ATOM      9  N   UNL     1      49.596   8.526  13.212  0.00  0.00    +0.000 N 
ATOM     10  C   UNL     1      50.065   8.974  11.997  0.00  0.00    +0.000 C 
ATOM     11  O   UNL     1      49.534   9.891  11.378  0.00  0.00    +0.000 OA
ATOM     12  H   UNL     1      49.846   7.581  13.486  0.00  0.00    +0.000 HD
BRANCH  10  13
ATOM     13  C   UNL     1      51.286   8.338  11.490  0.00  0.00    +0.000 A 
ATOM     14  C   UNL     1      51.222   7.519  10.370  0.00  0.00    +0.000 A 
ATOM     15  S   UNL     1      52.730   6.870   9.911  0.00  0.00    +0.000 S 
ATOM     16  C   UNL     1      53.512   7.624  11.220  0.00  0.00    +0.000 A 
ATOM     17  N   UNL     1      54.842   7.443  11.440  0.00  0.00    +0.000 NA
ATOM     18  C   UNL     1      55.294   8.045  12.490  0.00  0.00    +0.000 A 
ATOM     19  N   UNL     1      54.541   8.822  13.331  0.00  0.00    +0.000 N 
ATOM     20  C   UNL     1      53.205   9.068  13.123  0.00  0.00    +0.000 A 
ATOM     21  O   UNL     1      52.572   9.825  13.852  0.00  0.00    +0.000 OA
ATOM     22  C   UNL     1      52.641   8.386  11.976  0.00  0.00    +0.000 A 
ATOM     23  H   UNL     1      54.959   9.280  14.127  0.00  0.00    +0.000 HD
ENDBRANCH  10  13
ENDBRANCH   8   9
ENDBRANCH   1   8
BRANCH   4  24
ATOM     24  C   UNL     1      43.791   6.281  11.518  0.00  0.00    +0.000 C 
BRANCH  24  25
ATOM     25  N   UNL     1      44.246   5.518  10.380  0.00  0.00    +0.000 N 
ATOM     26  C   UNL     1      43.863   4.207  10.228  0.00  0.00    +0.000 C 
ATOM     27  O   UNL     1      43.130   3.609  11.003  0.00  0.00    +0.000 OA
ATOM     28  H   UNL     1      44.827   5.979   9.694  0.00  0.00    +0.000 HD
BRANCH  26  29
ATOM     29  C   UNL     1      44.445   3.569   9.019  0.00  0.00    +0.000 C 
ATOM     30  C   UNL     1      45.760   3.661   8.762  0.00  0.00    +0.000 C 
BRANCH  30  31
ATOM     31  C   UNL     1      46.342   3.086   7.589  0.00  0.00    +0.000 A 
ATOM     32  C   UNL     1      46.608   3.636   6.343  0.00  0.00    +0.000 A 
ATOM     33  C   UNL     1      47.223   2.723   5.436  0.00  0.00    +0.000 A 
ATOM     34  C   UNL     1      47.412   1.487   6.006  0.00  0.00    +0.000 A 
ATOM     35  S   UNL     1      46.848   1.435   7.617  0.00  0.00    +0.000 S 
ENDBRANCH  30  31
ENDBRANCH  26  29
ENDBRANCH  24  25
ENDBRANCH   4  24
TORSDOF 7
ENDMDL
