MODEL 1
REMARK VINA RESULT:    -8.773      0.000      0.000
REMARK INTER + INTRA:         -12.896
REMARK INTER:                 -11.850
REMARK INTRA:                  -1.046
REMARK UNBOUND:                -1.046
REMARK  Name = 
REMARK  7 active torsions:
REMARK  status: ('A' for Active; 'I' for Inactive)
REMARK    1  A    between atoms: C_1  and  C_2
REMARK    2  A    between atoms: C_2  and  N_3
REMARK    3  A    between atoms: C_2  and  C_12
REMARK    4  A    between atoms: C_4  and  C_6
REMARK    5  A    between atoms: C_15  and  C_16
REMARK    6  A    between atoms: C_16  and  N_17
REMARK    7  A    between atoms: C_18  and  C_20
REMARK                            x       y       z     vdW  Elec       q    Type
REMARK                         _______ _______ _______ _____ _____    ______ ____
ROOT
ATOM      1  C   UNL     1      45.419   4.740  12.115  0.00  0.00    +0.000 A 
ATOM      2  C   UNL     1      46.029   4.334  13.314  0.00  0.00    +0.000 A 
ATOM      3  C   UNL     1      47.034   5.112  13.909  0.00  0.00    +0.000 A 
ATOM      4  C   UNL     1      47.441   6.322  13.325  0.00  0.00    +0.000 A 
ATOM      5  C   UNL     1      46.847   6.710  12.127  0.00  0.00    +0.000 A 
ATOM      6  F   UNL     1      47.236   7.836  11.518  0.00  0.00    +0.000 F 
ATOM      7  C   UNL     1      45.844   5.945  11.537  0.00  0.00    +0.000 A 
ENDROOT
BRANCH   1   9
ATOM      8  C   UNL     1      43.739   2.884  12.474  0.00  0.00    +0.000 C 
ATOM      9  C   UNL     1      44.303   3.914  11.485  0.00  0.00    +0.000 C 
BRANCH   9  10
ATOM     10  N   UNL     1      44.804   3.289  10.271  0.00  0.00    +0.000 N 
ATOM     11  C   UNL     1      44.535   3.738   8.996  0.00  0.00    +0.000 C 
ATOM     12  O   UNL     1      43.759   4.653   8.736  0.00  0.00    +0.000 OA
ATOM     13  H   UNL     1      45.612   2.673  10.329  0.00  0.00    +0.000 HD
BRANCH  11  14
ATOM     14  C   UNL     1      45.256   2.930   7.889  0.00  0.00    +0.000 C 
ATOM     15  C   UNL     1      45.999   1.743   8.514  0.00  0.00    +0.000 C 
ATOM     16  C   UNL     1      46.849   0.996   7.487  0.00  0.00    +0.000 C 
ATOM     17  C   UNL     1      47.741   1.964   6.719  0.00  0.00    +0.000 C 
ATOM     18  C   UNL     1      46.922   3.104   6.124  0.00  0.00    +0.000 C 
ATOM     19  N   UNL     1      46.188   3.834   7.165  0.00  0.00    +0.000 NA
ATOM     20  H   UNL     1      45.631   4.563   6.711  0.00  0.00    +0.000 HD
ENDBRANCH  11  14
ENDBRANCH   9  10
ENDBRANCH   1   9
BRANCH   4  21
ATOM     21  C   UNL     1      48.497   7.182  13.964  0.00  0.00    +0.000 C 
BRANCH  21  22
ATOM     22  N   UNL     1      48.280   7.298  15.383  0.00  0.00    +0.000 N 
ATOM     23  C   UNL     1      49.169   6.790  16.297  0.00  0.00    +0.000 C 
ATOM     24  O   UNL     1      50.251   6.309  15.967  0.00  0.00    +0.000 OA
ATOM     25  H   UNL     1      47.315   7.423  15.672  0.00  0.00    +0.000 HD
BRANCH  23  26
ATOM     26  C   UNL     1      48.799   6.943  17.706  0.00  0.00    +0.000 A 
ATOM     27  C   UNL     1      48.487   8.198  18.213  0.00  0.00    +0.000 A 
ATOM     28  S   UNL     1      48.021   8.172  19.853  0.00  0.00    +0.000 S 
ATOM     29  C   UNL     1      48.274   6.493  19.959  0.00  0.00    +0.000 A 
ATOM     30  N   UNL     1      48.066   5.821  21.124  0.00  0.00    +0.000 NA
ATOM     31  C   UNL     1      48.324   4.558  21.065  0.00  0.00    +0.000 A 
ATOM     32  N   UNL     1      48.768   3.903  19.944  0.00  0.00    +0.000 N 
ATOM     33  C   UNL     1      48.966   4.531  18.744  0.00  0.00    +0.000 A 
ATOM     34  O   UNL     1      49.313   3.912  17.742  0.00  0.00    +0.000 OA
ATOM     35  C   UNL     1      48.694   5.958  18.755  0.00  0.00    +0.000 A 
ATOM     36  H   UNL     1      48.943   2.908  19.961  0.00  0.00    +0.000 HD
ENDBRANCH  23  26
ENDBRANCH  21  22
ENDBRANCH   4  21
TORSDOF 6
ENDMDL
MODEL 2
REMARK VINA RESULT:    -8.705      1.850      2.140
REMARK INTER + INTRA:         -12.804
REMARK INTER:                 -12.528
REMARK INTRA:                  -0.276
REMARK UNBOUND:                -1.046
REMARK  Name = 
REMARK  7 active torsions:
REMARK  status: ('A' for Active; 'I' for Inactive)
REMARK    1  A    between atoms: C_1  and  C_2
REMARK    2  A    between atoms: C_2  and  N_3
REMARK    3  A    between atoms: C_2  and  C_12
REMARK    4  A    between atoms: C_4  and  C_6
REMARK    5  A    between atoms: C_15  and  C_16
REMARK    6  A    between atoms: C_16  and  N_17
REMARK    7  A    between atoms: C_18  and  C_20
REMARK                            x       y       z     vdW  Elec       q    Type
REMARK                         _______ _______ _______ _____ _____    ______ ____
ROOT
ATOM      1  C   UNL     1      44.745   6.164  11.296  0.00  0.00    +0.000 A 
ATOM      2  C   UNL     1      45.991   5.611  11.639  0.00  0.00    +0.000 A 
ATOM      3  C   UNL     1      46.906   6.332  12.421  0.00  0.00    +0.000 A 
ATOM      4  C   UNL     1      46.591   7.617  12.888  0.00  0.00    +0.000 A 
ATOM      5  C   UNL     1      45.364   8.169  12.528  0.00  0.00    +0.000 A 
ATOM      6  F   UNL     1      45.043   9.407  12.920  0.00  0.00    +0.000 F 
ATOM      7  C   UNL     1      44.449   7.454  11.760  0.00  0.00    +0.000 A 
ENDROOT
BRANCH   1   9
ATOM      8  C   UNL     1      42.923   4.412  11.359  0.00  0.00    +0.000 C 
ATOM      9  C   UNL     1      43.735   5.370  10.476  0.00  0.00    +0.000 C 
BRANCH   9  10
ATOM     10  N   UNL     1      44.436   4.669   9.411  0.00  0.00    +0.000 N 
ATOM     11  C   UNL     1      44.459   3.299   9.263  0.00  0.00    +0.000 C 
ATOM     12  O   UNL     1      43.977   2.511  10.071  0.00  0.00    +0.000 OA
ATOM     13  H   UNL     1      44.691   5.179   8.568  0.00  0.00    +0.000 HD
BRANCH  11  14
ATOM     14  C   UNL     1      45.220   2.824   8.001  0.00  0.00    +0.000 C 
ATOM     15  C   UNL     1      46.098   1.616   8.349  0.00  0.00    +0.000 C 
ATOM     16  C   UNL     1      46.983   1.196   7.177  0.00  0.00    +0.000 C 
ATOM     17  C   UNL     1      47.749   2.393   6.625  0.00  0.00    +0.000 C 
ATOM     18  C   UNL     1      46.801   3.541   6.296  0.00  0.00    +0.000 C 
ATOM     19  N   UNL     1      46.033   3.953   7.477  0.00  0.00    +0.000 NA
ATOM     20  H   UNL     1      45.392   4.699   7.196  0.00  0.00    +0.000 HD
ENDBRANCH  11  14
ENDBRANCH   9  10
ENDBRANCH   1   9
BRANCH   4  21
ATOM     21  C   UNL     1      47.549   8.393  13.750  0.00  0.00    +0.000 C 
BRANCH  21  22
ATOM     22  N   UNL     1      47.898   7.650  14.934  0.00  0.00    +0.000 N 
ATOM     23  C   UNL     1      49.108   7.017  15.063  0.00  0.00    +0.000 C 
ATOM     24  O   UNL     1      50.007   7.137  14.233  0.00  0.00    +0.000 OA
ATOM     25  H   UNL     1      47.116   7.307  15.483  0.00  0.00    +0.000 HD
BRANCH  23  26
ATOM     26  C   UNL     1      49.310   6.264  16.303  0.00  0.00    +0.000 A 
ATOM     27  C   UNL     1      50.300   6.646  17.200  0.00  0.00    +0.000 A 
ATOM     28  S   UNL     1      50.343   5.692  18.612  0.00  0.00    +0.000 S 
ATOM     29  C   UNL     1      49.080   4.700  18.052  0.00  0.00    +0.000 A 
ATOM     30  N   UNL     1      48.624   3.653  18.792  0.00  0.00    +0.000 NA
ATOM     31  C   UNL     1      47.683   2.972  18.230  0.00  0.00    +0.000 A 
ATOM     32  N   UNL     1      47.151   3.245  16.996  0.00  0.00    +0.000 N 
ATOM     33  C   UNL     1      47.558   4.302  16.227  0.00  0.00    +0.000 A 
ATOM     34  O   UNL     1      47.028   4.556  15.148  0.00  0.00    +0.000 OA
ATOM     35  C   UNL     1      48.621   5.101  16.810  0.00  0.00    +0.000 A 
ATOM     36  H   UNL     1      46.406   2.677  16.616  0.00  0.00    +0.000 HD
ENDBRANCH  23  26
ENDBRANCH  21  22
ENDBRANCH   4  21
TORSDOF 6
ENDMDL
MODEL 3
REMARK VINA RESULT:    -8.011      1.641      2.217
REMARK INTER + INTRA:         -11.867
REMARK INTER:                 -11.669
REMARK INTRA:                  -0.198
REMARK UNBOUND:                -1.046
REMARK  Name = 
REMARK  7 active torsions:
REMARK  status: ('A' for Active; 'I' for Inactive)
REMARK    1  A    between atoms: C_1  and  C_2
REMARK    2  A    between atoms: C_2  and  N_3
REMARK    3  A    between atoms: C_2  and  C_12
REMARK    4  A    between atoms: C_4  and  C_6
REMARK    5  A    between atoms: C_15  and  C_16
REMARK    6  A    between atoms: C_16  and  N_17
REMARK    7  A    between atoms: C_18  and  C_20
REMARK                            x       y       z     vdW  Elec       q    Type
REMARK                         _______ _______ _______ _____ _____    ______ ____
ROOT
ATOM      1  C   UNL     1      44.920   6.187  11.440  0.00  0.00    +0.000 A 
ATOM      2  C   UNL     1      46.052   5.485  11.889  0.00  0.00    +0.000 A 
ATOM      3  C   UNL     1      47.030   6.121  12.669  0.00  0.00    +0.000 A 
ATOM      4  C   UNL     1      46.891   7.471  13.027  0.00  0.00    +0.000 A 
ATOM      5  C   UNL     1      45.778   8.167  12.563  0.00  0.00    +0.000 A 
ATOM      6  F   UNL     1      45.630   9.466  12.850  0.00  0.00    +0.000 F 
ATOM      7  C   UNL     1      44.801   7.538  11.797  0.00  0.00    +0.000 A 
ENDROOT
BRANCH   1   9
ATOM      8  C   UNL     1      42.960   4.590  11.504  0.00  0.00    +0.000 C 
ATOM      9  C   UNL     1      43.839   5.489  10.622  0.00  0.00    +0.000 C 
BRANCH   9  10
ATOM     10  N   UNL     1      44.468   4.747   9.541  0.00  0.00    +0.000 N 
ATOM     11  C   UNL     1      44.481   3.373   9.443  0.00  0.00    +0.000 C 
ATOM     12  O   UNL     1      44.052   2.616  10.309  0.00  0.00    +0.000 OA
ATOM     13  H   UNL     1      44.668   5.225   8.665  0.00  0.00    +0.000 HD
BRANCH  11  14
ATOM     14  C   UNL     1      45.157   2.848   8.153  0.00  0.00    +0.000 C 
ATOM     15  C   UNL     1      46.019   1.622   8.480  0.00  0.00    +0.000 C 
ATOM     16  C   UNL     1      46.826   1.152   7.271  0.00  0.00    +0.000 C 
ATOM     17  C   UNL     1      47.593   2.314   6.651  0.00  0.00    +0.000 C 
ATOM     18  C   UNL     1      46.661   3.482   6.348  0.00  0.00    +0.000 C 
ATOM     19  N   UNL     1      45.971   3.941   7.559  0.00  0.00    +0.000 NA
ATOM     20  H   UNL     1      45.337   4.700   7.297  0.00  0.00    +0.000 HD
ENDBRANCH  11  14
ENDBRANCH   9  10
ENDBRANCH   1   9
BRANCH   4  21
ATOM     21  C   UNL     1      47.916   8.162  13.885  0.00  0.00    +0.000 C 
BRANCH  21  22
ATOM     22  N   UNL     1      47.906   7.636  15.226  0.00  0.00    +0.000 N 
ATOM     23  C   UNL     1      48.943   6.885  15.718  0.00  0.00    +0.000 C 
ATOM     24  O   UNL     1      49.986   6.709  15.092  0.00  0.00    +0.000 OA
ATOM     25  H   UNL     1      46.990   7.522  15.647  0.00  0.00    +0.000 HD
BRANCH  23  26
ATOM     26  C   UNL     1      48.779   6.380  17.085  0.00  0.00    +0.000 A 
ATOM     27  C   UNL     1      49.062   5.052  17.377  0.00  0.00    +0.000 A 
ATOM     28  S   UNL     1      48.874   4.666  19.027  0.00  0.00    +0.000 S 
ATOM     29  C   UNL     1      48.355   6.242  19.398  0.00  0.00    +0.000 A 
ATOM     30  N   UNL     1      48.011   6.590  20.669  0.00  0.00    +0.000 NA
ATOM     31  C   UNL     1      47.609   7.810  20.797  0.00  0.00    +0.000 A 
ATOM     32  N   UNL     1      47.524   8.716  19.771  0.00  0.00    +0.000 N 
ATOM     33  C   UNL     1      47.883   8.421  18.484  0.00  0.00    +0.000 A 
ATOM     34  O   UNL     1      47.848   9.266  17.594  0.00  0.00    +0.000 OA
ATOM     35  C   UNL     1      48.339   7.057  18.281  0.00  0.00    +0.000 A 
ATOM     36  H   UNL     1      47.211   9.662  19.941  0.00  0.00    +0.000 HD
ENDBRANCH  23  26
ENDBRANCH  21  22
ENDBRANCH   4  21
TORSDOF 6
ENDMDL
MODEL 4
REMARK VINA RESULT:    -7.834      2.183      2.807
REMARK INTER + INTRA:         -11.627
REMARK INTER:                 -10.332
REMARK INTRA:                  -1.295
REMARK UNBOUND:                -1.046
REMARK  Name = 
REMARK  7 active torsions:
REMARK  status: ('A' for Active; 'I' for Inactive)
REMARK    1  A    between atoms: C_1  and  C_2
REMARK    2  A    between atoms: C_2  and  N_3
REMARK    3  A    between atoms: C_2  and  C_12
REMARK    4  A    between atoms: C_4  and  C_6
REMARK    5  A    between atoms: C_15  and  C_16
REMARK    6  A    between atoms: C_16  and  N_17
REMARK    7  A    between atoms: C_18  and  C_20
REMARK                            x       y       z     vdW  Elec       q    Type
REMARK                         _______ _______ _______ _____ _____    ______ ____
ROOT
ATOM      1  C   UNL     1      45.381   4.904  12.138  0.00  0.00    +0.000 A 
ATOM      2  C   UNL     1      46.180   4.435  13.196  0.00  0.00    +0.000 A 
ATOM      3  C   UNL     1      47.167   5.252  13.768  0.00  0.00    +0.000 A 
ATOM      4  C   UNL     1      47.368   6.562  13.304  0.00  0.00    +0.000 A 
ATOM      5  C   UNL     1      46.588   7.014  12.243  0.00  0.00    +0.000 A 
ATOM      6  F   UNL     1      46.777   8.242  11.746  0.00  0.00    +0.000 F 
ATOM      7  C   UNL     1      45.602   6.210  11.678  0.00  0.00    +0.000 A 
ENDROOT
BRANCH   1   9
ATOM      8  C   UNL     1      43.759   3.010  12.557  0.00  0.00    +0.000 C 
ATOM      9  C   UNL     1      44.285   4.031  11.538  0.00  0.00    +0.000 C 
BRANCH   9  10
ATOM     10  N   UNL     1      44.795   3.390  10.335  0.00  0.00    +0.000 N 
ATOM     11  C   UNL     1      44.513   3.806   9.052  0.00  0.00    +0.000 C 
ATOM     12  O   UNL     1      43.718   4.699   8.776  0.00  0.00    +0.000 OA
ATOM     13  H   UNL     1      45.615   2.792  10.404  0.00  0.00    +0.000 HD
BRANCH  11  14
ATOM     14  C   UNL     1      45.247   2.989   7.960  0.00  0.00    +0.000 C 
ATOM     15  C   UNL     1      45.935   1.775   8.595  0.00  0.00    +0.000 C 
ATOM     16  C   UNL     1      46.796   1.015   7.589  0.00  0.00    +0.000 C 
ATOM     17  C   UNL     1      47.740   1.965   6.861  0.00  0.00    +0.000 C 
ATOM     18  C   UNL     1      46.974   3.134   6.252  0.00  0.00    +0.000 C 
ATOM     19  N   UNL     1      46.227   3.873   7.277  0.00  0.00    +0.000 NA
ATOM     20  H   UNL     1      45.707   4.622   6.813  0.00  0.00    +0.000 HD
ENDBRANCH  11  14
ENDBRANCH   9  10
ENDBRANCH   1   9
BRANCH   4  21
ATOM     21  C   UNL     1      48.403   7.460  13.924  0.00  0.00    +0.000 C 
BRANCH  21  22
ATOM     22  N   UNL     1      49.195   6.746  14.892  0.00  0.00    +0.000 N 
ATOM     23  C   UNL     1      49.255   7.132  16.208  0.00  0.00    +0.000 C 
ATOM     24  O   UNL     1      48.557   8.035  16.662  0.00  0.00    +0.000 OA
ATOM     25  H   UNL     1      49.966   6.204  14.516  0.00  0.00    +0.000 HD
BRANCH  23  26
ATOM     26  C   UNL     1      50.133   6.337  17.071  0.00  0.00    +0.000 A 
ATOM     27  C   UNL     1      49.606   5.640  18.150  0.00  0.00    +0.000 A 
ATOM     28  S   UNL     1      50.766   4.723  18.999  0.00  0.00    +0.000 S 
ATOM     29  C   UNL     1      52.022   5.270  17.991  0.00  0.00    +0.000 A 
ATOM     30  N   UNL     1      53.308   4.867  18.184  0.00  0.00    +0.000 NA
ATOM     31  C   UNL     1      54.158   5.384  17.362  0.00  0.00    +0.000 A 
ATOM     32  N   UNL     1      53.840   6.263  16.359  0.00  0.00    +0.000 N 
ATOM     33  C   UNL     1      52.559   6.677  16.109  0.00  0.00    +0.000 A 
ATOM     34  O   UNL     1      52.294   7.424  15.172  0.00  0.00    +0.000 OA
ATOM     35  C   UNL     1      51.560   6.128  17.010  0.00  0.00    +0.000 A 
ATOM     36  H   UNL     1      54.554   6.624  15.742  0.00  0.00    +0.000 HD
ENDBRANCH  23  26
ENDBRANCH  21  22
ENDBRANCH   4  21
TORSDOF 6
ENDMDL
MODEL 5
REMARK VINA RESULT:    -7.308      3.085      9.218
REMARK INTER + INTRA:         -10.918
REMARK INTER:                  -9.704
REMARK INTRA:                  -1.214
REMARK UNBOUND:                -1.046
REMARK  Name = 
REMARK  7 active torsions:
REMARK  status: ('A' for Active; 'I' for Inactive)
REMARK    1  A    between atoms: C_1  and  C_2
REMARK    2  A    between atoms: C_2  and  N_3
REMARK    3  A    between atoms: C_2  and  C_12
REMARK    4  A    between atoms: C_4  and  C_6
REMARK    5  A    between atoms: C_15  and  C_16
REMARK    6  A    between atoms: C_16  and  N_17
REMARK    7  A    between atoms: C_18  and  C_20
REMARK                            x       y       z     vdW  Elec       q    Type
REMARK                         _______ _______ _______ _____ _____    ______ ____
ROOT
ATOM      1  C   UNL     1      50.048   8.011  14.561  0.00  0.00    +0.000 A 
ATOM      2  C   UNL     1      48.785   8.391  15.048  0.00  0.00    +0.000 A 
ATOM      3  C   UNL     1      47.673   8.447  14.194  0.00  0.00    +0.000 A 
ATOM      4  C   UNL     1      47.796   8.111  12.837  0.00  0.00    +0.000 A 
ATOM      5  C   UNL     1      49.053   7.754  12.356  0.00  0.00    +0.000 A 
ATOM      6  F   UNL     1      49.219   7.466  11.060  0.00  0.00    +0.000 F 
ATOM      7  C   UNL     1      50.157   7.689  13.201  0.00  0.00    +0.000 A 
ENDROOT
BRANCH   1   9
ATOM      8  C   UNL     1      52.568   8.140  14.737  0.00  0.00    +0.000 C 
ATOM      9  C   UNL     1      51.250   7.915  15.494  0.00  0.00    +0.000 C 
BRANCH   9  10
ATOM     10  N   UNL     1      51.222   6.629  16.172  0.00  0.00    +0.000 N 
ATOM     11  C   UNL     1      50.685   6.421  17.424  0.00  0.00    +0.000 C 
ATOM     12  O   UNL     1      50.262   7.315  18.151  0.00  0.00    +0.000 OA
ATOM     13  H   UNL     1      51.334   5.779  15.625  0.00  0.00    +0.000 HD
BRANCH  11  14
ATOM     14  C   UNL     1      50.721   4.940  17.877  0.00  0.00    +0.000 C 
ATOM     15  C   UNL     1      52.138   4.380  17.703  0.00  0.00    +0.000 C 
ATOM     16  C   UNL     1      52.200   2.881  17.995  0.00  0.00    +0.000 C 
ATOM     17  C   UNL     1      51.127   2.135  17.211  0.00  0.00    +0.000 C 
ATOM     18  C   UNL     1      49.752   2.750  17.449  0.00  0.00    +0.000 C 
ATOM     19  N   UNL     1      49.731   4.170  17.079  0.00  0.00    +0.000 NA
ATOM     20  H   UNL     1      48.801   4.540  17.288  0.00  0.00    +0.000 HD
ENDBRANCH  11  14
ENDBRANCH   9  10
ENDBRANCH   1   9
BRANCH   4  21
ATOM     21  C   UNL     1      46.608   8.140  11.914  0.00  0.00    +0.000 C 
BRANCH  21  22
ATOM     22  N   UNL     1      46.145   6.806  11.627  0.00  0.00    +0.000 N 
ATOM     23  C   UNL     1      44.813   6.522  11.457  0.00  0.00    +0.000 C 
ATOM     24  O   UNL     1      43.951   7.396  11.428  0.00  0.00    +0.000 OA
ATOM     25  H   UNL     1      46.763   6.055  11.916  0.00  0.00    +0.000 HD
BRANCH  23  26
ATOM     26  C   UNL     1      44.484   5.115  11.212  0.00  0.00    +0.000 A 
ATOM     27  C   UNL     1      43.712   4.409  12.126  0.00  0.00    +0.000 A 
ATOM     28  S   UNL     1      43.379   2.809  11.642  0.00  0.00    +0.000 S 
ATOM     29  C   UNL     1      44.300   2.984  10.223  0.00  0.00    +0.000 A 
ATOM     30  N   UNL     1      44.443   1.955   9.344  0.00  0.00    +0.000 NA
ATOM     31  C   UNL     1      45.192   2.222   8.326  0.00  0.00    +0.000 A 
ATOM     32  N   UNL     1      45.808   3.428   8.106  0.00  0.00    +0.000 N 
ATOM     33  C   UNL     1      45.672   4.499   8.947  0.00  0.00    +0.000 A 
ATOM     34  O   UNL     1      46.191   5.584   8.698  0.00  0.00    +0.000 OA
ATOM     35  C   UNL     1      44.842   4.252  10.113  0.00  0.00    +0.000 A 
ATOM     36  H   UNL     1      46.374   3.576   7.282  0.00  0.00    +0.000 HD
ENDBRANCH  23  26
ENDBRANCH  21  22
ENDBRANCH   4  21
TORSDOF 6
ENDMDL
MODEL 6
REMARK VINA RESULT:    -6.995      4.614      8.552
REMARK INTER + INTRA:         -10.495
REMARK INTER:                  -9.306
REMARK INTRA:                  -1.188
REMARK UNBOUND:                -1.046
REMARK  Name = 
REMARK  7 active torsions:
REMARK  status: ('A' for Active; 'I' for Inactive)
REMARK    1  A    between atoms: C_1  and  C_2
REMARK    2  A    between atoms: C_2  and  N_3
REMARK    3  A    between atoms: C_2  and  C_12
REMARK    4  A    between atoms: C_4  and  C_6
REMARK    5  A    between atoms: C_15  and  C_16
REMARK    6  A    between atoms: C_16  and  N_17
REMARK    7  A    between atoms: C_18  and  C_20
REMARK                            x       y       z     vdW  Elec       q    Type
REMARK                         _______ _______ _______ _____ _____    ______ ____
ROOT
ATOM      1  C   UNL     1      50.886   8.269  12.608  0.00  0.00    +0.000 A 
ATOM      2  C   UNL     1      50.086   7.877  11.521  0.00  0.00    +0.000 A 
ATOM      3  C   UNL     1      48.694   7.760  11.658  0.00  0.00    +0.000 A 
ATOM      4  C   UNL     1      48.070   8.047  12.882  0.00  0.00    +0.000 A 
ATOM      5  C   UNL     1      48.869   8.415  13.961  0.00  0.00    +0.000 A 
ATOM      6  F   UNL     1      48.316   8.657  15.155  0.00  0.00    +0.000 F 
ATOM      7  C   UNL     1      50.249   8.540  13.828  0.00  0.00    +0.000 A 
ENDROOT
BRANCH   1   9
ATOM      8  C   UNL     1      52.829   9.886  12.673  0.00  0.00    +0.000 C 
ATOM      9  C   UNL     1      52.394   8.430  12.452  0.00  0.00    +0.000 C 
BRANCH   9  10
ATOM     10  N   UNL     1      52.790   7.933  11.144  0.00  0.00    +0.000 N 
ATOM     11  C   UNL     1      53.878   7.118  10.918  0.00  0.00    +0.000 C 
ATOM     12  O   UNL     1      54.695   6.803  11.778  0.00  0.00    +0.000 OA
ATOM     13  H   UNL     1      52.108   7.929  10.389  0.00  0.00    +0.000 HD
BRANCH  11  14
ATOM     14  C   UNL     1      54.027   6.677   9.440  0.00  0.00    +0.000 C 
ATOM     15  C   UNL     1      52.742   7.005   8.670  0.00  0.00    +0.000 C 
ATOM     16  C   UNL     1      52.777   6.459   7.244  0.00  0.00    +0.000 C 
ATOM     17  C   UNL     1      53.154   4.983   7.240  0.00  0.00    +0.000 C 
ATOM     18  C   UNL     1      54.445   4.749   8.017  0.00  0.00    +0.000 C 
ATOM     19  N   UNL     1      54.328   5.222   9.401  0.00  0.00    +0.000 NA
ATOM     20  H   UNL     1      55.227   5.073   9.867  0.00  0.00    +0.000 HD
ENDBRANCH  11  14
ENDBRANCH   9  10
ENDBRANCH   1   9
BRANCH   4  21
ATOM     21  C   UNL     1      46.576   7.953  13.039  0.00  0.00    +0.000 C 
BRANCH  21  22
ATOM     22  N   UNL     1      46.093   6.662  12.623  0.00  0.00    +0.000 N 
ATOM     23  C   UNL     1      44.992   6.524  11.815  0.00  0.00    +0.000 C 
ATOM     24  O   UNL     1      44.422   7.488  11.308  0.00  0.00    +0.000 OA
ATOM     25  H   UNL     1      46.348   5.883  13.222  0.00  0.00    +0.000 HD
BRANCH  23  26
ATOM     26  C   UNL     1      44.589   5.150  11.507  0.00  0.00    +0.000 A 
ATOM     27  C   UNL     1      43.846   4.417  12.424  0.00  0.00    +0.000 A 
ATOM     28  S   UNL     1      43.418   2.865  11.866  0.00  0.00    +0.000 S 
ATOM     29  C   UNL     1      44.256   3.094  10.404  0.00  0.00    +0.000 A 
ATOM     30  N   UNL     1      44.302   2.118   9.456  0.00  0.00    +0.000 NA
ATOM     31  C   UNL     1      44.996   2.420   8.411  0.00  0.00    +0.000 A 
ATOM     32  N   UNL     1      45.647   3.613   8.225  0.00  0.00    +0.000 N 
ATOM     33  C   UNL     1      45.609   4.634   9.136  0.00  0.00    +0.000 A 
ATOM     34  O   UNL     1      46.156   5.711   8.922  0.00  0.00    +0.000 OA
ATOM     35  C   UNL     1      44.842   4.345  10.336  0.00  0.00    +0.000 A 
ATOM     36  H   UNL     1      46.167   3.791   7.377  0.00  0.00    +0.000 HD
ENDBRANCH  23  26
ENDBRANCH  21  22
ENDBRANCH   4  21
TORSDOF 6
ENDMDL
MODEL 7
REMARK VINA RESULT:    -6.725      3.984      6.212
REMARK INTER + INTRA:         -10.130
REMARK INTER:                  -8.980
REMARK INTRA:                  -1.150
REMARK UNBOUND:                -1.046
REMARK  Name = 
REMARK  7 active torsions:
REMARK  status: ('A' for Active; 'I' for Inactive)
REMARK    1  A    between atoms: C_1  and  C_2
REMARK    2  A    between atoms: C_2  and  N_3
REMARK    3  A    between atoms: C_2  and  C_12
REMARK    4  A    between atoms: C_4  and  C_6
REMARK    5  A    between atoms: C_15  and  C_16
REMARK    6  A    between atoms: C_16  and  N_17
REMARK    7  A    between atoms: C_18  and  C_20
REMARK                            x       y       z     vdW  Elec       q    Type
REMARK                         _______ _______ _______ _____ _____    ______ ____
ROOT
ATOM      1  C   UNL     1      48.600   6.554  15.724  0.00  0.00    +0.000 A 
ATOM      2  C   UNL     1      49.376   7.360  16.575  0.00  0.00    +0.000 A 
ATOM      3  C   UNL     1      49.732   6.916  17.858  0.00  0.00    +0.000 A 
ATOM      4  C   UNL     1      49.331   5.650  18.313  0.00  0.00    +0.000 A 
ATOM      5  C   UNL     1      48.545   4.865  17.474  0.00  0.00    +0.000 A 
ATOM      6  F   UNL     1      48.109   3.669  17.886  0.00  0.00    +0.000 F 
ATOM      7  C   UNL     1      48.197   5.297  16.197  0.00  0.00    +0.000 A 
ENDROOT
BRANCH   1   9
ATOM      8  C   UNL     1      48.103   8.547  14.248  0.00  0.00    +0.000 C 
ATOM      9  C   UNL     1      48.242   7.019  14.317  0.00  0.00    +0.000 C 
BRANCH   9  10
ATOM     10  N   UNL     1      47.028   6.341  13.889  0.00  0.00    +0.000 N 
ATOM     11  C   UNL     1      46.655   6.170  12.573  0.00  0.00    +0.000 C 
ATOM     12  O   UNL     1      47.250   6.660  11.618  0.00  0.00    +0.000 OA
ATOM     13  H   UNL     1      46.560   5.711  14.536  0.00  0.00    +0.000 HD
BRANCH  11  14
ATOM     14  C   UNL     1      45.354   5.347  12.399  0.00  0.00    +0.000 C 
ATOM     15  C   UNL     1      44.971   5.289  10.916  0.00  0.00    +0.000 C 
ATOM     16  C   UNL     1      43.617   4.616  10.701  0.00  0.00    +0.000 C 
ATOM     17  C   UNL     1      42.557   5.238  11.601  0.00  0.00    +0.000 C 
ATOM     18  C   UNL     1      43.013   5.245  13.056  0.00  0.00    +0.000 C 
ATOM     19  N   UNL     1      44.279   5.971  13.214  0.00  0.00    +0.000 NA
ATOM     20  H   UNL     1      44.557   5.918  14.197  0.00  0.00    +0.000 HD
ENDBRANCH  11  14
ENDBRANCH   9  10
ENDBRANCH   1   9
BRANCH   4  21
ATOM     21  C   UNL     1      49.726   5.148  19.675  0.00  0.00    +0.000 C 
BRANCH  21  22
ATOM     22  N   UNL     1      50.821   4.217  19.584  0.00  0.00    +0.000 N 
ATOM     23  C   UNL     1      52.126   4.635  19.519  0.00  0.00    +0.000 C 
ATOM     24  O   UNL     1      52.447   5.815  19.647  0.00  0.00    +0.000 OA
ATOM     25  H   UNL     1      50.591   3.303  19.205  0.00  0.00    +0.000 HD
BRANCH  23  26
ATOM     26  C   UNL     1      53.134   3.579  19.387  0.00  0.00    +0.000 A 
ATOM     27  C   UNL     1      54.333   3.668  20.082  0.00  0.00    +0.000 A 
ATOM     28  S   UNL     1      55.351   2.320  19.854  0.00  0.00    +0.000 S 
ATOM     29  C   UNL     1      54.252   1.598  18.775  0.00  0.00    +0.000 A 
ATOM     30  N   UNL     1      54.525   0.400  18.187  0.00  0.00    +0.000 NA
ATOM     31  C   UNL     1      53.614  -0.013  17.371  0.00  0.00    +0.000 A 
ATOM     32  N   UNL     1      52.452   0.661  17.092  0.00  0.00    +0.000 N 
ATOM     33  C   UNL     1      52.123   1.854  17.677  0.00  0.00    +0.000 A 
ATOM     34  O   UNL     1      51.052   2.410  17.449  0.00  0.00    +0.000 OA
ATOM     35  C   UNL     1      53.116   2.368  18.603  0.00  0.00    +0.000 A 
ATOM     36  H   UNL     1      51.774   0.277  16.449  0.00  0.00    +0.000 HD
ENDBRANCH  23  26
ENDBRANCH  21  22
ENDBRANCH   4  21
TORSDOF 6
ENDMDL
MODEL 8
REMARK VINA RESULT:    -6.661      3.525     10.003
REMARK INTER + INTRA:         -10.044
REMARK INTER:                  -8.913
REMARK INTRA:                  -1.131
REMARK UNBOUND:                -1.046
REMARK  Name = 
REMARK  7 active torsions:
REMARK  status: ('A' for Active; 'I' for Inactive)
REMARK    1  A    between atoms: C_1  and  C_2
REMARK    2  A    between atoms: C_2  and  N_3
REMARK    3  A    between atoms: C_2  and  C_12
REMARK    4  A    between atoms: C_4  and  C_6
REMARK    5  A    between atoms: C_15  and  C_16
REMARK    6  A    between atoms: C_16  and  N_17
REMARK    7  A    between atoms: C_18  and  C_20
REMARK                            x       y       z     vdW  Elec       q    Type
REMARK                         _______ _______ _______ _____ _____    ______ ____
ROOT
ATOM      1  C   UNL     1      46.337   7.146  13.076  0.00  0.00    +0.000 A 
ATOM      2  C   UNL     1      46.790   5.859  13.418  0.00  0.00    +0.000 A 
ATOM      3  C   UNL     1      46.065   4.719  13.039  0.00  0.00    +0.000 A 
ATOM      4  C   UNL     1      44.879   4.839  12.299  0.00  0.00    +0.000 A 
ATOM      5  C   UNL     1      44.425   6.116  11.980  0.00  0.00    +0.000 A 
ATOM      6  F   UNL     1      43.278   6.274  11.310  0.00  0.00    +0.000 F 
ATOM      7  C   UNL     1      45.145   7.250  12.346  0.00  0.00    +0.000 A 
ENDROOT
BRANCH   1   9
ATOM      8  C   UNL     1      47.635   9.137  12.213  0.00  0.00    +0.000 C 
ATOM      9  C   UNL     1      47.141   8.385  13.456  0.00  0.00    +0.000 C 
BRANCH   9  10
ATOM     10  N   UNL     1      48.236   7.989  14.328  0.00  0.00    +0.000 N 
ATOM     11  C   UNL     1      48.463   8.515  15.581  0.00  0.00    +0.000 C 
ATOM     12  O   UNL     1      47.828   9.448  16.063  0.00  0.00    +0.000 OA
ATOM     13  H   UNL     1      48.703   7.100  14.162  0.00  0.00    +0.000 HD
BRANCH  11  14
ATOM     14  C   UNL     1      49.656   7.861  16.321  0.00  0.00    +0.000 C 
ATOM     15  C   UNL     1      49.560   6.335  16.214  0.00  0.00    +0.000 C 
ATOM     16  C   UNL     1      50.629   5.634  17.051  0.00  0.00    +0.000 C 
ATOM     17  C   UNL     1      50.630   6.167  18.479  0.00  0.00    +0.000 C 
ATOM     18  C   UNL     1      50.740   7.687  18.493  0.00  0.00    +0.000 C 
ATOM     19  N   UNL     1      49.644   8.308  17.739  0.00  0.00    +0.000 NA
ATOM     20  H   UNL     1      49.783   9.322  17.751  0.00  0.00    +0.000 HD
ENDBRANCH  11  14
ENDBRANCH   9  10
ENDBRANCH   1   9
BRANCH   4  21
ATOM     21  C   UNL     1      44.104   3.625  11.861  0.00  0.00    +0.000 C 
BRANCH  21  22
ATOM     22  N   UNL     1      44.848   2.859  10.895  0.00  0.00    +0.000 N 
ATOM     23  C   UNL     1      44.699   3.054   9.544  0.00  0.00    +0.000 C 
ATOM     24  O   UNL     1      44.014   3.963   9.081  0.00  0.00    +0.000 OA
ATOM     25  H   UNL     1      45.184   1.956  11.214  0.00  0.00    +0.000 HD
BRANCH  23  26
ATOM     26  C   UNL     1      45.487   2.174   8.678  0.00  0.00    +0.000 A 
ATOM     27  C   UNL     1      45.356   0.794   8.779  0.00  0.00    +0.000 A 
ATOM     28  S   UNL     1      46.303  -0.062   7.649  0.00  0.00    +0.000 S 
ATOM     29  C   UNL     1      46.964   1.374   7.024  0.00  0.00    +0.000 A 
ATOM     30  N   UNL     1      47.879   1.350   6.017  0.00  0.00    +0.000 NA
ATOM     31  C   UNL     1      48.314   2.512   5.662  0.00  0.00    +0.000 A 
ATOM     32  N   UNL     1      47.914   3.699   6.221  0.00  0.00    +0.000 N 
ATOM     33  C   UNL     1      46.978   3.776   7.218  0.00  0.00    +0.000 A 
ATOM     34  O   UNL     1      46.599   4.855   7.664  0.00  0.00    +0.000 OA
ATOM     35  C   UNL     1      46.457   2.494   7.658  0.00  0.00    +0.000 A 
ATOM     36  H   UNL     1      48.287   4.579   5.891  0.00  0.00    +0.000 HD
ENDBRANCH  23  26
ENDBRANCH  21  22
ENDBRANCH   4  21
TORSDOF 6
ENDMDL
MODEL 9
REMARK VINA RESULT:    -6.598      3.885      9.204
REMARK INTER + INTRA:          -9.959
REMARK INTER:                 -10.034
REMARK INTRA:                   0.075
REMARK UNBOUND:                -1.046
REMARK  Name = 
REMARK  7 active torsions:
REMARK  status: ('A' for Active; 'I' for Inactive)
REMARK    1  A    between atoms: C_1  and  C_2
REMARK    2  A    between atoms: C_2  and  N_3
REMARK    3  A    between atoms: C_2  and  C_12
REMARK    4  A    between atoms: C_4  and  C_6
REMARK    5  A    between atoms: C_15  and  C_16
REMARK    6  A    between atoms: C_16  and  N_17
REMARK    7  A    between atoms: C_18  and  C_20
REMARK                            x       y       z     vdW  Elec       q    Type
REMARK                         _______ _______ _______ _____ _____    ______ ____
ROOT
ATOM      1  C   UNL     1      48.946   4.714  17.340  0.00  0.00    +0.000 A 
ATOM      2  C   UNL     1      49.644   5.892  17.023  0.00  0.00    +0.000 A 
ATOM      3  C   UNL     1      49.312   6.638  15.881  0.00  0.00    +0.000 A 
ATOM      4  C   UNL     1      48.266   6.230  15.039  0.00  0.00    +0.000 A 
ATOM      5  C   UNL     1      47.592   5.051  15.347  0.00  0.00    +0.000 A 
ATOM      6  F   UNL     1      46.616   4.607  14.547  0.00  0.00    +0.000 F 
ATOM      7  C   UNL     1      47.912   4.312  16.483  0.00  0.00    +0.000 A 
ENDROOT
BRANCH   1   9
ATOM      8  C   UNL     1      49.052   4.755  19.867  0.00  0.00    +0.000 C 
ATOM      9  C   UNL     1      49.281   3.921  18.598  0.00  0.00    +0.000 C 
BRANCH   9  10
ATOM     10  N   UNL     1      50.650   3.437  18.502  0.00  0.00    +0.000 N 
ATOM     11  C   UNL     1      51.059   2.421  17.665  0.00  0.00    +0.000 C 
ATOM     12  O   UNL     1      50.299   1.742  16.982  0.00  0.00    +0.000 OA
ATOM     13  H   UNL     1      51.407   4.028  18.835  0.00  0.00    +0.000 HD
BRANCH  11  14
ATOM     14  C   UNL     1      52.585   2.157  17.710  0.00  0.00    +0.000 C 
ATOM     15  C   UNL     1      52.867   0.687  17.381  0.00  0.00    +0.000 C 
ATOM     16  C   UNL     1      54.343   0.335  17.555  0.00  0.00    +0.000 C 
ATOM     17  C   UNL     1      54.845   0.781  18.923  0.00  0.00    +0.000 C 
ATOM     18  C   UNL     1      54.534   2.254  19.163  0.00  0.00    +0.000 C 
ATOM     19  N   UNL     1      53.095   2.519  19.059  0.00  0.00    +0.000 NA
ATOM     20  H   UNL     1      52.944   3.522  19.195  0.00  0.00    +0.000 HD
ENDBRANCH  11  14
ENDBRANCH   9  10
ENDBRANCH   1   9
BRANCH   4  21
ATOM     21  C   UNL     1      47.880   7.032  13.826  0.00  0.00    +0.000 C 
BRANCH  21  22
ATOM     22  N   UNL     1      47.305   6.188  12.811  0.00  0.00    +0.000 N 
ATOM     23  C   UNL     1      46.100   6.480  12.221  0.00  0.00    +0.000 C 
ATOM     24  O   UNL     1      45.497   7.528  12.439  0.00  0.00    +0.000 OA
ATOM     25  H   UNL     1      47.614   5.221  12.815  0.00  0.00    +0.000 HD
BRANCH  23  26
ATOM     26  C   UNL     1      45.616   5.511  11.234  0.00  0.00    +0.000 A 
ATOM     27  C   UNL     1      45.899   5.688   9.886  0.00  0.00    +0.000 A 
ATOM     28  S   UNL     1      45.310   4.429   8.898  0.00  0.00    +0.000 S 
ATOM     29  C   UNL     1      44.609   3.634  10.227  0.00  0.00    +0.000 A 
ATOM     30  N   UNL     1      43.921   2.470  10.070  0.00  0.00    +0.000 NA
ATOM     31  C   UNL     1      43.420   1.994  11.161  0.00  0.00    +0.000 A 
ATOM     32  N   UNL     1      43.548   2.575  12.397  0.00  0.00    +0.000 N 
ATOM     33  C   UNL     1      44.251   3.730  12.609  0.00  0.00    +0.000 A 
ATOM     34  O   UNL     1      44.395   4.200  13.734  0.00  0.00    +0.000 OA
ATOM     35  C   UNL     1      44.834   4.312  11.412  0.00  0.00    +0.000 A 
ATOM     36  H   UNL     1      43.139   2.145  13.215  0.00  0.00    +0.000 HD
ENDBRANCH  23  26
ENDBRANCH  21  22
ENDBRANCH   4  21
TORSDOF 6
ENDMDL
