MODEL 1
REMARK VINA RESULT:    -7.968      0.000      0.000
REMARK INTER + INTRA:         -12.161
REMARK INTER:                 -10.995
REMARK INTRA:                  -1.166
REMARK UNBOUND:                -1.166
REMARK  Name = 
REMARK  7 active torsions:
REMARK  status: ('A' for Active; 'I' for Inactive)
REMARK    1  A    between atoms: N_1  and  C_2
REMARK    2  A    between atoms: C_2  and  C_3
REMARK    3  A    between atoms: C_6  and  O_7
REMARK    4  A    between atoms: O_7  and  C_8
REMARK    5  A    between atoms: C_8  and  C_9
REMARK    6  A    between atoms: C_11  and  C_12
REMARK    7  A    between atoms: C_17  and  C_18
REMARK                            x       y       z     vdW  Elec       q    Type
REMARK                         _______ _______ _______ _____ _____    ______ ____
ROOT
ATOM      1  C   UNL     1      44.316   4.987  11.920  0.00  0.00    +0.000 A 
ATOM      2  C   UNL     1      45.161   4.409  12.880  0.00  0.00    +0.000 A 
ATOM      3  C   UNL     1      46.089   5.181  13.592  0.00  0.00    +0.000 A 
ATOM      4  C   UNL     1      46.169   6.557  13.325  0.00  0.00    +0.000 A 
ATOM      5  C   UNL     1      45.346   7.155  12.355  0.00  0.00    +0.000 A 
ATOM      6  C   UNL     1      44.419   6.359  11.661  0.00  0.00    +0.000 A 
ENDROOT
BRANCH   3   7
ATOM      7  C   UNL     1      47.000   4.545  14.615  0.00  0.00    +0.000 C 
ATOM      8  F   UNL     1      46.409   4.363  15.830  0.00  0.00    +0.000 F 
ATOM      9  F   UNL     1      47.433   3.314  14.226  0.00  0.00    +0.000 F 
ATOM     10  F   UNL     1      48.118   5.283  14.849  0.00  0.00    +0.000 F 
ENDBRANCH   3   7
BRANCH   5  11
ATOM     11  C   UNL     1      45.457   8.626  12.031  0.00  0.00    +0.000 C 
ATOM     12  F   UNL     1      44.725   8.997  10.944  0.00  0.00    +0.000 F 
ATOM     13  F   UNL     1      45.027   9.414  13.055  0.00  0.00    +0.000 F 
ATOM     14  F   UNL     1      46.736   9.011  11.771  0.00  0.00    +0.000 F 
ENDBRANCH   5  11
BRANCH   1  15
ATOM     15  C   UNL     1      43.391   4.092  11.130  0.00  0.00    +0.000 C 
BRANCH  15  16
ATOM     16  O   UNL     1      43.501   4.321   9.723  0.00  0.00    +0.000 OA
BRANCH  16  20
ATOM     17  C   UNL     1      46.544   2.323   7.668  0.00  0.00    +0.000 A 
ATOM     18  C   UNL     1      46.405   3.718   7.618  0.00  0.00    +0.000 A 
ATOM     19  C   UNL     1      45.400   4.362   8.348  0.00  0.00    +0.000 A 
ATOM     20  C   UNL     1      44.514   3.616   9.124  0.00  0.00    +0.000 A 
ATOM     21  C   UNL     1      44.690   2.234   9.230  0.00  0.00    +0.000 A 
ATOM     22  C   UNL     1      45.687   1.591   8.495  0.00  0.00    +0.000 A 
BRANCH  17  23
ATOM     23  C   UNL     1      47.572   1.616   6.824  0.00  0.00    +0.000 C 
BRANCH  23  24
ATOM     24  N   UNL     1      48.626   2.520   6.390  0.00  0.00    +0.000 NA
ATOM     25  H   UNL     1      48.222   3.437   6.213  0.00  0.00    +0.000 HD
ATOM     26  H   UNL     1      48.996   2.189   5.501  0.00  0.00    +0.000 HD
ENDBRANCH  23  24
ENDBRANCH  17  23
ENDBRANCH  16  20
ENDBRANCH  15  16
ENDBRANCH   1  15
TORSDOF 7
ENDMDL
MODEL 2
REMARK VINA RESULT:    -7.938      0.113      3.564
REMARK INTER + INTRA:         -12.120
REMARK INTER:                 -10.966
REMARK INTRA:                  -1.155
REMARK UNBOUND:                -1.166
REMARK  Name = 
REMARK  7 active torsions:
REMARK  status: ('A' for Active; 'I' for Inactive)
REMARK    1  A    between atoms: N_1  and  C_2
REMARK    2  A    between atoms: C_2  and  C_3
REMARK    3  A    between atoms: C_6  and  O_7
REMARK    4  A    between atoms: O_7  and  C_8
REMARK    5  A    between atoms: C_8  and  C_9
REMARK    6  A    between atoms: C_11  and  C_12
REMARK    7  A    between atoms: C_17  and  C_18
REMARK                            x       y       z     vdW  Elec       q    Type
REMARK                         _______ _______ _______ _____ _____    ______ ____
ROOT
ATOM      1  C   UNL     1      44.481   4.874  11.890  0.00  0.00    +0.000 A 
ATOM      2  C   UNL     1      44.563   6.252  11.637  0.00  0.00    +0.000 A 
ATOM      3  C   UNL     1      45.452   7.071  12.345  0.00  0.00    +0.000 A 
ATOM      4  C   UNL     1      46.266   6.490  13.330  0.00  0.00    +0.000 A 
ATOM      5  C   UNL     1      46.189   5.116  13.614  0.00  0.00    +0.000 A 
ATOM      6  C   UNL     1      45.295   4.317  12.884  0.00  0.00    +0.000 A 
ENDROOT
BRANCH   3   7
ATOM      7  C   UNL     1      45.523   8.555  12.070  0.00  0.00    +0.000 C 
ATOM      8  F   UNL     1      45.110   9.322  13.119  0.00  0.00    +0.000 F 
ATOM      9  F   UNL     1      46.789   8.968  11.787  0.00  0.00    +0.000 F 
ATOM     10  F   UNL     1      44.758   8.927  11.010  0.00  0.00    +0.000 F 
ENDBRANCH   3   7
BRANCH   5  11
ATOM     11  C   UNL     1      47.030   4.492  14.703  0.00  0.00    +0.000 C 
ATOM     12  F   UNL     1      48.141   5.218  15.010  0.00  0.00    +0.000 F 
ATOM     13  F   UNL     1      46.343   4.352  15.870  0.00  0.00    +0.000 F 
ATOM     14  F   UNL     1      47.475   3.248  14.376  0.00  0.00    +0.000 F 
ENDBRANCH   5  11
BRANCH   1  15
ATOM     15  C   UNL     1      43.450   4.056  11.149  0.00  0.00    +0.000 C 
BRANCH  15  16
ATOM     16  O   UNL     1      43.515   4.272   9.737  0.00  0.00    +0.000 OA
BRANCH  16  20
ATOM     17  C   UNL     1      46.547   2.328   7.616  0.00  0.00    +0.000 A 
ATOM     18  C   UNL     1      46.370   3.718   7.554  0.00  0.00    +0.000 A 
ATOM     19  C   UNL     1      45.371   4.345   8.305  0.00  0.00    +0.000 A 
ATOM     20  C   UNL     1      44.528   3.586   9.116  0.00  0.00    +0.000 A 
ATOM     21  C   UNL     1      44.744   2.211   9.235  0.00  0.00    +0.000 A 
ATOM     22  C   UNL     1      45.735   1.585   8.478  0.00  0.00    +0.000 A 
BRANCH  17  23
ATOM     23  C   UNL     1      47.569   1.637   6.751  0.00  0.00    +0.000 C 
BRANCH  23  24
ATOM     24  N   UNL     1      48.621   2.549   6.328  0.00  0.00    +0.000 NA
ATOM     25  H   UNL     1      48.666   2.553   5.311  0.00  0.00    +0.000 HD
ATOM     26  H   UNL     1      49.516   2.192   6.657  0.00  0.00    +0.000 HD
ENDBRANCH  23  24
ENDBRANCH  17  23
ENDBRANCH  16  20
ENDBRANCH  15  16
ENDBRANCH   1  15
TORSDOF 7
ENDMDL
MODEL 3
REMARK VINA RESULT:    -7.732      1.205      1.966
REMARK INTER + INTRA:         -11.836
REMARK INTER:                 -10.825
REMARK INTRA:                  -1.011
REMARK UNBOUND:                -1.166
REMARK  Name = 
REMARK  7 active torsions:
REMARK  status: ('A' for Active; 'I' for Inactive)
REMARK    1  A    between atoms: N_1  and  C_2
REMARK    2  A    between atoms: C_2  and  C_3
REMARK    3  A    between atoms: C_6  and  O_7
REMARK    4  A    between atoms: O_7  and  C_8
REMARK    5  A    between atoms: C_8  and  C_9
REMARK    6  A    between atoms: C_11  and  C_12
REMARK    7  A    between atoms: C_17  and  C_18
REMARK                            x       y       z     vdW  Elec       q    Type
REMARK                         _______ _______ _______ _____ _____    ______ ____
ROOT
ATOM      1  C   UNL     1      45.418   4.822  12.428  0.00  0.00    +0.000 A 
ATOM      2  C   UNL     1      45.868   4.237  13.622  0.00  0.00    +0.000 A 
ATOM      3  C   UNL     1      46.930   4.791  14.349  0.00  0.00    +0.000 A 
ATOM      4  C   UNL     1      47.553   5.950  13.857  0.00  0.00    +0.000 A 
ATOM      5  C   UNL     1      47.132   6.543  12.654  0.00  0.00    +0.000 A 
ATOM      6  C   UNL     1      46.059   5.971  11.950  0.00  0.00    +0.000 A 
ENDROOT
BRANCH   3   7
ATOM      7  C   UNL     1      47.412   4.147  15.626  0.00  0.00    +0.000 C 
ATOM      8  F   UNL     1      47.868   2.873  15.454  0.00  0.00    +0.000 F 
ATOM      9  F   UNL     1      48.441   4.834  16.195  0.00  0.00    +0.000 F 
ATOM     10  F   UNL     1      46.439   4.072  16.573  0.00  0.00    +0.000 F 
ENDBRANCH   3   7
BRANCH   5  11
ATOM     11  C   UNL     1      47.825   7.763  12.097  0.00  0.00    +0.000 C 
ATOM     12  F   UNL     1      46.965   8.757  11.739  0.00  0.00    +0.000 F 
ATOM     13  F   UNL     1      48.686   8.322  12.992  0.00  0.00    +0.000 F 
ATOM     14  F   UNL     1      48.561   7.488  10.986  0.00  0.00    +0.000 F 
ENDBRANCH   5  11
BRANCH   1  15
ATOM     15  C   UNL     1      44.319   4.137  11.650  0.00  0.00    +0.000 C 
BRANCH  15  16
ATOM     16  O   UNL     1      44.221   4.638  10.314  0.00  0.00    +0.000 OA
BRANCH  16  20
ATOM     17  C   UNL     1      46.372   2.185   7.701  0.00  0.00    +0.000 A 
ATOM     18  C   UNL     1      45.530   1.658   8.692  0.00  0.00    +0.000 A 
ATOM     19  C   UNL     1      44.793   2.504   9.527  0.00  0.00    +0.000 A 
ATOM     20  C   UNL     1      44.901   3.888   9.389  0.00  0.00    +0.000 A 
ATOM     21  C   UNL     1      45.685   4.417   8.360  0.00  0.00    +0.000 A 
ATOM     22  C   UNL     1      46.427   3.572   7.533  0.00  0.00    +0.000 A 
BRANCH  17  23
ATOM     23  C   UNL     1      47.228   1.282   6.851  0.00  0.00    +0.000 C 
BRANCH  23  24
ATOM     24  N   UNL     1      48.493   1.912   6.503  0.00  0.00    +0.000 NA
ATOM     25  H   UNL     1      48.725   1.676   5.540  0.00  0.00    +0.000 HD
ATOM     26  H   UNL     1      49.228   1.514   7.085  0.00  0.00    +0.000 HD
ENDBRANCH  23  24
ENDBRANCH  17  23
ENDBRANCH  16  20
ENDBRANCH  15  16
ENDBRANCH   1  15
TORSDOF 7
ENDMDL
MODEL 4
REMARK VINA RESULT:    -7.510      1.696      2.229
REMARK INTER + INTRA:         -11.530
REMARK INTER:                 -10.456
REMARK INTRA:                  -1.074
REMARK UNBOUND:                -1.166
REMARK  Name = 
REMARK  7 active torsions:
REMARK  status: ('A' for Active; 'I' for Inactive)
REMARK    1  A    between atoms: N_1  and  C_2
REMARK    2  A    between atoms: C_2  and  C_3
REMARK    3  A    between atoms: C_6  and  O_7
REMARK    4  A    between atoms: O_7  and  C_8
REMARK    5  A    between atoms: C_8  and  C_9
REMARK    6  A    between atoms: C_11  and  C_12
REMARK    7  A    between atoms: C_17  and  C_18
REMARK                            x       y       z     vdW  Elec       q    Type
REMARK                         _______ _______ _______ _____ _____    ______ ____
ROOT
ATOM      1  C   UNL     1      44.756   5.833  11.531  0.00  0.00    +0.000 A 
ATOM      2  C   UNL     1      46.106   5.914  11.908  0.00  0.00    +0.000 A 
ATOM      3  C   UNL     1      46.749   7.151  12.048  0.00  0.00    +0.000 A 
ATOM      4  C   UNL     1      46.020   8.324  11.798  0.00  0.00    +0.000 A 
ATOM      5  C   UNL     1      44.673   8.268  11.402  0.00  0.00    +0.000 A 
ATOM      6  C   UNL     1      44.050   7.015  11.276  0.00  0.00    +0.000 A 
ENDROOT
BRANCH   3   7
ATOM      7  C   UNL     1      48.205   7.224  12.444  0.00  0.00    +0.000 C 
ATOM      8  F   UNL     1      48.720   6.026  12.845  0.00  0.00    +0.000 F 
ATOM      9  F   UNL     1      48.998   7.643  11.419  0.00  0.00    +0.000 F 
ATOM     10  F   UNL     1      48.425   8.089  13.470  0.00  0.00    +0.000 F 
ENDBRANCH   3   7
BRANCH   5  11
ATOM     11  C   UNL     1      43.895   9.523  11.087  0.00  0.00    +0.000 C 
ATOM     12  F   UNL     1      44.405  10.227  10.039  0.00  0.00    +0.000 F 
ATOM     13  F   UNL     1      42.599   9.260  10.762  0.00  0.00    +0.000 F 
ATOM     14  F   UNL     1      43.852  10.391  12.135  0.00  0.00    +0.000 F 
ENDBRANCH   5  11
BRANCH   1  15
ATOM     15  C   UNL     1      44.138   4.471  11.321  0.00  0.00    +0.000 C 
BRANCH  15  16
ATOM     16  O   UNL     1      43.781   4.253   9.954  0.00  0.00    +0.000 OA
BRANCH  16  20
ATOM     17  C   UNL     1      46.605   2.338   7.538  0.00  0.00    +0.000 A 
ATOM     18  C   UNL     1      46.434   3.731   7.522  0.00  0.00    +0.000 A 
ATOM     19  C   UNL     1      45.508   4.347   8.370  0.00  0.00    +0.000 A 
ATOM     20  C   UNL     1      44.732   3.575   9.234  0.00  0.00    +0.000 A 
ATOM     21  C   UNL     1      44.946   2.196   9.303  0.00  0.00    +0.000 A 
ATOM     22  C   UNL     1      45.864   1.581   8.450  0.00  0.00    +0.000 A 
BRANCH  17  23
ATOM     23  C   UNL     1      47.543   1.661   6.573  0.00  0.00    +0.000 C 
BRANCH  23  24
ATOM     24  N   UNL     1      48.686   2.503   6.254  0.00  0.00    +0.000 NA
ATOM     25  H   UNL     1      48.425   3.478   6.381  0.00  0.00    +0.000 HD
ATOM     26  H   UNL     1      48.910   2.389   5.266  0.00  0.00    +0.000 HD
ENDBRANCH  23  24
ENDBRANCH  17  23
ENDBRANCH  16  20
ENDBRANCH  15  16
ENDBRANCH   1  15
TORSDOF 7
ENDMDL
MODEL 5
REMARK VINA RESULT:    -7.190      1.399      3.946
REMARK INTER + INTRA:         -11.088
REMARK INTER:                 -10.183
REMARK INTRA:                  -0.905
REMARK UNBOUND:                -1.166
REMARK  Name = 
REMARK  7 active torsions:
REMARK  status: ('A' for Active; 'I' for Inactive)
REMARK    1  A    between atoms: N_1  and  C_2
REMARK    2  A    between atoms: C_2  and  C_3
REMARK    3  A    between atoms: C_6  and  O_7
REMARK    4  A    between atoms: O_7  and  C_8
REMARK    5  A    between atoms: C_8  and  C_9
REMARK    6  A    between atoms: C_11  and  C_12
REMARK    7  A    between atoms: C_17  and  C_18
REMARK                            x       y       z     vdW  Elec       q    Type
REMARK                         _______ _______ _______ _____ _____    ______ ____
ROOT
ATOM      1  C   UNL     1      45.874   4.494  12.755  0.00  0.00    +0.000 A 
ATOM      2  C   UNL     1      46.355   5.691  12.201  0.00  0.00    +0.000 A 
ATOM      3  C   UNL     1      47.294   6.481  12.878  0.00  0.00    +0.000 A 
ATOM      4  C   UNL     1      47.749   6.059  14.137  0.00  0.00    +0.000 A 
ATOM      5  C   UNL     1      47.268   4.874  14.720  0.00  0.00    +0.000 A 
ATOM      6  C   UNL     1      46.333   4.097  14.017  0.00  0.00    +0.000 A 
ENDROOT
BRANCH   3   7
ATOM      7  C   UNL     1      47.795   7.772  12.276  0.00  0.00    +0.000 C 
ATOM      8  F   UNL     1      48.570   8.503  13.127  0.00  0.00    +0.000 F 
ATOM      9  F   UNL     1      48.559   7.563  11.168  0.00  0.00    +0.000 F 
ATOM     10  F   UNL     1      46.785   8.596  11.889  0.00  0.00    +0.000 F 
ENDBRANCH   3   7
BRANCH   5  11
ATOM     11  C   UNL     1      47.719   4.437  16.094  0.00  0.00    +0.000 C 
ATOM     12  F   UNL     1      48.131   3.139  16.140  0.00  0.00    +0.000 F 
ATOM     13  F   UNL     1      48.768   5.175  16.552  0.00  0.00    +0.000 F 
ATOM     14  F   UNL     1      46.739   4.552  17.030  0.00  0.00    +0.000 F 
ENDBRANCH   5  11
BRANCH   1  15
ATOM     15  C   UNL     1      44.807   3.725  12.013  0.00  0.00    +0.000 C 
BRANCH  15  16
ATOM     16  O   UNL     1      44.413   4.387  10.809  0.00  0.00    +0.000 OA
BRANCH  16  20
ATOM     17  C   UNL     1      46.289   2.617   7.520  0.00  0.00    +0.000 A 
ATOM     18  C   UNL     1      45.643   1.856   8.507  0.00  0.00    +0.000 A 
ATOM     19  C   UNL     1      44.991   2.479   9.575  0.00  0.00    +0.000 A 
ATOM     20  C   UNL     1      44.989   3.869   9.677  0.00  0.00    +0.000 A 
ATOM     21  C   UNL     1      45.571   4.633   8.662  0.00  0.00    +0.000 A 
ATOM     22  C   UNL     1      46.230   4.011   7.601  0.00  0.00    +0.000 A 
BRANCH  17  23
ATOM     23  C   UNL     1      47.060   1.952   6.410  0.00  0.00    +0.000 C 
BRANCH  23  24
ATOM     24  N   UNL     1      48.391   1.553   6.842  0.00  0.00    +0.000 NA
ATOM     25  H   UNL     1      48.988   2.377   6.874  0.00  0.00    +0.000 HD
ATOM     26  H   UNL     1      48.791   0.932   6.141  0.00  0.00    +0.000 HD
ENDBRANCH  23  24
ENDBRANCH  17  23
ENDBRANCH  16  20
ENDBRANCH  15  16
ENDBRANCH   1  15
TORSDOF 7
ENDMDL
MODEL 6
REMARK VINA RESULT:    -6.400      4.282      6.805
REMARK INTER + INTRA:          -9.998
REMARK INTER:                  -9.162
REMARK INTRA:                  -0.836
REMARK UNBOUND:                -1.166
REMARK  Name = 
REMARK  7 active torsions:
REMARK  status: ('A' for Active; 'I' for Inactive)
REMARK    1  A    between atoms: N_1  and  C_2
REMARK    2  A    between atoms: C_2  and  C_3
REMARK    3  A    between atoms: C_6  and  O_7
REMARK    4  A    between atoms: O_7  and  C_8
REMARK    5  A    between atoms: C_8  and  C_9
REMARK    6  A    between atoms: C_11  and  C_12
REMARK    7  A    between atoms: C_17  and  C_18
REMARK                            x       y       z     vdW  Elec       q    Type
REMARK                         _______ _______ _______ _____ _____    ______ ____
ROOT
ATOM      1  C   UNL     1      46.322   4.706  13.402  0.00  0.00    +0.000 A 
ATOM      2  C   UNL     1      45.201   4.297  12.663  0.00  0.00    +0.000 A 
ATOM      3  C   UNL     1      44.403   5.223  11.978  0.00  0.00    +0.000 A 
ATOM      4  C   UNL     1      44.738   6.585  12.047  0.00  0.00    +0.000 A 
ATOM      5  C   UNL     1      45.844   7.020  12.796  0.00  0.00    +0.000 A 
ATOM      6  C   UNL     1      46.632   6.070  13.466  0.00  0.00    +0.000 A 
ENDROOT
BRANCH   3   7
ATOM      7  C   UNL     1      43.193   4.771  11.195  0.00  0.00    +0.000 C 
ATOM      8  F   UNL     1      42.120   5.602  11.327  0.00  0.00    +0.000 F 
ATOM      9  F   UNL     1      43.441   4.696   9.859  0.00  0.00    +0.000 F 
ATOM     10  F   UNL     1      42.760   3.537  11.569  0.00  0.00    +0.000 F 
ENDBRANCH   3   7
BRANCH   5  11
ATOM     11  C   UNL     1      46.185   8.487  12.910  0.00  0.00    +0.000 C 
ATOM     12  F   UNL     1      46.912   8.957  11.859  0.00  0.00    +0.000 F 
ATOM     13  F   UNL     1      45.074   9.272  12.973  0.00  0.00    +0.000 F 
ATOM     14  F   UNL     1      46.911   8.773  14.025  0.00  0.00    +0.000 F 
ENDBRANCH   5  11
BRANCH   1  15
ATOM     15  C   UNL     1      47.099   3.672  14.181  0.00  0.00    +0.000 C 
BRANCH  15  16
ATOM     16  O   UNL     1      46.873   3.784  15.588  0.00  0.00    +0.000 OA
BRANCH  16  20
ATOM     17  C   UNL     1      50.452   3.673  17.745  0.00  0.00    +0.000 A 
ATOM     18  C   UNL     1      49.787   4.877  17.469  0.00  0.00    +0.000 A 
ATOM     19  C   UNL     1      48.571   4.879  16.778  0.00  0.00    +0.000 A 
ATOM     20  C   UNL     1      48.013   3.678  16.344  0.00  0.00    +0.000 A 
ATOM     21  C   UNL     1      48.636   2.471  16.675  0.00  0.00    +0.000 A 
ATOM     22  C   UNL     1      49.854   2.470  17.357  0.00  0.00    +0.000 A 
BRANCH  17  23
ATOM     23  C   UNL     1      51.799   3.668  18.419  0.00  0.00    +0.000 C 
BRANCH  23  24
ATOM     24  N   UNL     1      52.334   2.320  18.544  0.00  0.00    +0.000 NA
ATOM     25  H   UNL     1      51.715   1.673  18.061  0.00  0.00    +0.000 HD
ATOM     26  H   UNL     1      52.322   2.053  19.527  0.00  0.00    +0.000 HD
ENDBRANCH  23  24
ENDBRANCH  17  23
ENDBRANCH  16  20
ENDBRANCH  15  16
ENDBRANCH   1  15
TORSDOF 7
ENDMDL
MODEL 7
REMARK VINA RESULT:    -6.078      4.448      7.554
REMARK INTER + INTRA:          -9.553
REMARK INTER:                  -8.729
REMARK INTRA:                  -0.824
REMARK UNBOUND:                -1.166
REMARK  Name = 
REMARK  7 active torsions:
REMARK  status: ('A' for Active; 'I' for Inactive)
REMARK    1  A    between atoms: N_1  and  C_2
REMARK    2  A    between atoms: C_2  and  C_3
REMARK    3  A    between atoms: C_6  and  O_7
REMARK    4  A    between atoms: O_7  and  C_8
REMARK    5  A    between atoms: C_8  and  C_9
REMARK    6  A    between atoms: C_11  and  C_12
REMARK    7  A    between atoms: C_17  and  C_18
REMARK                            x       y       z     vdW  Elec       q    Type
REMARK                         _______ _______ _______ _____ _____    ______ ____
ROOT
ATOM      1  C   UNL     1      46.394   4.425  13.350  0.00  0.00    +0.000 A 
ATOM      2  C   UNL     1      46.422   5.825  13.260  0.00  0.00    +0.000 A 
ATOM      3  C   UNL     1      45.737   6.503  12.244  0.00  0.00    +0.000 A 
ATOM      4  C   UNL     1      45.017   5.755  11.298  0.00  0.00    +0.000 A 
ATOM      5  C   UNL     1      44.990   4.351  11.356  0.00  0.00    +0.000 A 
ATOM      6  C   UNL     1      45.679   3.696  12.391  0.00  0.00    +0.000 A 
ENDROOT
BRANCH   3   7
ATOM      7  C   UNL     1      45.784   8.010  12.152  0.00  0.00    +0.000 C 
ATOM      8  F   UNL     1      44.897   8.527  11.254  0.00  0.00    +0.000 F 
ATOM      9  F   UNL     1      45.497   8.609  13.341  0.00  0.00    +0.000 F 
ATOM     10  F   UNL     1      47.007   8.473  11.780  0.00  0.00    +0.000 F 
ENDBRANCH   3   7
BRANCH   5  11
ATOM     11  C   UNL     1      44.255   3.537  10.318  0.00  0.00    +0.000 C 
ATOM     12  F   UNL     1      43.227   2.806  10.832  0.00  0.00    +0.000 F 
ATOM     13  F   UNL     1      43.706   4.317   9.345  0.00  0.00    +0.000 F 
ATOM     14  F   UNL     1      45.063   2.649   9.678  0.00  0.00    +0.000 F 
ENDBRANCH   5  11
BRANCH   1  15
ATOM     15  C   UNL     1      47.214   3.746  14.421  0.00  0.00    +0.000 C 
BRANCH  15  16
ATOM     16  O   UNL     1      46.655   3.941  15.723  0.00  0.00    +0.000 OA
BRANCH  16  20
ATOM     17  C   UNL     1      49.686   4.598  18.526  0.00  0.00    +0.000 A 
ATOM     18  C   UNL     1      49.368   5.543  17.539  0.00  0.00    +0.000 A 
ATOM     19  C   UNL     1      48.323   5.312  16.639  0.00  0.00    +0.000 A 
ATOM     20  C   UNL     1      47.593   4.126  16.707  0.00  0.00    +0.000 A 
ATOM     21  C   UNL     1      47.861   3.212  17.730  0.00  0.00    +0.000 A 
ATOM     22  C   UNL     1      48.910   3.439  18.622  0.00  0.00    +0.000 A 
BRANCH  17  23
ATOM     23  C   UNL     1      50.859   4.805  19.448  0.00  0.00    +0.000 C 
BRANCH  23  24
ATOM     24  N   UNL     1      50.470   4.702  20.846  0.00  0.00    +0.000 NA
ATOM     25  H   UNL     1      49.933   5.528  21.101  0.00  0.00    +0.000 HD
ATOM     26  H   UNL     1      51.311   4.714  21.422  0.00  0.00    +0.000 HD
ENDBRANCH  23  24
ENDBRANCH  17  23
ENDBRANCH  16  20
ENDBRANCH  15  16
ENDBRANCH   1  15
TORSDOF 7
ENDMDL
MODEL 8
REMARK VINA RESULT:    -5.990      4.377      6.967
REMARK INTER + INTRA:          -9.431
REMARK INTER:                  -8.604
REMARK INTRA:                  -0.827
REMARK UNBOUND:                -1.166
REMARK  Name = 
REMARK  7 active torsions:
REMARK  status: ('A' for Active; 'I' for Inactive)
REMARK    1  A    between atoms: N_1  and  C_2
REMARK    2  A    between atoms: C_2  and  C_3
REMARK    3  A    between atoms: C_6  and  O_7
REMARK    4  A    between atoms: O_7  and  C_8
REMARK    5  A    between atoms: C_8  and  C_9
REMARK    6  A    between atoms: C_11  and  C_12
REMARK    7  A    between atoms: C_17  and  C_18
REMARK                            x       y       z     vdW  Elec       q    Type
REMARK                         _______ _______ _______ _____ _____    ______ ____
ROOT
ATOM      1  C   UNL     1      46.602   5.879  12.915  0.00  0.00    +0.000 A 
ATOM      2  C   UNL     1      45.758   4.931  12.315  0.00  0.00    +0.000 A 
ATOM      3  C   UNL     1      44.687   5.322  11.500  0.00  0.00    +0.000 A 
ATOM      4  C   UNL     1      44.460   6.692  11.294  0.00  0.00    +0.000 A 
ATOM      5  C   UNL     1      45.280   7.660  11.899  0.00  0.00    +0.000 A 
ATOM      6  C   UNL     1      46.352   7.240  12.705  0.00  0.00    +0.000 A 
ENDROOT
BRANCH   3   7
ATOM      7  C   UNL     1      43.780   4.292  10.869  0.00  0.00    +0.000 C 
ATOM      8  F   UNL     1      44.220   3.011  11.027  0.00  0.00    +0.000 F 
ATOM      9  F   UNL     1      42.524   4.319  11.394  0.00  0.00    +0.000 F 
ATOM     10  F   UNL     1      43.634   4.476   9.529  0.00  0.00    +0.000 F 
ENDBRANCH   3   7
BRANCH   5  11
ATOM     11  C   UNL     1      45.015   9.136  11.718  0.00  0.00    +0.000 C 
ATOM     12  F   UNL     1      44.138   9.408  10.713  0.00  0.00    +0.000 F 
ATOM     13  F   UNL     1      44.487   9.707  12.836  0.00  0.00    +0.000 F 
ATOM     14  F   UNL     1      46.143   9.841  11.432  0.00  0.00    +0.000 F 
ENDBRANCH   5  11
BRANCH   1  15
ATOM     15  C   UNL     1      47.692   5.400  13.844  0.00  0.00    +0.000 C 
BRANCH  15  16
ATOM     16  O   UNL     1      47.279   4.266  14.611  0.00  0.00    +0.000 OA
BRANCH  16  20
ATOM     17  C   UNL     1      48.627   4.567  18.556  0.00  0.00    +0.000 A 
ATOM     18  C   UNL     1      48.763   5.622  17.641  0.00  0.00    +0.000 A 
ATOM     19  C   UNL     1      48.267   5.506  16.339  0.00  0.00    +0.000 A 
ATOM     20  C   UNL     1      47.642   4.328  15.932  0.00  0.00    +0.000 A 
ATOM     21  C   UNL     1      47.444   3.300  16.858  0.00  0.00    +0.000 A 
ATOM     22  C   UNL     1      47.948   3.413  18.155  0.00  0.00    +0.000 A 
BRANCH  17  23
ATOM     23  C   UNL     1      49.228   4.655  19.935  0.00  0.00    +0.000 C 
BRANCH  23  24
ATOM     24  N   UNL     1      48.455   3.897  20.908  0.00  0.00    +0.000 NA
ATOM     25  H   UNL     1      49.033   3.724  21.727  0.00  0.00    +0.000 HD
ATOM     26  H   UNL     1      48.232   2.986  20.511  0.00  0.00    +0.000 HD
ENDBRANCH  23  24
ENDBRANCH  17  23
ENDBRANCH  16  20
ENDBRANCH  15  16
ENDBRANCH   1  15
TORSDOF 7
ENDMDL
MODEL 9
REMARK VINA RESULT:    -5.906      4.585      7.285
REMARK INTER + INTRA:          -9.316
REMARK INTER:                  -8.407
REMARK INTRA:                  -0.909
REMARK UNBOUND:                -1.166
REMARK  Name = 
REMARK  7 active torsions:
REMARK  status: ('A' for Active; 'I' for Inactive)
REMARK    1  A    between atoms: N_1  and  C_2
REMARK    2  A    between atoms: C_2  and  C_3
REMARK    3  A    between atoms: C_6  and  O_7
REMARK    4  A    between atoms: O_7  and  C_8
REMARK    5  A    between atoms: C_8  and  C_9
REMARK    6  A    between atoms: C_11  and  C_12
REMARK    7  A    between atoms: C_17  and  C_18
REMARK                            x       y       z     vdW  Elec       q    Type
REMARK                         _______ _______ _______ _____ _____    ______ ____
ROOT
ATOM      1  C   UNL     1      46.935   4.969  14.602  0.00  0.00    +0.000 A 
ATOM      2  C   UNL     1      47.818   5.992  14.223  0.00  0.00    +0.000 A 
ATOM      3  C   UNL     1      47.762   6.566  12.947  0.00  0.00    +0.000 A 
ATOM      4  C   UNL     1      46.804   6.094  12.035  0.00  0.00    +0.000 A 
ATOM      5  C   UNL     1      45.922   5.058  12.385  0.00  0.00    +0.000 A 
ATOM      6  C   UNL     1      45.994   4.506  13.674  0.00  0.00    +0.000 A 
ENDROOT
BRANCH   3   7
ATOM      7  C   UNL     1      48.725   7.659  12.548  0.00  0.00    +0.000 C 
ATOM      8  F   UNL     1      49.094   8.464  13.585  0.00  0.00    +0.000 F 
ATOM      9  F   UNL     1      49.885   7.164  12.034  0.00  0.00    +0.000 F 
ATOM     10  F   UNL     1      48.213   8.485  11.597  0.00  0.00    +0.000 F 
ENDBRANCH   3   7
BRANCH   5  11
ATOM     11  C   UNL     1      44.918   4.515  11.395  0.00  0.00    +0.000 C 
ATOM     12  F   UNL     1      43.672   4.357  11.921  0.00  0.00    +0.000 F 
ATOM     13  F   UNL     1      44.766   5.330  10.315  0.00  0.00    +0.000 F 
ATOM     14  F   UNL     1      45.273   3.297  10.902  0.00  0.00    +0.000 F 
ENDBRANCH   5  11
BRANCH   1  15
ATOM     15  C   UNL     1      47.093   4.337  15.965  0.00  0.00    +0.000 C 
BRANCH  15  16
ATOM     16  O   UNL     1      48.135   4.957  16.722  0.00  0.00    +0.000 OA
BRANCH  16  20
ATOM     17  C   UNL     1      51.421   2.533  17.617  0.00  0.00    +0.000 A 
ATOM     18  C   UNL     1      51.470   3.929  17.747  0.00  0.00    +0.000 A 
ATOM     19  C   UNL     1      50.342   4.711  17.477  0.00  0.00    +0.000 A 
ATOM     20  C   UNL     1      49.157   4.106  17.060  0.00  0.00    +0.000 A 
ATOM     21  C   UNL     1      49.083   2.712  16.994  0.00  0.00    +0.000 A 
ATOM     22  C   UNL     1      50.212   1.933  17.255  0.00  0.00    +0.000 A 
BRANCH  17  23
ATOM     23  C   UNL     1      52.653   1.692  17.829  0.00  0.00    +0.000 C 
BRANCH  23  24
ATOM     24  N   UNL     1      52.314   0.314  18.153  0.00  0.00    +0.000 NA
ATOM     25  H   UNL     1      52.533   0.141  19.132  0.00  0.00    +0.000 HD
ATOM     26  H   UNL     1      52.911  -0.306  17.608  0.00  0.00    +0.000 HD
ENDBRANCH  23  24
ENDBRANCH  17  23
ENDBRANCH  16  20
ENDBRANCH  15  16
ENDBRANCH   1  15
TORSDOF 7
ENDMDL
