MODEL 1
REMARK VINA RESULT:    -8.806      0.000      0.000
REMARK INTER + INTRA:         -11.389
REMARK INTER:                 -11.380
REMARK INTRA:                  -0.009
REMARK UNBOUND:                -0.009
REMARK  Name = 
REMARK  5 active torsions:
REMARK  status: ('A' for Active; 'I' for Inactive)
REMARK    1  A    between atoms: C_2  and  C_3
REMARK    2  A    between atoms: N_7  and  C_8
REMARK    3  A    between atoms: C_8  and  C_9
REMARK    4  A    between atoms: C_13  and  C_14
REMARK    5  A    between atoms: C_18  and  C_19
REMARK                            x       y       z     vdW  Elec       q    Type
REMARK                         _______ _______ _______ _____ _____    ______ ____
ROOT
ATOM      1  C   UNL     1      45.423   5.178  11.692  0.00  0.00    +0.000 A 
ATOM      2  C   UNL     1      45.546   6.421  11.048  0.00  0.00    +0.000 A 
ATOM      3  C   UNL     1      46.371   7.411  11.568  0.00  0.00    +0.000 A 
ATOM      4  C   UNL     1      47.111   7.155  12.721  0.00  0.00    +0.000 A 
ATOM      5  C   UNL     1      47.102   5.887  13.326  0.00  0.00    +0.000 A 
ATOM      6  C   UNL     1      46.292   4.896  12.753  0.00  0.00    +0.000 A 
ENDROOT
BRANCH   5   7
ATOM      7  C   UNL     1      47.795   5.622  14.597  0.00  0.00    +0.000 A 
ATOM      8  C   UNL     1      48.871   6.409  15.012  0.00  0.00    +0.000 A 
ATOM      9  N   UNL     1      49.530   6.266  16.185  0.00  0.00    +0.000 NA
ATOM     10  C   UNL     1      49.091   5.287  17.010  0.00  0.00    +0.000 A 
ATOM     11  C   UNL     1      48.027   4.446  16.720  0.00  0.00    +0.000 A 
ATOM     12  C   UNL     1      47.376   4.626  15.494  0.00  0.00    +0.000 A 
BRANCH  11  13
ATOM     13  C   UNL     1      47.541   3.395  17.647  0.00  0.00    +0.000 C 
ATOM     14  N   UNL     1      48.295   3.074  18.741  0.00  0.00    +0.000 N 
ATOM     15  O   UNL     1      46.480   2.814  17.447  0.00  0.00    +0.000 OA
ATOM     16  H   UNL     1      49.176   3.489  19.001  0.00  0.00    +0.000 HD
ATOM     17  H   UNL     1      47.925   2.353  19.348  0.00  0.00    +0.000 HD
ENDBRANCH  11  13
ENDBRANCH   5   7
BRANCH   1  18
ATOM     18  C   UNL     1      44.212   4.300  11.431  0.00  0.00    +0.000 C 
ATOM     19  C   UNL     1      42.999   4.320  12.344  0.00  0.00    +0.000 C 
ATOM     20  C   UNL     1      42.984   5.167  11.118  0.00  0.00    +0.000 C 
BRANCH  18  25
ATOM     21  C   UNL     1      46.701   2.654   7.158  0.00  0.00    +0.000 A 
ATOM     22  C   UNL     1      46.358   3.952   7.523  0.00  0.00    +0.000 A 
ATOM     23  C   UNL     1      45.630   4.166   8.696  0.00  0.00    +0.000 A 
ATOM     24  C   UNL     1      45.256   3.071   9.469  0.00  0.00    +0.000 A 
ATOM     25  N   UNL     1      44.457   3.133  10.602  0.00  0.00    +0.000 N 
ATOM     26  N   UNL     1      45.613   1.813   9.136  0.00  0.00    +0.000 NA
ATOM     27  C   UNL     1      46.322   1.625   8.002  0.00  0.00    +0.000 A 
ATOM     28  H   UNL     1      44.389   2.203  10.998  0.00  0.00    +0.000 HD
BRANCH  21  30
ATOM     29  N   UNL     1      47.980   2.107   4.984  0.00  0.00    +0.000 NA
ATOM     30  C   UNL     1      47.396   2.352   5.950  0.00  0.00    +0.000 C 
ENDBRANCH  21  30
ENDBRANCH  18  25
ENDBRANCH   1  18
TORSDOF 5
ENDMDL
MODEL 2
REMARK VINA RESULT:    -8.296      3.326      4.347
REMARK INTER + INTRA:         -10.730
REMARK INTER:                 -10.469
REMARK INTRA:                  -0.260
REMARK UNBOUND:                -0.009
REMARK  Name = 
REMARK  5 active torsions:
REMARK  status: ('A' for Active; 'I' for Inactive)
REMARK    1  A    between atoms: C_2  and  C_3
REMARK    2  A    between atoms: N_7  and  C_8
REMARK    3  A    between atoms: C_8  and  C_9
REMARK    4  A    between atoms: C_13  and  C_14
REMARK    5  A    between atoms: C_18  and  C_19
REMARK                            x       y       z     vdW  Elec       q    Type
REMARK                         _______ _______ _______ _____ _____    ______ ____
ROOT
ATOM      1  C   UNL     1      44.855   5.222  12.408  0.00  0.00    +0.000 A 
ATOM      2  C   UNL     1      45.363   4.247  13.284  0.00  0.00    +0.000 A 
ATOM      3  C   UNL     1      46.655   4.348  13.786  0.00  0.00    +0.000 A 
ATOM      4  C   UNL     1      47.443   5.445  13.442  0.00  0.00    +0.000 A 
ATOM      5  C   UNL     1      46.929   6.496  12.663  0.00  0.00    +0.000 A 
ATOM      6  C   UNL     1      45.608   6.385  12.208  0.00  0.00    +0.000 A 
ENDROOT
BRANCH   5   7
ATOM      7  C   UNL     1      47.770   7.614  12.207  0.00  0.00    +0.000 A 
ATOM      8  C   UNL     1      47.277   8.919  12.160  0.00  0.00    +0.000 A 
ATOM      9  N   UNL     1      47.995  10.008  11.802  0.00  0.00    +0.000 NA
ATOM     10  C   UNL     1      49.292   9.797  11.479  0.00  0.00    +0.000 A 
ATOM     11  C   UNL     1      49.905   8.553  11.498  0.00  0.00    +0.000 A 
ATOM     12  C   UNL     1      49.124   7.454  11.870  0.00  0.00    +0.000 A 
BRANCH  11  13
ATOM     13  C   UNL     1      51.336   8.343  11.167  0.00  0.00    +0.000 C 
ATOM     14  N   UNL     1      51.749   7.106  10.759  0.00  0.00    +0.000 N 
ATOM     15  O   UNL     1      52.148   9.258  11.253  0.00  0.00    +0.000 OA
ATOM     16  H   UNL     1      51.169   6.289  10.651  0.00  0.00    +0.000 HD
ATOM     17  H   UNL     1      52.733   7.008  10.542  0.00  0.00    +0.000 HD
ENDBRANCH  11  13
ENDBRANCH   5   7
BRANCH   1  18
ATOM     18  C   UNL     1      43.681   4.895  11.501  0.00  0.00    +0.000 C 
ATOM     19  C   UNL     1      42.291   5.448  11.764  0.00  0.00    +0.000 C 
ATOM     20  C   UNL     1      43.176   6.168  10.806  0.00  0.00    +0.000 C 
BRANCH  18  25
ATOM     21  C   UNL     1      46.482   2.719   7.684  0.00  0.00    +0.000 A 
ATOM     22  C   UNL     1      46.348   4.065   8.008  0.00  0.00    +0.000 A 
ATOM     23  C   UNL     1      45.488   4.438   9.045  0.00  0.00    +0.000 A 
ATOM     24  C   UNL     1      44.778   3.452   9.722  0.00  0.00    +0.000 A 
ATOM     25  N   UNL     1      43.827   3.690  10.705  0.00  0.00    +0.000 N 
ATOM     26  N   UNL     1      44.929   2.143   9.432  0.00  0.00    +0.000 NA
ATOM     27  C   UNL     1      45.769   1.799   8.432  0.00  0.00    +0.000 A 
ATOM     28  H   UNL     1      43.509   2.799  11.066  0.00  0.00    +0.000 HD
BRANCH  21  30
ATOM     29  N   UNL     1      47.952   1.875   5.736  0.00  0.00    +0.000 NA
ATOM     30  C   UNL     1      47.298   2.265   6.606  0.00  0.00    +0.000 C 
ENDBRANCH  21  30
ENDBRANCH  18  25
ENDBRANCH   1  18
TORSDOF 5
ENDMDL
MODEL 3
REMARK VINA RESULT:    -7.453      2.580      8.419
REMARK INTER + INTRA:          -9.641
REMARK INTER:                  -8.903
REMARK INTRA:                  -0.737
REMARK UNBOUND:                -0.009
REMARK  Name = 
REMARK  5 active torsions:
REMARK  status: ('A' for Active; 'I' for Inactive)
REMARK    1  A    between atoms: C_2  and  C_3
REMARK    2  A    between atoms: N_7  and  C_8
REMARK    3  A    between atoms: C_8  and  C_9
REMARK    4  A    between atoms: C_13  and  C_14
REMARK    5  A    between atoms: C_18  and  C_19
REMARK                            x       y       z     vdW  Elec       q    Type
REMARK                         _______ _______ _______ _____ _____    ______ ____
ROOT
ATOM      1  C   UNL     1      46.853   7.588  12.599  0.00  0.00    +0.000 A 
ATOM      2  C   UNL     1      45.930   8.646  12.542  0.00  0.00    +0.000 A 
ATOM      3  C   UNL     1      44.747   8.519  11.823  0.00  0.00    +0.000 A 
ATOM      4  C   UNL     1      44.460   7.317  11.179  0.00  0.00    +0.000 A 
ATOM      5  C   UNL     1      45.303   6.200  11.310  0.00  0.00    +0.000 A 
ATOM      6  C   UNL     1      46.467   6.347  12.078  0.00  0.00    +0.000 A 
ENDROOT
BRANCH   5   7
ATOM      7  C   UNL     1      45.071   4.954  10.562  0.00  0.00    +0.000 A 
ATOM      8  C   UNL     1      44.078   4.052  10.947  0.00  0.00    +0.000 A 
ATOM      9  N   UNL     1      43.766   2.912  10.289  0.00  0.00    +0.000 NA
ATOM     10  C   UNL     1      44.476   2.649   9.167  0.00  0.00    +0.000 A 
ATOM     11  C   UNL     1      45.479   3.469   8.672  0.00  0.00    +0.000 A 
ATOM     12  C   UNL     1      45.771   4.636   9.386  0.00  0.00    +0.000 A 
BRANCH  11  13
ATOM     13  C   UNL     1      46.229   3.180   7.425  0.00  0.00    +0.000 C 
ATOM     14  N   UNL     1      46.753   1.931   7.239  0.00  0.00    +0.000 N 
ATOM     15  O   UNL     1      46.383   4.039   6.564  0.00  0.00    +0.000 OA
ATOM     16  H   UNL     1      46.682   1.154   7.877  0.00  0.00    +0.000 HD
ATOM     17  H   UNL     1      47.255   1.777   6.374  0.00  0.00    +0.000 HD
ENDBRANCH  11  13
ENDBRANCH   5   7
BRANCH   1  18
ATOM     18  C   UNL     1      48.305   7.860  12.951  0.00  0.00    +0.000 C 
ATOM     19  C   UNL     1      49.446   7.349  12.089  0.00  0.00    +0.000 C 
ATOM     20  C   UNL     1      48.958   8.740  11.876  0.00  0.00    +0.000 C 
BRANCH  18  25
ATOM     21  C   UNL     1      48.908   5.756  17.681  0.00  0.00    +0.000 A 
ATOM     22  C   UNL     1      48.311   5.206  16.551  0.00  0.00    +0.000 A 
ATOM     23  C   UNL     1      48.201   5.976  15.390  0.00  0.00    +0.000 A 
ATOM     24  C   UNL     1      48.684   7.280  15.395  0.00  0.00    +0.000 A 
ATOM     25  N   UNL     1      48.557   8.179  14.345  0.00  0.00    +0.000 N 
ATOM     26  N   UNL     1      49.292   7.808  16.479  0.00  0.00    +0.000 NA
ATOM     27  C   UNL     1      49.395   7.048  17.590  0.00  0.00    +0.000 A 
ATOM     28  H   UNL     1      49.043   9.032  14.593  0.00  0.00    +0.000 HD
BRANCH  21  30
ATOM     29  N   UNL     1      49.077   4.500  19.930  0.00  0.00    +0.000 NA
ATOM     30  C   UNL     1      49.009   5.053  18.918  0.00  0.00    +0.000 C 
ENDBRANCH  21  30
ENDBRANCH  18  25
ENDBRANCH   1  18
TORSDOF 5
ENDMDL
MODEL 4
REMARK VINA RESULT:    -7.424      2.809      3.649
REMARK INTER + INTRA:          -9.603
REMARK INTER:                  -9.768
REMARK INTRA:                   0.165
REMARK UNBOUND:                -0.009
REMARK  Name = 
REMARK  5 active torsions:
REMARK  status: ('A' for Active; 'I' for Inactive)
REMARK    1  A    between atoms: C_2  and  C_3
REMARK    2  A    between atoms: N_7  and  C_8
REMARK    3  A    between atoms: C_8  and  C_9
REMARK    4  A    between atoms: C_13  and  C_14
REMARK    5  A    between atoms: C_18  and  C_19
REMARK                            x       y       z     vdW  Elec       q    Type
REMARK                         _______ _______ _______ _____ _____    ______ ____
ROOT
ATOM      1  C   UNL     1      44.974   4.574  12.418  0.00  0.00    +0.000 A 
ATOM      2  C   UNL     1      45.700   3.517  12.991  0.00  0.00    +0.000 A 
ATOM      3  C   UNL     1      46.926   3.747  13.604  0.00  0.00    +0.000 A 
ATOM      4  C   UNL     1      47.422   5.048  13.682  0.00  0.00    +0.000 A 
ATOM      5  C   UNL     1      46.670   6.144  13.224  0.00  0.00    +0.000 A 
ATOM      6  C   UNL     1      45.419   5.881  12.649  0.00  0.00    +0.000 A 
ENDROOT
BRANCH   5   7
ATOM      7  C   UNL     1      47.214   7.511  13.206  0.00  0.00    +0.000 A 
ATOM      8  C   UNL     1      46.979   8.369  12.130  0.00  0.00    +0.000 A 
ATOM      9  N   UNL     1      47.398   9.653  12.055  0.00  0.00    +0.000 NA
ATOM     10  C   UNL     1      48.087  10.126  13.119  0.00  0.00    +0.000 A 
ATOM     11  C   UNL     1      48.376   9.381  14.252  0.00  0.00    +0.000 A 
ATOM     12  C   UNL     1      47.927   8.056  14.286  0.00  0.00    +0.000 A 
BRANCH  11  13
ATOM     13  C   UNL     1      49.110   9.924  15.422  0.00  0.00    +0.000 C 
ATOM     14  N   UNL     1      48.579  10.979  16.108  0.00  0.00    +0.000 N 
ATOM     15  O   UNL     1      50.179   9.442  15.779  0.00  0.00    +0.000 OA
ATOM     16  H   UNL     1      47.709  11.447  15.903  0.00  0.00    +0.000 HD
ATOM     17  H   UNL     1      49.111  11.317  16.900  0.00  0.00    +0.000 HD
ENDBRANCH  11  13
ENDBRANCH   5   7
BRANCH   1  18
ATOM     18  C   UNL     1      43.919   4.292  11.362  0.00  0.00    +0.000 C 
ATOM     19  C   UNL     1      42.505   4.830  11.481  0.00  0.00    +0.000 C 
ATOM     20  C   UNL     1      43.494   5.597  10.673  0.00  0.00    +0.000 C 
BRANCH  18  25
ATOM     21  C   UNL     1      46.738   2.548   7.340  0.00  0.00    +0.000 A 
ATOM     22  C   UNL     1      46.454   3.861   7.702  0.00  0.00    +0.000 A 
ATOM     23  C   UNL     1      45.618   4.105   8.795  0.00  0.00    +0.000 A 
ATOM     24  C   UNL     1      45.081   3.027   9.490  0.00  0.00    +0.000 A 
ATOM     25  N   UNL     1      44.168   3.127  10.531  0.00  0.00    +0.000 N 
ATOM     26  N   UNL     1      45.379   1.752   9.163  0.00  0.00    +0.000 NA
ATOM     27  C   UNL     1      46.193   1.534   8.107  0.00  0.00    +0.000 A 
ATOM     28  H   UNL     1      43.988   2.197  10.890  0.00  0.00    +0.000 HD
BRANCH  21  30
ATOM     29  N   UNL     1      48.202   1.969   5.294  0.00  0.00    +0.000 NA
ATOM     30  C   UNL     1      47.538   2.218   6.207  0.00  0.00    +0.000 C 
ENDBRANCH  21  30
ENDBRANCH  18  25
ENDBRANCH   1  18
TORSDOF 5
ENDMDL
MODEL 5
REMARK VINA RESULT:    -7.397      3.253      8.358
REMARK INTER + INTRA:          -9.568
REMARK INTER:                  -8.980
REMARK INTRA:                  -0.587
REMARK UNBOUND:                -0.009
REMARK  Name = 
REMARK  5 active torsions:
REMARK  status: ('A' for Active; 'I' for Inactive)
REMARK    1  A    between atoms: C_2  and  C_3
REMARK    2  A    between atoms: N_7  and  C_8
REMARK    3  A    between atoms: C_8  and  C_9
REMARK    4  A    between atoms: C_13  and  C_14
REMARK    5  A    between atoms: C_18  and  C_19
REMARK                            x       y       z     vdW  Elec       q    Type
REMARK                         _______ _______ _______ _____ _____    ______ ____
ROOT
ATOM      1  C   UNL     1      48.240   4.782  16.462  0.00  0.00    +0.000 A 
ATOM      2  C   UNL     1      49.158   5.843  16.535  0.00  0.00    +0.000 A 
ATOM      3  C   UNL     1      49.280   6.750  15.489  0.00  0.00    +0.000 A 
ATOM      4  C   UNL     1      48.457   6.625  14.371  0.00  0.00    +0.000 A 
ATOM      5  C   UNL     1      47.449   5.648  14.313  0.00  0.00    +0.000 A 
ATOM      6  C   UNL     1      47.323   4.775  15.403  0.00  0.00    +0.000 A 
ENDROOT
BRANCH   5   7
ATOM      7  C   UNL     1      46.636   5.434  13.106  0.00  0.00    +0.000 A 
ATOM      8  C   UNL     1      46.738   6.286  12.004  0.00  0.00    +0.000 A 
ATOM      9  N   UNL     1      46.066   6.134  10.840  0.00  0.00    +0.000 NA
ATOM     10  C   UNL     1      45.246   5.061  10.752  0.00  0.00    +0.000 A 
ATOM     11  C   UNL     1      45.065   4.135  11.768  0.00  0.00    +0.000 A 
ATOM     12  C   UNL     1      45.776   4.334  12.957  0.00  0.00    +0.000 A 
BRANCH  11  13
ATOM     13  C   UNL     1      44.182   2.950  11.646  0.00  0.00    +0.000 C 
ATOM     14  N   UNL     1      44.131   2.279  10.456  0.00  0.00    +0.000 N 
ATOM     15  O   UNL     1      43.502   2.565  12.590  0.00  0.00    +0.000 OA
ATOM     16  H   UNL     1      44.649   2.506   9.620  0.00  0.00    +0.000 HD
ATOM     17  H   UNL     1      43.517   1.475  10.417  0.00  0.00    +0.000 HD
ENDBRANCH  11  13
ENDBRANCH   5   7
BRANCH   1  18
ATOM     18  C   UNL     1      48.424   3.552  17.333  0.00  0.00    +0.000 C 
ATOM     19  C   UNL     1      48.048   3.551  18.804  0.00  0.00    +0.000 C 
ATOM     20  C   UNL     1      47.062   3.033  17.815  0.00  0.00    +0.000 C 
BRANCH  18  25
ATOM     21  C   UNL     1      53.287   1.806  18.008  0.00  0.00    +0.000 A 
ATOM     22  C   UNL     1      52.733   3.020  18.403  0.00  0.00    +0.000 A 
ATOM     23  C   UNL     1      51.410   3.312  18.064  0.00  0.00    +0.000 A 
ATOM     24  C   UNL     1      50.680   2.385  17.328  0.00  0.00    +0.000 A 
ATOM     25  N   UNL     1      49.393   2.586  16.847  0.00  0.00    +0.000 N 
ATOM     26  N   UNL     1      51.202   1.193  16.970  0.00  0.00    +0.000 NA
ATOM     27  C   UNL     1      52.481   0.924  17.312  0.00  0.00    +0.000 A 
ATOM     28  H   UNL     1      49.082   1.734  16.397  0.00  0.00    +0.000 HD
BRANCH  21  30
ATOM     29  N   UNL     1      55.741   1.154  18.477  0.00  0.00    +0.000 NA
ATOM     30  C   UNL     1      54.645   1.458  18.272  0.00  0.00    +0.000 C 
ENDBRANCH  21  30
ENDBRANCH  18  25
ENDBRANCH   1  18
TORSDOF 5
ENDMDL
MODEL 6
REMARK VINA RESULT:    -7.369      3.145      4.548
REMARK INTER + INTRA:          -9.532
REMARK INTER:                  -9.345
REMARK INTRA:                  -0.187
REMARK UNBOUND:                -0.009
REMARK  Name = 
REMARK  5 active torsions:
REMARK  status: ('A' for Active; 'I' for Inactive)
REMARK    1  A    between atoms: C_2  and  C_3
REMARK    2  A    between atoms: N_7  and  C_8
REMARK    3  A    between atoms: C_8  and  C_9
REMARK    4  A    between atoms: C_13  and  C_14
REMARK    5  A    between atoms: C_18  and  C_19
REMARK                            x       y       z     vdW  Elec       q    Type
REMARK                         _______ _______ _______ _____ _____    ______ ____
ROOT
ATOM      1  C   UNL     1      44.815   5.217  12.501  0.00  0.00    +0.000 A 
ATOM      2  C   UNL     1      45.342   4.089  13.154  0.00  0.00    +0.000 A 
ATOM      3  C   UNL     1      46.631   4.107  13.673  0.00  0.00    +0.000 A 
ATOM      4  C   UNL     1      47.397   5.268  13.573  0.00  0.00    +0.000 A 
ATOM      5  C   UNL     1      46.863   6.449  13.030  0.00  0.00    +0.000 A 
ATOM      6  C   UNL     1      45.544   6.411  12.555  0.00  0.00    +0.000 A 
ENDROOT
BRANCH   5   7
ATOM      7  C   UNL     1      47.682   7.654  12.825  0.00  0.00    +0.000 A 
ATOM      8  C   UNL     1      48.994   7.726  13.293  0.00  0.00    +0.000 A 
ATOM      9  N   UNL     1      49.830   8.773  13.105  0.00  0.00    +0.000 NA
ATOM     10  C   UNL     1      49.341   9.816  12.396  0.00  0.00    +0.000 A 
ATOM     11  C   UNL     1      48.060   9.863  11.866  0.00  0.00    +0.000 A 
ATOM     12  C   UNL     1      47.227   8.761  12.089  0.00  0.00    +0.000 A 
BRANCH  11  13
ATOM     13  C   UNL     1      47.548  11.004  11.068  0.00  0.00    +0.000 C 
ATOM     14  N   UNL     1      48.323  11.514  10.063  0.00  0.00    +0.000 N 
ATOM     15  O   UNL     1      46.446  11.493  11.294  0.00  0.00    +0.000 OA
ATOM     16  H   UNL     1      49.237  11.187   9.792  0.00  0.00    +0.000 HD
ATOM     17  H   UNL     1      47.934  12.290   9.543  0.00  0.00    +0.000 HD
ENDBRANCH  11  13
ENDBRANCH   5   7
BRANCH   1  18
ATOM     18  C   UNL     1      43.648   5.066  11.540  0.00  0.00    +0.000 C 
ATOM     19  C   UNL     1      42.322   5.767  11.778  0.00  0.00    +0.000 C 
ATOM     20  C   UNL     1      43.322   6.416  10.884  0.00  0.00    +0.000 C 
BRANCH  18  25
ATOM     21  C   UNL     1      46.358   2.704   7.768  0.00  0.00    +0.000 A 
ATOM     22  C   UNL     1      46.375   4.042   8.147  0.00  0.00    +0.000 A 
ATOM     23  C   UNL     1      45.514   4.480   9.157  0.00  0.00    +0.000 A 
ATOM     24  C   UNL     1      44.652   3.567   9.753  0.00  0.00    +0.000 A 
ATOM     25  N   UNL     1      43.686   3.885  10.698  0.00  0.00    +0.000 N 
ATOM     26  N   UNL     1      44.654   2.261   9.411  0.00  0.00    +0.000 NA
ATOM     27  C   UNL     1      45.497   1.854   8.438  0.00  0.00    +0.000 A 
ATOM     28  H   UNL     1      43.240   3.027  11.002  0.00  0.00    +0.000 HD
BRANCH  21  30
ATOM     29  N   UNL     1      47.834   1.801   5.852  0.00  0.00    +0.000 NA
ATOM     30  C   UNL     1      47.169   2.193   6.711  0.00  0.00    +0.000 C 
ENDBRANCH  21  30
ENDBRANCH  18  25
ENDBRANCH   1  18
TORSDOF 5
ENDMDL
MODEL 7
REMARK VINA RESULT:    -7.223      2.961      8.341
REMARK INTER + INTRA:          -9.344
REMARK INTER:                  -9.229
REMARK INTRA:                  -0.114
REMARK UNBOUND:                -0.009
REMARK  Name = 
REMARK  5 active torsions:
REMARK  status: ('A' for Active; 'I' for Inactive)
REMARK    1  A    between atoms: C_2  and  C_3
REMARK    2  A    between atoms: N_7  and  C_8
REMARK    3  A    between atoms: C_8  and  C_9
REMARK    4  A    between atoms: C_13  and  C_14
REMARK    5  A    between atoms: C_18  and  C_19
REMARK                            x       y       z     vdW  Elec       q    Type
REMARK                         _______ _______ _______ _____ _____    ______ ____
ROOT
ATOM      1  C   UNL     1      47.630   7.744  12.752  0.00  0.00    +0.000 A 
ATOM      2  C   UNL     1      46.913   8.941  12.592  0.00  0.00    +0.000 A 
ATOM      3  C   UNL     1      45.575   8.923  12.219  0.00  0.00    +0.000 A 
ATOM      4  C   UNL     1      44.929   7.701  12.034  0.00  0.00    +0.000 A 
ATOM      5  C   UNL     1      45.581   6.484  12.297  0.00  0.00    +0.000 A 
ATOM      6  C   UNL     1      46.919   6.538  12.714  0.00  0.00    +0.000 A 
ENDROOT
BRANCH   5   7
ATOM      7  C   UNL     1      44.953   5.184  12.015  0.00  0.00    +0.000 A 
ATOM      8  C   UNL     1      44.172   4.535  12.972  0.00  0.00    +0.000 A 
ATOM      9  N   UNL     1      43.520   3.365  12.779  0.00  0.00    +0.000 NA
ATOM     10  C   UNL     1      43.638   2.803  11.554  0.00  0.00    +0.000 A 
ATOM     11  C   UNL     1      44.373   3.353  10.514  0.00  0.00    +0.000 A 
ATOM     12  C   UNL     1      45.035   4.561  10.759  0.00  0.00    +0.000 A 
BRANCH  11  13
ATOM     13  C   UNL     1      44.470   2.737   9.168  0.00  0.00    +0.000 C 
ATOM     14  N   UNL     1      44.370   3.536   8.063  0.00  0.00    +0.000 N 
ATOM     15  O   UNL     1      44.637   1.530   9.033  0.00  0.00    +0.000 OA
ATOM     16  H   UNL     1      44.236   4.535   8.059  0.00  0.00    +0.000 HD
ATOM     17  H   UNL     1      44.443   3.074   7.165  0.00  0.00    +0.000 HD
ENDBRANCH  11  13
ENDBRANCH   5   7
BRANCH   1  18
ATOM     18  C   UNL     1      49.148   7.748  12.682  0.00  0.00    +0.000 C 
ATOM     19  C   UNL     1      49.887   7.903  11.365  0.00  0.00    +0.000 C 
ATOM     20  C   UNL     1      49.655   9.115  12.200  0.00  0.00    +0.000 C 
BRANCH  18  25
ATOM     21  C   UNL     1      49.196   7.433  17.884  0.00  0.00    +0.000 A 
ATOM     22  C   UNL     1      48.639   8.418  17.075  0.00  0.00    +0.000 A 
ATOM     23  C   UNL     1      48.796   8.337  15.689  0.00  0.00    +0.000 A 
ATOM     24  C   UNL     1      49.515   7.275  15.151  0.00  0.00    +0.000 A 
ATOM     25  N   UNL     1      49.823   7.123  13.806  0.00  0.00    +0.000 N 
ATOM     26  N   UNL     1      50.030   6.299  15.929  0.00  0.00    +0.000 NA
ATOM     27  C   UNL     1      49.863   6.391  17.267  0.00  0.00    +0.000 A 
ATOM     28  H   UNL     1      50.303   6.239  13.685  0.00  0.00    +0.000 HD
BRANCH  21  30
ATOM     29  N   UNL     1      49.088   7.501  20.462  0.00  0.00    +0.000 NA
ATOM     30  C   UNL     1      49.124   7.475  19.308  0.00  0.00    +0.000 C 
ENDBRANCH  21  30
ENDBRANCH  18  25
ENDBRANCH   1  18
TORSDOF 5
ENDMDL
MODEL 8
REMARK VINA RESULT:    -7.174      4.170      7.238
REMARK INTER + INTRA:          -9.280
REMARK INTER:                  -8.623
REMARK INTRA:                  -0.658
REMARK UNBOUND:                -0.009
REMARK  Name = 
REMARK  5 active torsions:
REMARK  status: ('A' for Active; 'I' for Inactive)
REMARK    1  A    between atoms: C_2  and  C_3
REMARK    2  A    between atoms: N_7  and  C_8
REMARK    3  A    between atoms: C_8  and  C_9
REMARK    4  A    between atoms: C_13  and  C_14
REMARK    5  A    between atoms: C_18  and  C_19
REMARK                            x       y       z     vdW  Elec       q    Type
REMARK                         _______ _______ _______ _____ _____    ______ ____
ROOT
ATOM      1  C   UNL     1      47.615   7.708  13.291  0.00  0.00    +0.000 A 
ATOM      2  C   UNL     1      47.012   8.920  12.916  0.00  0.00    +0.000 A 
ATOM      3  C   UNL     1      45.777   8.932  12.280  0.00  0.00    +0.000 A 
ATOM      4  C   UNL     1      45.114   7.729  12.042  0.00  0.00    +0.000 A 
ATOM      5  C   UNL     1      45.631   6.507  12.506  0.00  0.00    +0.000 A 
ATOM      6  C   UNL     1      46.859   6.534  13.182  0.00  0.00    +0.000 A 
ENDROOT
BRANCH   5   7
ATOM      7  C   UNL     1      45.001   5.218  12.182  0.00  0.00    +0.000 A 
ATOM      8  C   UNL     1      44.232   4.531  13.123  0.00  0.00    +0.000 A 
ATOM      9  N   UNL     1      43.579   3.369  12.893  0.00  0.00    +0.000 NA
ATOM     10  C   UNL     1      43.681   2.855  11.645  0.00  0.00    +0.000 A 
ATOM     11  C   UNL     1      44.403   3.445  10.618  0.00  0.00    +0.000 A 
ATOM     12  C   UNL     1      45.067   4.644  10.901  0.00  0.00    +0.000 A 
BRANCH  11  13
ATOM     13  C   UNL     1      44.484   2.882   9.248  0.00  0.00    +0.000 C 
ATOM     14  N   UNL     1      44.353   3.720   8.176  0.00  0.00    +0.000 N 
ATOM     15  O   UNL     1      44.665   1.684   9.065  0.00  0.00    +0.000 OA
ATOM     16  H   UNL     1      44.205   4.717   8.213  0.00  0.00    +0.000 HD
ATOM     17  H   UNL     1      44.416   3.294   7.260  0.00  0.00    +0.000 HD
ENDBRANCH  11  13
ENDBRANCH   5   7
BRANCH   1  18
ATOM     18  C   UNL     1      49.113   7.642  13.532  0.00  0.00    +0.000 C 
ATOM     19  C   UNL     1      49.776   8.415  14.658  0.00  0.00    +0.000 C 
ATOM     20  C   UNL     1      49.406   6.991  14.891  0.00  0.00    +0.000 C 
BRANCH  18  25
ATOM     21  C   UNL     1      52.260   9.412   9.774  0.00  0.00    +0.000 A 
ATOM     22  C   UNL     1      51.337  10.115  10.542  0.00  0.00    +0.000 A 
ATOM     23  C   UNL     1      50.545   9.425  11.463  0.00  0.00    +0.000 A 
ATOM     24  C   UNL     1      50.692   8.048  11.584  0.00  0.00    +0.000 A 
ATOM     25  N   UNL     1      49.909   7.232  12.389  0.00  0.00    +0.000 N 
ATOM     26  N   UNL     1      51.607   7.366  10.864  0.00  0.00    +0.000 NA
ATOM     27  C   UNL     1      52.369   8.049   9.982  0.00  0.00    +0.000 A 
ATOM     28  H   UNL     1      50.265   6.285  12.330  0.00  0.00    +0.000 HD
BRANCH  21  30
ATOM     29  N   UNL     1      53.706  10.531   7.952  0.00  0.00    +0.000 NA
ATOM     30  C   UNL     1      53.066  10.037   8.776  0.00  0.00    +0.000 C 
ENDBRANCH  21  30
ENDBRANCH  18  25
ENDBRANCH   1  18
TORSDOF 5
ENDMDL
MODEL 9
REMARK VINA RESULT:    -6.961      2.939      8.455
REMARK INTER + INTRA:          -9.005
REMARK INTER:                  -8.352
REMARK INTRA:                  -0.653
REMARK UNBOUND:                -0.009
REMARK  Name = 
REMARK  5 active torsions:
REMARK  status: ('A' for Active; 'I' for Inactive)
REMARK    1  A    between atoms: C_2  and  C_3
REMARK    2  A    between atoms: N_7  and  C_8
REMARK    3  A    between atoms: C_8  and  C_9
REMARK    4  A    between atoms: C_13  and  C_14
REMARK    5  A    between atoms: C_18  and  C_19
REMARK                            x       y       z     vdW  Elec       q    Type
REMARK                         _______ _______ _______ _____ _____    ______ ____
ROOT
ATOM      1  C   UNL     1      48.486   8.206  14.210  0.00  0.00    +0.000 A 
ATOM      2  C   UNL     1      49.498   8.602  13.319  0.00  0.00    +0.000 A 
ATOM      3  C   UNL     1      49.422   8.280  11.970  0.00  0.00    +0.000 A 
ATOM      4  C   UNL     1      48.313   7.585  11.490  0.00  0.00    +0.000 A 
ATOM      5  C   UNL     1      47.229   7.274  12.328  0.00  0.00    +0.000 A 
ATOM      6  C   UNL     1      47.317   7.651  13.676  0.00  0.00    +0.000 A 
ENDROOT
BRANCH   5   7
ATOM      7  C   UNL     1      46.095   6.457  11.868  0.00  0.00    +0.000 A 
ATOM      8  C   UNL     1      44.897   6.412  12.584  0.00  0.00    +0.000 A 
ATOM      9  N   UNL     1      43.792   5.729  12.207  0.00  0.00    +0.000 NA
ATOM     10  C   UNL     1      43.870   5.052  11.038  0.00  0.00    +0.000 A 
ATOM     11  C   UNL     1      44.996   5.025  10.229  0.00  0.00    +0.000 A 
ATOM     12  C   UNL     1      46.118   5.742  10.659  0.00  0.00    +0.000 A 
BRANCH  11  13
ATOM     13  C   UNL     1      45.056   4.299   8.936  0.00  0.00    +0.000 C 
ATOM     14  N   UNL     1      44.317   3.161   8.779  0.00  0.00    +0.000 N 
ATOM     15  O   UNL     1      45.755   4.704   8.014  0.00  0.00    +0.000 OA
ATOM     16  H   UNL     1      43.709   2.744   9.467  0.00  0.00    +0.000 HD
ATOM     17  H   UNL     1      44.386   2.699   7.881  0.00  0.00    +0.000 HD
ENDBRANCH  11  13
ENDBRANCH   5   7
BRANCH   1  18
ATOM     18  C   UNL     1      48.771   8.122  15.700  0.00  0.00    +0.000 C 
ATOM     19  C   UNL     1      49.588   9.181  16.418  0.00  0.00    +0.000 C 
ATOM     20  C   UNL     1      48.103   9.292  16.436  0.00  0.00    +0.000 C 
BRANCH  18  25
ATOM     21  C   UNL     1      51.516   4.288  17.918  0.00  0.00    +0.000 A 
ATOM     22  C   UNL     1      51.967   5.335  17.121  0.00  0.00    +0.000 A 
ATOM     23  C   UNL     1      51.042   6.228  16.574  0.00  0.00    +0.000 A 
ATOM     24  C   UNL     1      49.688   6.042  16.832  0.00  0.00    +0.000 A 
ATOM     25  N   UNL     1      48.661   6.795  16.279  0.00  0.00    +0.000 N 
ATOM     26  N   UNL     1      49.248   5.046  17.630  0.00  0.00    +0.000 NA
ATOM     27  C   UNL     1      50.157   4.196  18.156  0.00  0.00    +0.000 A 
ATOM     28  H   UNL     1      47.784   6.484  16.678  0.00  0.00    +0.000 HD
BRANCH  21  30
ATOM     29  N   UNL     1      53.114   2.510  18.893  0.00  0.00    +0.000 NA
ATOM     30  C   UNL     1      52.393   3.307  18.468  0.00  0.00    +0.000 C 
ENDBRANCH  21  30
ENDBRANCH  18  25
ENDBRANCH   1  18
TORSDOF 5
ENDMDL
