MODEL 1
REMARK VINA RESULT:    -8.708      0.000      0.000
REMARK INTER + INTRA:         -12.643
REMARK INTER:                 -11.763
REMARK INTRA:                  -0.880
REMARK UNBOUND:                -0.880
REMARK  Name = 
REMARK  6 active torsions:
REMARK  status: ('A' for Active; 'I' for Inactive)
REMARK    1  A    between atoms: C_2  and  C_19
REMARK    2  A    between atoms: N_3  and  C_4
REMARK    3  A    between atoms: C_4  and  C_5
REMARK    4  A    between atoms: C_8  and  C_9
REMARK    5  A    between atoms: C_9  and  O_10
REMARK    6  A    between atoms: O_10  and  C_11
REMARK                            x       y       z     vdW  Elec       q    Type
REMARK                         _______ _______ _______ _____ _____    ______ ____
ROOT
ATOM      1  O   UNL     1      48.884   6.654  13.053  0.00  0.00    +0.000 OA
ATOM      2  C   UNL     1      48.145   6.603  14.031  0.00  0.00    +0.000 C 
ATOM      3  N   UNL     1      46.804   6.877  13.958  0.00  0.00    +0.000 N 
ATOM      4  H   UNL     1      46.263   6.968  14.811  0.00  0.00    +0.000 HD
ENDROOT
BRANCH   2   5
ATOM      5  C   UNL     1      48.653   6.196  15.346  0.00  0.00    +0.000 A 
ATOM      6  C   UNL     1      49.618   6.962  15.986  0.00  0.00    +0.000 A 
ATOM      7  S   UNL     1      50.046   6.369  17.528  0.00  0.00    +0.000 S 
ATOM      8  C   UNL     1      48.940   5.080  17.399  0.00  0.00    +0.000 A 
ATOM      9  N   UNL     1      48.763   4.199  18.422  0.00  0.00    +0.000 NA
ATOM     10  C   UNL     1      47.867   3.301  18.199  0.00  0.00    +0.000 A 
ATOM     11  N   UNL     1      47.144   3.185  17.041  0.00  0.00    +0.000 N 
ATOM     12  C   UNL     1      47.351   3.993  15.951  0.00  0.00    +0.000 A 
ATOM     13  O   UNL     1      46.811   3.759  14.877  0.00  0.00    +0.000 OA
ATOM     14  C   UNL     1      48.293   5.073  16.177  0.00  0.00    +0.000 A 
ATOM     15  H   UNL     1      46.488   2.427  16.909  0.00  0.00    +0.000 HD
ENDBRANCH   2   5
BRANCH   3  16
ATOM     16  C   UNL     1      46.164   7.312  12.743  0.00  0.00    +0.000 C 
BRANCH  16  17
ATOM     17  C   UNL     1      45.770   6.161  11.856  0.00  0.00    +0.000 A 
ATOM     18  C   UNL     1      45.097   5.055  12.389  0.00  0.00    +0.000 A 
ATOM     19  C   UNL     1      44.672   4.010  11.562  0.00  0.00    +0.000 A 
ATOM     20  C   UNL     1      44.933   4.039  10.186  0.00  0.00    +0.000 A 
ATOM     21  C   UNL     1      45.619   5.139   9.653  0.00  0.00    +0.000 A 
ATOM     22  C   UNL     1      46.046   6.183  10.482  0.00  0.00    +0.000 A 
BRANCH  20  23
ATOM     23  C   UNL     1      44.482   2.910   9.289  0.00  0.00    +0.000 C 
BRANCH  23  24
ATOM     24  O   UNL     1      45.578   2.032   9.038  0.00  0.00    +0.000 OA
BRANCH  24  25
ATOM     25  C   UNL     1      46.223   2.188   7.843  0.00  0.00    +0.000 A 
ATOM     26  C   UNL     1      46.007   3.197   6.907  0.00  0.00    +0.000 A 
ATOM     27  C   UNL     1      46.762   3.226   5.734  0.00  0.00    +0.000 A 
ATOM     28  C   UNL     1      47.710   2.237   5.530  0.00  0.00    +0.000 A 
ATOM     29  N   UNL     1      47.943   1.238   6.405  0.00  0.00    +0.000 NA
ATOM     30  C   UNL     1      47.193   1.238   7.536  0.00  0.00    +0.000 A 
ENDBRANCH  24  25
ENDBRANCH  23  24
ENDBRANCH  20  23
ENDBRANCH  16  17
ENDBRANCH   3  16
TORSDOF 6
ENDMDL
MODEL 2
REMARK VINA RESULT:    -8.129      1.781      2.320
REMARK INTER + INTRA:         -11.861
REMARK INTER:                 -11.072
REMARK INTRA:                  -0.788
REMARK UNBOUND:                -0.880
REMARK  Name = 
REMARK  6 active torsions:
REMARK  status: ('A' for Active; 'I' for Inactive)
REMARK    1  A    between atoms: C_2  and  C_19
REMARK    2  A    between atoms: N_3  and  C_4
REMARK    3  A    between atoms: C_4  and  C_5
REMARK    4  A    between atoms: C_8  and  C_9
REMARK    5  A    between atoms: C_9  and  O_10
REMARK    6  A    between atoms: O_10  and  C_11
REMARK                            x       y       z     vdW  Elec       q    Type
REMARK                         _______ _______ _______ _____ _____    ______ ____
ROOT
ATOM      1  O   UNL     1      50.192   6.927  15.196  0.00  0.00    +0.000 OA
ATOM      2  C   UNL     1      49.047   6.963  15.635  0.00  0.00    +0.000 C 
ATOM      3  N   UNL     1      47.944   6.952  14.822  0.00  0.00    +0.000 N 
ATOM      4  H   UNL     1      47.027   7.132  15.216  0.00  0.00    +0.000 HD
ENDROOT
BRANCH   2   5
ATOM      5  C   UNL     1      48.788   6.976  17.080  0.00  0.00    +0.000 A 
ATOM      6  C   UNL     1      48.322   8.131  17.693  0.00  0.00    +0.000 A 
ATOM      7  S   UNL     1      48.022   7.944  19.362  0.00  0.00    +0.000 S 
ATOM      8  C   UNL     1      48.485   6.305  19.316  0.00  0.00    +0.000 A 
ATOM      9  N   UNL     1      48.413   5.522  20.428  0.00  0.00    +0.000 NA
ATOM     10  C   UNL     1      48.756   4.295  20.235  0.00  0.00    +0.000 A 
ATOM     11  N   UNL     1      49.186   3.780  19.040  0.00  0.00    +0.000 N 
ATOM     12  C   UNL     1      49.360   4.549  17.918  0.00  0.00    +0.000 A 
ATOM     13  O   UNL     1      49.903   4.097  16.917  0.00  0.00    +0.000 OA
ATOM     14  C   UNL     1      48.911   5.922  18.058  0.00  0.00    +0.000 A 
ATOM     15  H   UNL     1      49.488   2.817  18.965  0.00  0.00    +0.000 HD
ENDBRANCH   2   5
BRANCH   3  16
ATOM     16  C   UNL     1      48.038   6.964  13.385  0.00  0.00    +0.000 C 
BRANCH  16  17
ATOM     17  C   UNL     1      46.997   6.092  12.733  0.00  0.00    +0.000 A 
ATOM     18  C   UNL     1      46.437   6.458  11.502  0.00  0.00    +0.000 A 
ATOM     19  C   UNL     1      45.516   5.624  10.859  0.00  0.00    +0.000 A 
ATOM     20  C   UNL     1      45.119   4.416  11.446  0.00  0.00    +0.000 A 
ATOM     21  C   UNL     1      45.668   4.055  12.684  0.00  0.00    +0.000 A 
ATOM     22  C   UNL     1      46.587   4.891  13.328  0.00  0.00    +0.000 A 
BRANCH  20  23
ATOM     23  C   UNL     1      44.120   3.514  10.759  0.00  0.00    +0.000 C 
BRANCH  23  24
ATOM     24  O   UNL     1      44.135   3.767   9.355  0.00  0.00    +0.000 OA
BRANCH  24  25
ATOM     25  C   UNL     1      45.105   3.132   8.631  0.00  0.00    +0.000 A 
ATOM     26  C   UNL     1      45.945   3.709   7.681  0.00  0.00    +0.000 A 
ATOM     27  C   UNL     1      46.899   2.924   7.033  0.00  0.00    +0.000 A 
ATOM     28  C   UNL     1      46.980   1.579   7.353  0.00  0.00    +0.000 A 
ATOM     29  N   UNL     1      46.179   0.979   8.257  0.00  0.00    +0.000 NA
ATOM     30  C   UNL     1      45.263   1.770   8.871  0.00  0.00    +0.000 A 
ENDBRANCH  24  25
ENDBRANCH  23  24
ENDBRANCH  20  23
ENDBRANCH  16  17
ENDBRANCH   3  16
TORSDOF 6
ENDMDL
MODEL 3
REMARK VINA RESULT:    -7.935      2.267      2.934
REMARK INTER + INTRA:         -11.598
REMARK INTER:                 -10.824
REMARK INTRA:                  -0.774
REMARK UNBOUND:                -0.880
REMARK  Name = 
REMARK  6 active torsions:
REMARK  status: ('A' for Active; 'I' for Inactive)
REMARK    1  A    between atoms: C_2  and  C_19
REMARK    2  A    between atoms: N_3  and  C_4
REMARK    3  A    between atoms: C_4  and  C_5
REMARK    4  A    between atoms: C_8  and  C_9
REMARK    5  A    between atoms: C_9  and  O_10
REMARK    6  A    between atoms: O_10  and  C_11
REMARK                            x       y       z     vdW  Elec       q    Type
REMARK                         _______ _______ _______ _____ _____    ______ ____
ROOT
ATOM      1  O   UNL     1      49.956   6.760  15.416  0.00  0.00    +0.000 OA
ATOM      2  C   UNL     1      48.876   6.341  15.822  0.00  0.00    +0.000 C 
ATOM      3  N   UNL     1      47.792   6.178  15.000  0.00  0.00    +0.000 N 
ATOM      4  H   UNL     1      46.884   5.972  15.401  0.00  0.00    +0.000 HD
ENDROOT
BRANCH   2   5
ATOM      5  C   UNL     1      48.695   5.940  17.222  0.00  0.00    +0.000 A 
ATOM      6  C   UNL     1      48.889   4.617  17.597  0.00  0.00    +0.000 A 
ATOM      7  S   UNL     1      48.690   4.347  19.270  0.00  0.00    +0.000 S 
ATOM      8  C   UNL     1      48.360   5.994  19.551  0.00  0.00    +0.000 A 
ATOM      9  N   UNL     1      48.144   6.464  20.811  0.00  0.00    +0.000 NA
ATOM     10  C   UNL     1      47.946   7.735  20.876  0.00  0.00    +0.000 A 
ATOM     11  N   UNL     1      47.921   8.581  19.799  0.00  0.00    +0.000 N 
ATOM     12  C   UNL     1      48.043   8.141  18.505  0.00  0.00    +0.000 A 
ATOM     13  O   UNL     1      47.849   8.894  17.558  0.00  0.00    +0.000 OA
ATOM     14  C   UNL     1      48.349   6.728  18.380  0.00  0.00    +0.000 A 
ATOM     15  H   UNL     1      47.712   9.564  19.911  0.00  0.00    +0.000 HD
ENDBRANCH   2   5
BRANCH   3  16
ATOM     16  C   UNL     1      47.809   6.549  13.608  0.00  0.00    +0.000 C 
BRANCH  16  17
ATOM     17  C   UNL     1      46.817   5.764  12.791  0.00  0.00    +0.000 A 
ATOM     18  C   UNL     1      46.375   6.251  11.555  0.00  0.00    +0.000 A 
ATOM     19  C   UNL     1      45.502   5.500  10.761  0.00  0.00    +0.000 A 
ATOM     20  C   UNL     1      45.034   4.254  11.199  0.00  0.00    +0.000 A 
ATOM     21  C   UNL     1      45.465   3.771  12.441  0.00  0.00    +0.000 A 
ATOM     22  C   UNL     1      46.336   4.525  13.237  0.00  0.00    +0.000 A 
BRANCH  20  23
ATOM     23  C   UNL     1      44.087   3.441  10.348  0.00  0.00    +0.000 C 
BRANCH  23  24
ATOM     24  O   UNL     1      44.298   3.749   8.971  0.00  0.00    +0.000 OA
BRANCH  24  25
ATOM     25  C   UNL     1      45.279   3.044   8.332  0.00  0.00    +0.000 A 
ATOM     26  C   UNL     1      46.158   3.530   7.366  0.00  0.00    +0.000 A 
ATOM     27  C   UNL     1      47.119   2.683   6.815  0.00  0.00    +0.000 A 
ATOM     28  C   UNL     1      47.169   1.367   7.245  0.00  0.00    +0.000 A 
ATOM     29  N   UNL     1      46.331   0.854   8.168  0.00  0.00    +0.000 NA
ATOM     30  C   UNL     1      45.408   1.704   8.686  0.00  0.00    +0.000 A 
ENDBRANCH  24  25
ENDBRANCH  23  24
ENDBRANCH  20  23
ENDBRANCH  16  17
ENDBRANCH   3  16
TORSDOF 6
ENDMDL
MODEL 4
REMARK VINA RESULT:    -7.567      1.890      2.746
REMARK INTER + INTRA:         -11.101
REMARK INTER:                 -10.415
REMARK INTRA:                  -0.686
REMARK UNBOUND:                -0.880
REMARK  Name = 
REMARK  6 active torsions:
REMARK  status: ('A' for Active; 'I' for Inactive)
REMARK    1  A    between atoms: C_2  and  C_19
REMARK    2  A    between atoms: N_3  and  C_4
REMARK    3  A    between atoms: C_4  and  C_5
REMARK    4  A    between atoms: C_8  and  C_9
REMARK    5  A    between atoms: C_9  and  O_10
REMARK    6  A    between atoms: O_10  and  C_11
REMARK                            x       y       z     vdW  Elec       q    Type
REMARK                         _______ _______ _______ _____ _____    ______ ____
ROOT
ATOM      1  O   UNL     1      48.205   8.579  14.840  0.00  0.00    +0.000 OA
ATOM      2  C   UNL     1      48.258   7.355  14.901  0.00  0.00    +0.000 C 
ATOM      3  N   UNL     1      47.521   6.543  14.080  0.00  0.00    +0.000 N 
ATOM      4  H   UNL     1      47.482   5.545  14.263  0.00  0.00    +0.000 HD
ENDROOT
BRANCH   2   5
ATOM      5  C   UNL     1      49.160   6.680  15.842  0.00  0.00    +0.000 A 
ATOM      6  C   UNL     1      48.645   5.823  16.806  0.00  0.00    +0.000 A 
ATOM      7  S   UNL     1      49.843   5.084  17.771  0.00  0.00    +0.000 S 
ATOM      8  C   UNL     1      51.091   5.869  16.917  0.00  0.00    +0.000 A 
ATOM      9  N   UNL     1      52.400   5.633  17.209  0.00  0.00    +0.000 NA
ATOM     10  C   UNL     1      53.233   6.266  16.456  0.00  0.00    +0.000 A 
ATOM     11  N   UNL     1      52.883   7.129  15.452  0.00  0.00    +0.000 N 
ATOM     12  C   UNL     1      51.581   7.466  15.181  0.00  0.00    +0.000 A 
ATOM     13  O   UNL     1      51.309   8.365  14.394  0.00  0.00    +0.000 OA
ATOM     14  C   UNL     1      50.598   6.721  15.946  0.00  0.00    +0.000 A 
ATOM     15  H   UNL     1      53.586   7.632  14.927  0.00  0.00    +0.000 HD
ENDBRANCH   2   5
BRANCH   3  16
ATOM     16  C   UNL     1      46.575   7.056  13.123  0.00  0.00    +0.000 C 
BRANCH  16  17
ATOM     17  C   UNL     1      46.073   5.994  12.181  0.00  0.00    +0.000 A 
ATOM     18  C   UNL     1      45.688   4.739  12.670  0.00  0.00    +0.000 A 
ATOM     19  C   UNL     1      45.163   3.767  11.812  0.00  0.00    +0.000 A 
ATOM     20  C   UNL     1      45.034   4.023  10.441  0.00  0.00    +0.000 A 
ATOM     21  C   UNL     1      45.431   5.273   9.948  0.00  0.00    +0.000 A 
ATOM     22  C   UNL     1      45.960   6.244  10.807  0.00  0.00    +0.000 A 
BRANCH  20  23
ATOM     23  C   UNL     1      44.473   2.976   9.508  0.00  0.00    +0.000 C 
BRANCH  23  24
ATOM     24  O   UNL     1      45.484   2.017   9.203  0.00  0.00    +0.000 OA
BRANCH  24  25
ATOM     25  C   UNL     1      46.131   2.172   8.009  0.00  0.00    +0.000 A 
ATOM     26  C   UNL     1      45.945   3.202   7.090  0.00  0.00    +0.000 A 
ATOM     27  C   UNL     1      46.698   3.226   5.915  0.00  0.00    +0.000 A 
ATOM     28  C   UNL     1      47.613   2.211   5.693  0.00  0.00    +0.000 A 
ATOM     29  N   UNL     1      47.816   1.190   6.550  0.00  0.00    +0.000 NA
ATOM     30  C   UNL     1      47.069   1.196   7.684  0.00  0.00    +0.000 A 
ENDBRANCH  24  25
ENDBRANCH  23  24
ENDBRANCH  20  23
ENDBRANCH  16  17
ENDBRANCH   3  16
TORSDOF 6
ENDMDL
MODEL 5
REMARK VINA RESULT:    -7.459      2.560      4.045
REMARK INTER + INTRA:         -10.955
REMARK INTER:                  -9.833
REMARK INTRA:                  -1.122
REMARK UNBOUND:                -0.880
REMARK  Name = 
REMARK  6 active torsions:
REMARK  status: ('A' for Active; 'I' for Inactive)
REMARK    1  A    between atoms: C_2  and  C_19
REMARK    2  A    between atoms: N_3  and  C_4
REMARK    3  A    between atoms: C_4  and  C_5
REMARK    4  A    between atoms: C_8  and  C_9
REMARK    5  A    between atoms: C_9  and  O_10
REMARK    6  A    between atoms: O_10  and  C_11
REMARK                            x       y       z     vdW  Elec       q    Type
REMARK                         _______ _______ _______ _____ _____    ______ ____
ROOT
ATOM      1  O   UNL     1      49.498   5.885  15.892  0.00  0.00    +0.000 OA
ATOM      2  C   UNL     1      48.999   6.744  15.171  0.00  0.00    +0.000 C 
ATOM      3  N   UNL     1      47.847   6.531  14.460  0.00  0.00    +0.000 N 
ATOM      4  H   UNL     1      47.552   7.210  13.766  0.00  0.00    +0.000 HD
ENDROOT
BRANCH   2   5
ATOM      5  C   UNL     1      49.590   8.083  15.063  0.00  0.00    +0.000 A 
ATOM      6  C   UNL     1      49.709   8.883  16.191  0.00  0.00    +0.000 A 
ATOM      7  S   UNL     1      50.471  10.380  15.887  0.00  0.00    +0.000 S 
ATOM      8  C   UNL     1      50.686   9.997  14.242  0.00  0.00    +0.000 A 
ATOM      9  N   UNL     1      51.335  10.849  13.400  0.00  0.00    +0.000 NA
ATOM     10  C   UNL     1      51.459  10.411  12.195  0.00  0.00    +0.000 A 
ATOM     11  N   UNL     1      50.976   9.211  11.743  0.00  0.00    +0.000 N 
ATOM     12  C   UNL     1      50.239   8.362  12.529  0.00  0.00    +0.000 A 
ATOM     13  O   UNL     1      49.679   7.382  12.054  0.00  0.00    +0.000 OA
ATOM     14  C   UNL     1      50.138   8.770  13.919  0.00  0.00    +0.000 A 
ATOM     15  H   UNL     1      51.063   8.945  10.771  0.00  0.00    +0.000 HD
ENDBRANCH   2   5
BRANCH   3  16
ATOM     16  C   UNL     1      47.164   5.263  14.446  0.00  0.00    +0.000 C 
BRANCH  16  17
ATOM     17  C   UNL     1      46.446   5.010  13.147  0.00  0.00    +0.000 A 
ATOM     18  C   UNL     1      45.812   3.783  12.915  0.00  0.00    +0.000 A 
ATOM     19  C   UNL     1      45.090   3.561  11.738  0.00  0.00    +0.000 A 
ATOM     20  C   UNL     1      45.006   4.557  10.756  0.00  0.00    +0.000 A 
ATOM     21  C   UNL     1      45.650   5.780  10.980  0.00  0.00    +0.000 A 
ATOM     22  C   UNL     1      46.376   6.000  12.157  0.00  0.00    +0.000 A 
BRANCH  20  23
ATOM     23  C   UNL     1      44.232   4.321   9.480  0.00  0.00    +0.000 C 
BRANCH  23  24
ATOM     24  O   UNL     1      44.332   2.948   9.108  0.00  0.00    +0.000 OA
BRANCH  24  25
ATOM     25  C   UNL     1      45.417   2.598   8.353  0.00  0.00    +0.000 A 
ATOM     26  C   UNL     1      46.157   3.436   7.522  0.00  0.00    +0.000 A 
ATOM     27  C   UNL     1      47.252   2.927   6.823  0.00  0.00    +0.000 A 
ATOM     28  C   UNL     1      47.570   1.588   6.974  0.00  0.00    +0.000 A 
ATOM     29  N   UNL     1      46.874   0.740   7.758  0.00  0.00    +0.000 NA
ATOM     30  C   UNL     1      45.816   1.266   8.425  0.00  0.00    +0.000 A 
ENDBRANCH  24  25
ENDBRANCH  23  24
ENDBRANCH  20  23
ENDBRANCH  16  17
ENDBRANCH   3  16
TORSDOF 6
ENDMDL
MODEL 6
REMARK VINA RESULT:    -7.115      3.549      8.203
REMARK INTER + INTRA:         -10.491
REMARK INTER:                  -9.531
REMARK INTRA:                  -0.959
REMARK UNBOUND:                -0.880
REMARK  Name = 
REMARK  6 active torsions:
REMARK  status: ('A' for Active; 'I' for Inactive)
REMARK    1  A    between atoms: C_2  and  C_19
REMARK    2  A    between atoms: N_3  and  C_4
REMARK    3  A    between atoms: C_4  and  C_5
REMARK    4  A    between atoms: C_8  and  C_9
REMARK    5  A    between atoms: C_9  and  O_10
REMARK    6  A    between atoms: O_10  and  C_11
REMARK                            x       y       z     vdW  Elec       q    Type
REMARK                         _______ _______ _______ _____ _____    ______ ____
ROOT
ATOM      1  O   UNL     1      45.561   7.871  11.738  0.00  0.00    +0.000 OA
ATOM      2  C   UNL     1      46.202   6.855  11.490  0.00  0.00    +0.000 C 
ATOM      3  N   UNL     1      47.517   6.707  11.849  0.00  0.00    +0.000 N 
ATOM      4  H   UNL     1      48.048   5.918  11.497  0.00  0.00    +0.000 HD
ENDROOT
BRANCH   2   5
ATOM      5  C   UNL     1      45.578   5.705  10.826  0.00  0.00    +0.000 A 
ATOM      6  C   UNL     1      45.788   5.487   9.471  0.00  0.00    +0.000 A 
ATOM      7  S   UNL     1      45.033   4.074   8.883  0.00  0.00    +0.000 S 
ATOM      8  C   UNL     1      44.418   3.696  10.426  0.00  0.00    +0.000 A 
ATOM      9  N   UNL     1      43.703   2.557  10.639  0.00  0.00    +0.000 NA
ATOM     10  C   UNL     1      43.336   2.382  11.861  0.00  0.00    +0.000 A 
ATOM     11  N   UNL     1      43.597   3.250  12.890  0.00  0.00    +0.000 N 
ATOM     12  C   UNL     1      44.234   4.451  12.706  0.00  0.00    +0.000 A 
ATOM     13  O   UNL     1      44.302   5.277  13.608  0.00  0.00    +0.000 OA
ATOM     14  C   UNL     1      44.740   4.661  11.362  0.00  0.00    +0.000 A 
ATOM     15  H   UNL     1      43.239   3.079  13.820  0.00  0.00    +0.000 HD
ENDBRANCH   2   5
BRANCH   3  16
ATOM     16  C   UNL     1      48.272   7.755  12.486  0.00  0.00    +0.000 C 
BRANCH  16  17
ATOM     17  C   UNL     1      48.886   7.312  13.788  0.00  0.00    +0.000 A 
ATOM     18  C   UNL     1      50.183   7.715  14.132  0.00  0.00    +0.000 A 
ATOM     19  C   UNL     1      50.738   7.360  15.366  0.00  0.00    +0.000 A 
ATOM     20  C   UNL     1      50.015   6.575  16.273  0.00  0.00    +0.000 A 
ATOM     21  C   UNL     1      48.723   6.160  15.925  0.00  0.00    +0.000 A 
ATOM     22  C   UNL     1      48.169   6.512  14.688  0.00  0.00    +0.000 A 
BRANCH  20  23
ATOM     23  C   UNL     1      50.612   6.184  17.605  0.00  0.00    +0.000 C 
BRANCH  23  24
ATOM     24  O   UNL     1      49.990   4.989  18.075  0.00  0.00    +0.000 OA
BRANCH  24  25
ATOM     25  C   UNL     1      50.682   3.826  17.885  0.00  0.00    +0.000 A 
ATOM     26  C   UNL     1      52.007   3.580  18.237  0.00  0.00    +0.000 A 
ATOM     27  C   UNL     1      52.569   2.327  17.988  0.00  0.00    +0.000 A 
ATOM     28  C   UNL     1      51.785   1.357  17.386  0.00  0.00    +0.000 A 
ATOM     29  N   UNL     1      50.502   1.557  17.020  0.00  0.00    +0.000 NA
ATOM     30  C   UNL     1      49.985   2.786  17.278  0.00  0.00    +0.000 A 
ENDBRANCH  24  25
ENDBRANCH  23  24
ENDBRANCH  20  23
ENDBRANCH  16  17
ENDBRANCH   3  16
TORSDOF 6
ENDMDL
MODEL 7
REMARK VINA RESULT:    -7.027      1.669      2.243
REMARK INTER + INTRA:         -10.371
REMARK INTER:                  -9.309
REMARK INTRA:                  -1.062
REMARK UNBOUND:                -0.880
REMARK  Name = 
REMARK  6 active torsions:
REMARK  status: ('A' for Active; 'I' for Inactive)
REMARK    1  A    between atoms: C_2  and  C_19
REMARK    2  A    between atoms: N_3  and  C_4
REMARK    3  A    between atoms: C_4  and  C_5
REMARK    4  A    between atoms: C_8  and  C_9
REMARK    5  A    between atoms: C_9  and  O_10
REMARK    6  A    between atoms: O_10  and  C_11
REMARK                            x       y       z     vdW  Elec       q    Type
REMARK                         _______ _______ _______ _____ _____    ______ ____
ROOT
ATOM      1  O   UNL     1      48.746   8.648  15.598  0.00  0.00    +0.000 OA
ATOM      2  C   UNL     1      48.978   7.451  15.468  0.00  0.00    +0.000 C 
ATOM      3  N   UNL     1      48.758   6.779  14.293  0.00  0.00    +0.000 N 
ATOM      4  H   UNL     1      48.823   5.767  14.273  0.00  0.00    +0.000 HD
ENDROOT
BRANCH   2   5
ATOM      5  C   UNL     1      49.558   6.666  16.564  0.00  0.00    +0.000 A 
ATOM      6  C   UNL     1      50.756   7.060  17.143  0.00  0.00    +0.000 A 
ATOM      7  S   UNL     1      51.247   6.063  18.439  0.00  0.00    +0.000 S 
ATOM      8  C   UNL     1      49.862   5.085  18.281  0.00  0.00    +0.000 A 
ATOM      9  N   UNL     1      49.630   4.051  19.137  0.00  0.00    +0.000 NA
ATOM     10  C   UNL     1      48.525   3.424  18.923  0.00  0.00    +0.000 A 
ATOM     11  N   UNL     1      47.638   3.717  17.920  0.00  0.00    +0.000 N 
ATOM     12  C   UNL     1      47.872   4.690  16.982  0.00  0.00    +0.000 A 
ATOM     13  O   UNL     1      47.146   4.816  16.003  0.00  0.00    +0.000 OA
ATOM     14  C   UNL     1      49.065   5.481  17.224  0.00  0.00    +0.000 A 
ATOM     15  H   UNL     1      46.810   3.156  17.775  0.00  0.00    +0.000 HD
ENDBRANCH   2   5
BRANCH   3  16
ATOM     16  C   UNL     1      48.173   7.407  13.137  0.00  0.00    +0.000 C 
BRANCH  16  17
ATOM     17  C   UNL     1      46.980   6.652  12.613  0.00  0.00    +0.000 A 
ATOM     18  C   UNL     1      46.822   5.290  12.901  0.00  0.00    +0.000 A 
ATOM     19  C   UNL     1      45.687   4.595  12.472  0.00  0.00    +0.000 A 
ATOM     20  C   UNL     1      44.694   5.244  11.725  0.00  0.00    +0.000 A 
ATOM     21  C   UNL     1      44.857   6.603  11.425  0.00  0.00    +0.000 A 
ATOM     22  C   UNL     1      45.995   7.297  11.852  0.00  0.00    +0.000 A 
BRANCH  20  23
ATOM     23  C   UNL     1      43.469   4.498  11.254  0.00  0.00    +0.000 C 
BRANCH  23  24
ATOM     24  O   UNL     1      43.436   4.483   9.828  0.00  0.00    +0.000 OA
BRANCH  24  25
ATOM     25  C   UNL     1      44.396   3.737   9.203  0.00  0.00    +0.000 A 
ATOM     26  C   UNL     1      44.619   2.371   9.359  0.00  0.00    +0.000 A 
ATOM     27  C   UNL     1      45.637   1.749   8.635  0.00  0.00    +0.000 A 
ATOM     28  C   UNL     1      46.407   2.518   7.778  0.00  0.00    +0.000 A 
ATOM     29  N   UNL     1      46.232   3.844   7.607  0.00  0.00    +0.000 NA
ATOM     30  C   UNL     1      45.233   4.418   8.324  0.00  0.00    +0.000 A 
ENDBRANCH  24  25
ENDBRANCH  23  24
ENDBRANCH  20  23
ENDBRANCH  16  17
ENDBRANCH   3  16
TORSDOF 6
ENDMDL
MODEL 8
REMARK VINA RESULT:    -6.935      3.065      4.836
REMARK INTER + INTRA:         -10.248
REMARK INTER:                  -9.408
REMARK INTRA:                  -0.840
REMARK UNBOUND:                -0.880
REMARK  Name = 
REMARK  6 active torsions:
REMARK  status: ('A' for Active; 'I' for Inactive)
REMARK    1  A    between atoms: C_2  and  C_19
REMARK    2  A    between atoms: N_3  and  C_4
REMARK    3  A    between atoms: C_4  and  C_5
REMARK    4  A    between atoms: C_8  and  C_9
REMARK    5  A    between atoms: C_9  and  O_10
REMARK    6  A    between atoms: O_10  and  C_11
REMARK                            x       y       z     vdW  Elec       q    Type
REMARK                         _______ _______ _______ _____ _____    ______ ____
ROOT
ATOM      1  O   UNL     1      48.304   8.150  15.269  0.00  0.00    +0.000 OA
ATOM      2  C   UNL     1      48.865   7.737  14.259  0.00  0.00    +0.000 C 
ATOM      3  N   UNL     1      48.495   6.575  13.633  0.00  0.00    +0.000 N 
ATOM      4  H   UNL     1      49.078   6.196  12.894  0.00  0.00    +0.000 HD
ENDROOT
BRANCH   2   5
ATOM      5  C   UNL     1      49.952   8.496  13.629  0.00  0.00    +0.000 A 
ATOM      6  C   UNL     1      51.265   8.300  14.038  0.00  0.00    +0.000 A 
ATOM      7  S   UNL     1      52.397   9.223  13.156  0.00  0.00    +0.000 S 
ATOM      8  C   UNL     1      51.171   9.899  12.186  0.00  0.00    +0.000 A 
ATOM      9  N   UNL     1      51.470  10.757  11.171  0.00  0.00    +0.000 NA
ATOM     10  C   UNL     1      50.447  11.157  10.497  0.00  0.00    +0.000 A 
ATOM     11  N   UNL     1      49.150  10.799  10.754  0.00  0.00    +0.000 N 
ATOM     12  C   UNL     1      48.793  10.011  11.819  0.00  0.00    +0.000 A 
ATOM     13  O   UNL     1      47.617   9.847  12.121  0.00  0.00    +0.000 OA
ATOM     14  C   UNL     1      49.914   9.467  12.563  0.00  0.00    +0.000 A 
ATOM     15  H   UNL     1      48.385  11.187  10.218  0.00  0.00    +0.000 HD
ENDBRANCH   2   5
BRANCH   3  16
ATOM     16  C   UNL     1      47.463   5.711  14.144  0.00  0.00    +0.000 C 
BRANCH  16  17
ATOM     17  C   UNL     1      46.547   5.205  13.061  0.00  0.00    +0.000 A 
ATOM     18  C   UNL     1      46.248   6.010  11.954  0.00  0.00    +0.000 A 
ATOM     19  C   UNL     1      45.449   5.526  10.913  0.00  0.00    +0.000 A 
ATOM     20  C   UNL     1      44.912   4.233  10.969  0.00  0.00    +0.000 A 
ATOM     21  C   UNL     1      45.199   3.432  12.082  0.00  0.00    +0.000 A 
ATOM     22  C   UNL     1      45.996   3.918  13.125  0.00  0.00    +0.000 A 
BRANCH  20  23
ATOM     23  C   UNL     1      44.043   3.708   9.851  0.00  0.00    +0.000 C 
BRANCH  23  24
ATOM     24  O   UNL     1      44.520   2.428   9.437  0.00  0.00    +0.000 OA
BRANCH  24  25
ATOM     25  C   UNL     1      45.474   2.420   8.458  0.00  0.00    +0.000 A 
ATOM     26  C   UNL     1      46.332   1.369   8.142  0.00  0.00    +0.000 A 
ATOM     27  C   UNL     1      47.248   1.512   7.100  0.00  0.00    +0.000 A 
ATOM     28  C   UNL     1      47.282   2.711   6.407  0.00  0.00    +0.000 A 
ATOM     29  N   UNL     1      46.478   3.756   6.688  0.00  0.00    +0.000 NA
ATOM     30  C   UNL     1      45.597   3.584   7.706  0.00  0.00    +0.000 A 
ENDBRANCH  24  25
ENDBRANCH  23  24
ENDBRANCH  20  23
ENDBRANCH  16  17
ENDBRANCH   3  16
TORSDOF 6
ENDMDL
MODEL 9
REMARK VINA RESULT:    -6.834      4.720      7.222
REMARK INTER + INTRA:         -10.110
REMARK INTER:                  -9.156
REMARK INTRA:                  -0.954
REMARK UNBOUND:                -0.880
REMARK  Name = 
REMARK  6 active torsions:
REMARK  status: ('A' for Active; 'I' for Inactive)
REMARK    1  A    between atoms: C_2  and  C_19
REMARK    2  A    between atoms: N_3  and  C_4
REMARK    3  A    between atoms: C_4  and  C_5
REMARK    4  A    between atoms: C_8  and  C_9
REMARK    5  A    between atoms: C_9  and  O_10
REMARK    6  A    between atoms: O_10  and  C_11
REMARK                            x       y       z     vdW  Elec       q    Type
REMARK                         _______ _______ _______ _____ _____    ______ ____
ROOT
ATOM      1  O   UNL     1      44.268   7.762  11.107  0.00  0.00    +0.000 OA
ATOM      2  C   UNL     1      44.997   6.884  11.558  0.00  0.00    +0.000 C 
ATOM      3  N   UNL     1      46.176   7.162  12.198  0.00  0.00    +0.000 N 
ATOM      4  H   UNL     1      46.816   6.407  12.422  0.00  0.00    +0.000 HD
ENDROOT
BRANCH   2   5
ATOM      5  C   UNL     1      44.620   5.468  11.477  0.00  0.00    +0.000 A 
ATOM      6  C   UNL     1      43.956   4.864  12.537  0.00  0.00    +0.000 A 
ATOM      7  S   UNL     1      43.548   3.233  12.244  0.00  0.00    +0.000 S 
ATOM      8  C   UNL     1      44.226   3.287  10.683  0.00  0.00    +0.000 A 
ATOM      9  N   UNL     1      44.169   2.209   9.853  0.00  0.00    +0.000 NA
ATOM     10  C   UNL     1      44.687   2.408   8.690  0.00  0.00    +0.000 A 
ATOM     11  N   UNL     1      45.278   3.575   8.284  0.00  0.00    +0.000 N 
ATOM     12  C   UNL     1      45.439   4.656   9.114  0.00  0.00    +0.000 A 
ATOM     13  O   UNL     1      46.118   5.619   8.778  0.00  0.00    +0.000 OA
ATOM     14  C   UNL     1      44.802   4.515  10.410  0.00  0.00    +0.000 A 
ATOM     15  H   UNL     1      45.710   3.652   7.373  0.00  0.00    +0.000 HD
ENDBRANCH   2   5
BRANCH   3  16
ATOM     16  C   UNL     1      46.691   8.500  12.335  0.00  0.00    +0.000 C 
BRANCH  16  17
ATOM     17  C   UNL     1      48.147   8.597  11.966  0.00  0.00    +0.000 A 
ATOM     18  C   UNL     1      48.939   7.444  11.895  0.00  0.00    +0.000 A 
ATOM     19  C   UNL     1      50.276   7.517  11.493  0.00  0.00    +0.000 A 
ATOM     20  C   UNL     1      50.858   8.751  11.175  0.00  0.00    +0.000 A 
ATOM     21  C   UNL     1      50.071   9.908  11.258  0.00  0.00    +0.000 A 
ATOM     22  C   UNL     1      48.734   9.834  11.664  0.00  0.00    +0.000 A 
BRANCH  20  23
ATOM     23  C   UNL     1      52.303   8.837  10.746  0.00  0.00    +0.000 C 
BRANCH  23  24
ATOM     24  O   UNL     1      52.388   8.712   9.327  0.00  0.00    +0.000 OA
BRANCH  24  25
ATOM     25  C   UNL     1      52.833   7.513   8.846  0.00  0.00    +0.000 A 
ATOM     26  C   UNL     1      53.622   6.586   9.523  0.00  0.00    +0.000 A 
ATOM     27  C   UNL     1      53.984   5.394   8.895  0.00  0.00    +0.000 A 
ATOM     28  C   UNL     1      53.547   5.167   7.600  0.00  0.00    +0.000 A 
ATOM     29  N   UNL     1      52.792   6.042   6.906  0.00  0.00    +0.000 NA
ATOM     30  C   UNL     1      52.456   7.191   7.545  0.00  0.00    +0.000 A 
ENDBRANCH  24  25
ENDBRANCH  23  24
ENDBRANCH  20  23
ENDBRANCH  16  17
ENDBRANCH   3  16
TORSDOF 6
ENDMDL
