MODEL 1
REMARK VINA RESULT:    -8.517      0.000      0.000
REMARK INTER + INTRA:         -12.476
REMARK INTER:                 -11.754
REMARK INTRA:                  -0.723
REMARK UNBOUND:                -0.723
REMARK  Name = 
REMARK  7 active torsions:
REMARK  status: ('A' for Active; 'I' for Inactive)
REMARK    1  A    between atoms: N_1  and  C_2
REMARK    2  A    between atoms: C_2  and  C_3
REMARK    3  A    between atoms: C_3  and  N_4
REMARK    4  A    between atoms: C_3  and  C_17
REMARK    5  A    between atoms: C_5  and  C_7
REMARK    6  A    between atoms: C_20  and  C_21
REMARK    7  A    between atoms: C_21  and  C_22
REMARK                            x       y       z     vdW  Elec       q    Type
REMARK                         _______ _______ _______ _____ _____    ______ ____
ROOT
ATOM      1  C   UNL     1      46.490   7.779  12.649  0.00  0.00    +0.000 C 
ENDROOT
BRANCH   1   2
ATOM      2  C   UNL     1      45.955   6.597  11.845  0.00  0.00    +0.000 A 
ATOM      3  C   UNL     1      46.308   6.466  10.493  0.00  0.00    +0.000 A 
ATOM      4  C   UNL     1      45.848   5.390   9.730  0.00  0.00    +0.000 A 
ATOM      5  C   UNL     1      45.042   4.397  10.302  0.00  0.00    +0.000 A 
ATOM      6  C   UNL     1      44.686   4.520  11.652  0.00  0.00    +0.000 A 
ATOM      7  C   UNL     1      45.133   5.610  12.413  0.00  0.00    +0.000 A 
BRANCH   5   8
ATOM      8  C   UNL     1      44.559   3.225   9.475  0.00  0.00    +0.000 C 
BRANCH   8   9
ATOM      9  C   UNL     1      45.535   2.667   8.460  0.00  0.00    +0.000 A 
ATOM     10  C   UNL     1      45.864   3.385   7.310  0.00  0.00    +0.000 A 
ATOM     11  C   UNL     1      46.637   2.775   6.323  0.00  0.00    +0.000 A 
ATOM     12  C   UNL     1      47.069   1.468   6.507  0.00  0.00    +0.000 A 
ATOM     13  C   UNL     1      46.721   0.831   7.684  0.00  0.00    +0.000 A 
ATOM     14  N   UNL     1      45.968   1.394   8.656  0.00  0.00    +0.000 NA
ENDBRANCH   8   9
ENDBRANCH   5   8
ENDBRANCH   1   2
BRANCH   1  15
ATOM     15  N   UNL     1      47.012   7.306  13.924  0.00  0.00    +0.000 N 
ATOM     16  C   UNL     1      48.277   6.799  14.064  0.00  0.00    +0.000 C 
ATOM     17  O   UNL     1      49.078   6.761  13.134  0.00  0.00    +0.000 OA
ATOM     18  H   UNL     1      46.358   7.243  14.696  0.00  0.00    +0.000 HD
BRANCH  16  19
ATOM     19  C   UNL     1      48.646   6.318  15.401  0.00  0.00    +0.000 A 
ATOM     20  C   UNL     1      49.617   6.979  16.139  0.00  0.00    +0.000 A 
ATOM     21  S   UNL     1      49.969   6.228  17.631  0.00  0.00    +0.000 S 
ATOM     22  C   UNL     1      48.864   4.966  17.321  0.00  0.00    +0.000 A 
ATOM     23  N   UNL     1      48.726   3.926  18.178  0.00  0.00    +0.000 NA
ATOM     24  C   UNL     1      47.886   3.023  17.787  0.00  0.00    +0.000 A 
ATOM     25  N   UNL     1      47.151   3.088  16.635  0.00  0.00    +0.000 N 
ATOM     26  C   UNL     1      47.188   4.171  15.790  0.00  0.00    +0.000 A 
ATOM     27  O   UNL     1      46.385   4.284  14.872  0.00  0.00    +0.000 OA
ATOM     28  C   UNL     1      48.184   5.164  16.131  0.00  0.00    +0.000 A 
ATOM     29  H   UNL     1      46.463   2.381  16.415  0.00  0.00    +0.000 HD
ENDBRANCH  16  19
ENDBRANCH   1  15
BRANCH   1  30
ATOM     30  C   UNL     1      45.433   8.902  12.865  0.00  0.00    +0.000 C 
BRANCH  30  31
ATOM     31  N   UNL     1      44.419   9.007  11.807  0.00  0.00    +0.000 NA
ATOM     32  H   UNL     1      44.514   8.209  11.179  0.00  0.00    +0.000 HD
ATOM     33  H   UNL     1      44.598   9.837  11.241  0.00  0.00    +0.000 HD
ENDBRANCH  30  31
ENDBRANCH   1  30
TORSDOF 7
ENDMDL
MODEL 2
REMARK VINA RESULT:    -8.138      2.242      2.906
REMARK INTER + INTRA:         -11.953
REMARK INTER:                 -10.756
REMARK INTRA:                  -1.197
REMARK UNBOUND:                -0.723
REMARK  Name = 
REMARK  7 active torsions:
REMARK  status: ('A' for Active; 'I' for Inactive)
REMARK    1  A    between atoms: N_1  and  C_2
REMARK    2  A    between atoms: C_2  and  C_3
REMARK    3  A    between atoms: C_3  and  N_4
REMARK    4  A    between atoms: C_3  and  C_17
REMARK    5  A    between atoms: C_5  and  C_7
REMARK    6  A    between atoms: C_20  and  C_21
REMARK    7  A    between atoms: C_21  and  C_22
REMARK                            x       y       z     vdW  Elec       q    Type
REMARK                         _______ _______ _______ _____ _____    ______ ____
ROOT
ATOM      1  C   UNL     1      47.896   7.214  13.875  0.00  0.00    +0.000 C 
ENDROOT
BRANCH   1   2
ATOM      2  C   UNL     1      46.967   6.442  12.943  0.00  0.00    +0.000 A 
ATOM      3  C   UNL     1      46.540   7.038  11.746  0.00  0.00    +0.000 A 
ATOM      4  C   UNL     1      45.701   6.355  10.862  0.00  0.00    +0.000 A 
ATOM      5  C   UNL     1      45.283   5.046  11.133  0.00  0.00    +0.000 A 
ATOM      6  C   UNL     1      45.707   4.443  12.325  0.00  0.00    +0.000 A 
ATOM      7  C   UNL     1      46.534   5.134  13.222  0.00  0.00    +0.000 A 
BRANCH   5   8
ATOM      8  C   UNL     1      44.387   4.306  10.164  0.00  0.00    +0.000 C 
BRANCH   8   9
ATOM      9  C   UNL     1      45.079   3.525   9.065  0.00  0.00    +0.000 A 
ATOM     10  C   UNL     1      45.267   2.147   9.171  0.00  0.00    +0.000 A 
ATOM     11  C   UNL     1      46.047   1.490   8.222  0.00  0.00    +0.000 A 
ATOM     12  C   UNL     1      46.615   2.219   7.185  0.00  0.00    +0.000 A 
ATOM     13  C   UNL     1      46.363   3.578   7.134  0.00  0.00    +0.000 A 
ATOM     14  N   UNL     1      45.617   4.244   8.045  0.00  0.00    +0.000 NA
ENDBRANCH   8   9
ENDBRANCH   5   8
ENDBRANCH   1   2
BRANCH   1  15
ATOM     15  N   UNL     1      47.874   6.605  15.199  0.00  0.00    +0.000 N 
ATOM     16  C   UNL     1      49.016   6.310  15.897  0.00  0.00    +0.000 C 
ATOM     17  O   UNL     1      50.135   6.590  15.478  0.00  0.00    +0.000 OA
ATOM     18  H   UNL     1      46.977   6.282  15.544  0.00  0.00    +0.000 HD
BRANCH  16  19
ATOM     19  C   UNL     1      48.836   5.655  17.199  0.00  0.00    +0.000 A 
ATOM     20  C   UNL     1      48.990   4.281  17.318  0.00  0.00    +0.000 A 
ATOM     21  S   UNL     1      48.662   3.692  18.886  0.00  0.00    +0.000 S 
ATOM     22  C   UNL     1      48.258   5.250  19.449  0.00  0.00    +0.000 A 
ATOM     23  N   UNL     1      47.807   5.447  20.711  0.00  0.00    +0.000 NA
ATOM     24  C   UNL     1      47.496   6.674  20.980  0.00  0.00    +0.000 A 
ATOM     25  N   UNL     1      47.629   7.720  20.109  0.00  0.00    +0.000 N 
ATOM     26  C   UNL     1      48.176   7.580  18.856  0.00  0.00    +0.000 A 
ATOM     27  O   UNL     1      48.455   8.559  18.175  0.00  0.00    +0.000 OA
ATOM     28  C   UNL     1      48.449   6.212  18.471  0.00  0.00    +0.000 A 
ATOM     29  H   UNL     1      47.429   8.668  20.399  0.00  0.00    +0.000 HD
ENDBRANCH  16  19
ENDBRANCH   1  15
BRANCH   1  30
ATOM     30  C   UNL     1      47.558   8.732  13.958  0.00  0.00    +0.000 C 
BRANCH  30  31
ATOM     31  N   UNL     1      47.424   9.260  15.323  0.00  0.00    +0.000 NA
ATOM     32  H   UNL     1      47.132   8.504  15.942  0.00  0.00    +0.000 HD
ATOM     33  H   UNL     1      46.677   9.955  15.350  0.00  0.00    +0.000 HD
ENDBRANCH  30  31
ENDBRANCH   1  30
TORSDOF 7
ENDMDL
MODEL 3
REMARK VINA RESULT:    -7.920      2.735      4.232
REMARK INTER + INTRA:         -11.652
REMARK INTER:                 -10.336
REMARK INTRA:                  -1.316
REMARK UNBOUND:                -0.723
REMARK  Name = 
REMARK  7 active torsions:
REMARK  status: ('A' for Active; 'I' for Inactive)
REMARK    1  A    between atoms: N_1  and  C_2
REMARK    2  A    between atoms: C_2  and  C_3
REMARK    3  A    between atoms: C_3  and  N_4
REMARK    4  A    between atoms: C_3  and  C_17
REMARK    5  A    between atoms: C_5  and  C_7
REMARK    6  A    between atoms: C_20  and  C_21
REMARK    7  A    between atoms: C_21  and  C_22
REMARK                            x       y       z     vdW  Elec       q    Type
REMARK                         _______ _______ _______ _____ _____    ______ ____
ROOT
ATOM      1  C   UNL     1      46.383   5.773  13.609  0.00  0.00    +0.000 C 
ENDROOT
BRANCH   1   2
ATOM      2  C   UNL     1      45.872   5.148  12.315  0.00  0.00    +0.000 A 
ATOM      3  C   UNL     1      46.020   5.846  11.107  0.00  0.00    +0.000 A 
ATOM      4  C   UNL     1      45.576   5.299   9.900  0.00  0.00    +0.000 A 
ATOM      5  C   UNL     1      44.994   4.025   9.860  0.00  0.00    +0.000 A 
ATOM      6  C   UNL     1      44.844   3.321  11.062  0.00  0.00    +0.000 A 
ATOM      7  C   UNL     1      45.272   3.878  12.276  0.00  0.00    +0.000 A 
BRANCH   5   8
ATOM      8  C   UNL     1      44.528   3.431   8.548  0.00  0.00    +0.000 C 
BRANCH   8   9
ATOM      9  C   UNL     1      45.599   2.823   7.665  0.00  0.00    +0.000 A 
ATOM     10  C   UNL     1      46.242   1.639   8.026  0.00  0.00    +0.000 A 
ATOM     11  C   UNL     1      47.329   1.196   7.275  0.00  0.00    +0.000 A 
ATOM     12  C   UNL     1      47.747   1.939   6.179  0.00  0.00    +0.000 A 
ATOM     13  C   UNL     1      47.044   3.089   5.870  0.00  0.00    +0.000 A 
ATOM     14  N   UNL     1      45.989   3.547   6.584  0.00  0.00    +0.000 NA
ENDBRANCH   8   9
ENDBRANCH   5   8
ENDBRANCH   1   2
BRANCH   1  15
ATOM     15  N   UNL     1      47.491   6.672  13.314  0.00  0.00    +0.000 N 
ATOM     16  C   UNL     1      47.359   8.036  13.321  0.00  0.00    +0.000 C 
ATOM     17  O   UNL     1      46.313   8.595  13.634  0.00  0.00    +0.000 OA
ATOM     18  H   UNL     1      48.347   6.252  12.970  0.00  0.00    +0.000 HD
BRANCH  16  19
ATOM     19  C   UNL     1      48.552   8.810  12.956  0.00  0.00    +0.000 A 
ATOM     20  C   UNL     1      48.457   9.859  12.053  0.00  0.00    +0.000 A 
ATOM     21  S   UNL     1      49.958  10.586  11.691  0.00  0.00    +0.000 S 
ATOM     22  C   UNL     1      50.795   9.492  12.696  0.00  0.00    +0.000 A 
ATOM     23  N   UNL     1      52.146   9.512  12.785  0.00  0.00    +0.000 NA
ATOM     24  C   UNL     1      52.643   8.593  13.549  0.00  0.00    +0.000 A 
ATOM     25  N   UNL     1      51.904   7.684  14.255  0.00  0.00    +0.000 N 
ATOM     26  C   UNL     1      50.530   7.694  14.271  0.00  0.00    +0.000 A 
ATOM     27  O   UNL     1      49.902   6.993  15.056  0.00  0.00    +0.000 OA
ATOM     28  C   UNL     1      49.927   8.638  13.357  0.00  0.00    +0.000 A 
ATOM     29  H   UNL     1      52.348   7.030  14.887  0.00  0.00    +0.000 HD
ENDBRANCH  16  19
ENDBRANCH   1  15
BRANCH   1  30
ATOM     30  C   UNL     1      46.796   4.718  14.678  0.00  0.00    +0.000 C 
BRANCH  30  31
ATOM     31  N   UNL     1      47.826   5.170  15.624  0.00  0.00    +0.000 NA
ATOM     32  H   UNL     1      48.112   4.380  16.203  0.00  0.00    +0.000 HD
ATOM     33  H   UNL     1      47.428   5.860  16.261  0.00  0.00    +0.000 HD
ENDBRANCH  30  31
ENDBRANCH   1  30
TORSDOF 7
ENDMDL
MODEL 4
REMARK VINA RESULT:    -7.544      2.721      4.610
REMARK INTER + INTRA:         -11.134
REMARK INTER:                  -9.763
REMARK INTRA:                  -1.371
REMARK UNBOUND:                -0.723
REMARK  Name = 
REMARK  7 active torsions:
REMARK  status: ('A' for Active; 'I' for Inactive)
REMARK    1  A    between atoms: N_1  and  C_2
REMARK    2  A    between atoms: C_2  and  C_3
REMARK    3  A    between atoms: C_3  and  N_4
REMARK    4  A    between atoms: C_3  and  C_17
REMARK    5  A    between atoms: C_5  and  C_7
REMARK    6  A    between atoms: C_20  and  C_21
REMARK    7  A    between atoms: C_21  and  C_22
REMARK                            x       y       z     vdW  Elec       q    Type
REMARK                         _______ _______ _______ _____ _____    ______ ____
ROOT
ATOM      1  C   UNL     1      47.222   5.731  14.446  0.00  0.00    +0.000 C 
ENDROOT
BRANCH   1   2
ATOM      2  C   UNL     1      46.514   5.286  13.170  0.00  0.00    +0.000 A 
ATOM      3  C   UNL     1      45.946   4.004  13.108  0.00  0.00    +0.000 A 
ATOM      4  C   UNL     1      45.279   3.567  11.961  0.00  0.00    +0.000 A 
ATOM      5  C   UNL     1      45.135   4.408  10.850  0.00  0.00    +0.000 A 
ATOM      6  C   UNL     1      45.698   5.690  10.905  0.00  0.00    +0.000 A 
ATOM      7  C   UNL     1      46.384   6.122  12.048  0.00  0.00    +0.000 A 
BRANCH   5   8
ATOM      8  C   UNL     1      44.398   3.935   9.615  0.00  0.00    +0.000 C 
BRANCH   8   9
ATOM      9  C   UNL     1      45.228   3.231   8.561  0.00  0.00    +0.000 A 
ATOM     10  C   UNL     1      45.586   1.891   8.705  0.00  0.00    +0.000 A 
ATOM     11  C   UNL     1      46.482   1.323   7.801  0.00  0.00    +0.000 A 
ATOM     12  C   UNL     1      46.994   2.100   6.771  0.00  0.00    +0.000 A 
ATOM     13  C   UNL     1      46.572   3.414   6.680  0.00  0.00    +0.000 A 
ATOM     14  N   UNL     1      45.710   3.994   7.546  0.00  0.00    +0.000 NA
ENDBRANCH   8   9
ENDBRANCH   5   8
ENDBRANCH   1   2
BRANCH   1  15
ATOM     15  N   UNL     1      48.519   6.302  14.111  0.00  0.00    +0.000 N 
ATOM     16  C   UNL     1      49.115   7.280  14.864  0.00  0.00    +0.000 C 
ATOM     17  O   UNL     1      48.621   7.702  15.905  0.00  0.00    +0.000 OA
ATOM     18  H   UNL     1      48.921   6.043  13.217  0.00  0.00    +0.000 HD
BRANCH  16  19
ATOM     19  C   UNL     1      50.401   7.791  14.374  0.00  0.00    +0.000 A 
ATOM     20  C   UNL     1      51.549   7.646  15.140  0.00  0.00    +0.000 A 
ATOM     21  S   UNL     1      52.929   8.373  14.446  0.00  0.00    +0.000 S 
ATOM     22  C   UNL     1      52.028   8.946  13.116  0.00  0.00    +0.000 A 
ATOM     23  N   UNL     1      52.597   9.725  12.165  0.00  0.00    +0.000 NA
ATOM     24  C   UNL     1      51.779  10.122  11.244  0.00  0.00    +0.000 A 
ATOM     25  N   UNL     1      50.456   9.781  11.176  0.00  0.00    +0.000 N 
ATOM     26  C   UNL     1      49.866   8.913  12.063  0.00  0.00    +0.000 A 
ATOM     27  O   UNL     1      48.736   8.481  11.868  0.00  0.00    +0.000 OA
ATOM     28  C   UNL     1      50.712   8.518  13.168  0.00  0.00    +0.000 A 
ATOM     29  H   UNL     1      49.883  10.071  10.395  0.00  0.00    +0.000 HD
ENDBRANCH  16  19
ENDBRANCH   1  15
BRANCH   1  30
ATOM     30  C   UNL     1      47.374   4.589  15.494  0.00  0.00    +0.000 C 
BRANCH  30  31
ATOM     31  N   UNL     1      47.214   5.010  16.893  0.00  0.00    +0.000 NA
ATOM     32  H   UNL     1      47.032   4.186  17.467  0.00  0.00    +0.000 HD
ATOM     33  H   UNL     1      46.390   5.606  16.980  0.00  0.00    +0.000 HD
ENDBRANCH  30  31
ENDBRANCH   1  30
TORSDOF 7
ENDMDL
MODEL 5
REMARK VINA RESULT:    -7.318      3.205      7.788
REMARK INTER + INTRA:         -10.821
REMARK INTER:                  -9.484
REMARK INTRA:                  -1.338
REMARK UNBOUND:                -0.723
REMARK  Name = 
REMARK  7 active torsions:
REMARK  status: ('A' for Active; 'I' for Inactive)
REMARK    1  A    between atoms: N_1  and  C_2
REMARK    2  A    between atoms: C_2  and  C_3
REMARK    3  A    between atoms: C_3  and  N_4
REMARK    4  A    between atoms: C_3  and  C_17
REMARK    5  A    between atoms: C_5  and  C_7
REMARK    6  A    between atoms: C_20  and  C_21
REMARK    7  A    between atoms: C_21  and  C_22
REMARK                            x       y       z     vdW  Elec       q    Type
REMARK                         _______ _______ _______ _____ _____    ______ ____
ROOT
ATOM      1  C   UNL     1      48.042   7.404  13.386  0.00  0.00    +0.000 C 
ENDROOT
BRANCH   1   2
ATOM      2  C   UNL     1      48.583   6.712  14.633  0.00  0.00    +0.000 A 
ATOM      3  C   UNL     1      49.832   7.095  15.147  0.00  0.00    +0.000 A 
ATOM      4  C   UNL     1      50.353   6.493  16.295  0.00  0.00    +0.000 A 
ATOM      5  C   UNL     1      49.631   5.507  16.980  0.00  0.00    +0.000 A 
ATOM      6  C   UNL     1      48.383   5.120  16.474  0.00  0.00    +0.000 A 
ATOM      7  C   UNL     1      47.868   5.711  15.311  0.00  0.00    +0.000 A 
BRANCH   5   8
ATOM      8  C   UNL     1      50.194   4.868  18.231  0.00  0.00    +0.000 C 
BRANCH   8   9
ATOM      9  C   UNL     1      51.123   3.688  18.028  0.00  0.00    +0.000 A 
ATOM     10  C   UNL     1      50.678   2.522  17.406  0.00  0.00    +0.000 A 
ATOM     11  C   UNL     1      51.508   1.403  17.381  0.00  0.00    +0.000 A 
ATOM     12  C   UNL     1      52.764   1.474  17.970  0.00  0.00    +0.000 A 
ATOM     13  C   UNL     1      53.143   2.672  18.546  0.00  0.00    +0.000 A 
ATOM     14  N   UNL     1      52.357   3.772  18.591  0.00  0.00    +0.000 NA
ENDBRANCH   8   9
ENDBRANCH   5   8
ENDBRANCH   1   2
BRANCH   1  15
ATOM     15  N   UNL     1      47.405   6.421  12.520  0.00  0.00    +0.000 N 
ATOM     16  C   UNL     1      46.290   6.702  11.775  0.00  0.00    +0.000 C 
ATOM     17  O   UNL     1      45.785   7.820  11.742  0.00  0.00    +0.000 OA
ATOM     18  H   UNL     1      47.739   5.466  12.581  0.00  0.00    +0.000 HD
BRANCH  16  19
ATOM     19  C   UNL     1      45.733   5.596  10.986  0.00  0.00    +0.000 A 
ATOM     20  C   UNL     1      45.808   5.618   9.600  0.00  0.00    +0.000 A 
ATOM     21  S   UNL     1      45.036   4.290   8.855  0.00  0.00    +0.000 S 
ATOM     22  C   UNL     1      44.536   3.664  10.359  0.00  0.00    +0.000 A 
ATOM     23  N   UNL     1      43.754   2.560  10.436  0.00  0.00    +0.000 NA
ATOM     24  C   UNL     1      43.415   2.230  11.641  0.00  0.00    +0.000 A 
ATOM     25  N   UNL     1      43.817   2.888  12.771  0.00  0.00    +0.000 N 
ATOM     26  C   UNL     1      44.690   3.950  12.743  0.00  0.00    +0.000 A 
ATOM     27  O   UNL     1      45.177   4.395  13.775  0.00  0.00    +0.000 OA
ATOM     28  C   UNL     1      45.021   4.418  11.415  0.00  0.00    +0.000 A 
ATOM     29  H   UNL     1      43.572   2.544  13.689  0.00  0.00    +0.000 HD
ENDBRANCH  16  19
ENDBRANCH   1  15
BRANCH   1  30
ATOM     30  C   UNL     1      49.127   8.205  12.609  0.00  0.00    +0.000 C 
BRANCH  30  31
ATOM     31  N   UNL     1      48.610   9.312  11.792  0.00  0.00    +0.000 NA
ATOM     32  H   UNL     1      47.789   9.706  12.251  0.00  0.00    +0.000 HD
ATOM     33  H   UNL     1      48.289   8.953  10.892  0.00  0.00    +0.000 HD
ENDBRANCH  30  31
ENDBRANCH   1  30
TORSDOF 7
ENDMDL
MODEL 6
REMARK VINA RESULT:    -6.814      1.904      2.408
REMARK INTER + INTRA:         -10.125
REMARK INTER:                  -8.877
REMARK INTRA:                  -1.248
REMARK UNBOUND:                -0.723
REMARK  Name = 
REMARK  7 active torsions:
REMARK  status: ('A' for Active; 'I' for Inactive)
REMARK    1  A    between atoms: N_1  and  C_2
REMARK    2  A    between atoms: C_2  and  C_3
REMARK    3  A    between atoms: C_3  and  N_4
REMARK    4  A    between atoms: C_3  and  C_17
REMARK    5  A    between atoms: C_5  and  C_7
REMARK    6  A    between atoms: C_20  and  C_21
REMARK    7  A    between atoms: C_21  and  C_22
REMARK                            x       y       z     vdW  Elec       q    Type
REMARK                         _______ _______ _______ _____ _____    ______ ____
ROOT
ATOM      1  C   UNL     1      47.971   8.323  13.759  0.00  0.00    +0.000 C 
ENDROOT
BRANCH   1   2
ATOM      2  C   UNL     1      47.059   7.345  13.025  0.00  0.00    +0.000 A 
ATOM      3  C   UNL     1      46.267   7.806  11.963  0.00  0.00    +0.000 A 
ATOM      4  C   UNL     1      45.430   6.936  11.259  0.00  0.00    +0.000 A 
ATOM      5  C   UNL     1      45.378   5.573  11.578  0.00  0.00    +0.000 A 
ATOM      6  C   UNL     1      46.168   5.105  12.636  0.00  0.00    +0.000 A 
ATOM      7  C   UNL     1      46.994   5.980  13.355  0.00  0.00    +0.000 A 
BRANCH   5   8
ATOM      8  C   UNL     1      44.482   4.633  10.802  0.00  0.00    +0.000 C 
BRANCH   8   9
ATOM      9  C   UNL     1      45.135   3.846   9.684  0.00  0.00    +0.000 A 
ATOM     10  C   UNL     1      45.684   4.491   8.576  0.00  0.00    +0.000 A 
ATOM     11  C   UNL     1      46.130   3.732   7.496  0.00  0.00    +0.000 A 
ATOM     12  C   UNL     1      46.025   2.349   7.546  0.00  0.00    +0.000 A 
ATOM     13  C   UNL     1      45.491   1.780   8.689  0.00  0.00    +0.000 A 
ATOM     14  N   UNL     1      45.044   2.491   9.750  0.00  0.00    +0.000 NA
ENDBRANCH   8   9
ENDBRANCH   5   8
ENDBRANCH   1   2
BRANCH   1  15
ATOM     15  N   UNL     1      47.939   8.041  15.188  0.00  0.00    +0.000 N 
ATOM     16  C   UNL     1      49.056   8.103  15.980  0.00  0.00    +0.000 C 
ATOM     17  O   UNL     1      50.149   8.455  15.550  0.00  0.00    +0.000 OA
ATOM     18  H   UNL     1      47.076   7.667  15.566  0.00  0.00    +0.000 HD
BRANCH  16  19
ATOM     19  C   UNL     1      48.876   7.746  17.393  0.00  0.00    +0.000 A 
ATOM     20  C   UNL     1      48.874   8.733  18.369  0.00  0.00    +0.000 A 
ATOM     21  S   UNL     1      48.736   8.122  19.957  0.00  0.00    +0.000 S 
ATOM     22  C   UNL     1      48.720   6.511  19.396  0.00  0.00    +0.000 A 
ATOM     23  N   UNL     1      48.694   5.467  20.259  0.00  0.00    +0.000 NA
ATOM     24  C   UNL     1      48.733   4.305  19.689  0.00  0.00    +0.000 A 
ATOM     25  N   UNL     1      48.761   4.101  18.337  0.00  0.00    +0.000 N 
ATOM     26  C   UNL     1      48.686   5.129  17.428  0.00  0.00    +0.000 A 
ATOM     27  O   UNL     1      48.523   4.907  16.234  0.00  0.00    +0.000 OA
ATOM     28  C   UNL     1      48.740   6.452  18.012  0.00  0.00    +0.000 A 
ATOM     29  H   UNL     1      48.725   3.168  17.950  0.00  0.00    +0.000 HD
ENDBRANCH  16  19
ENDBRANCH   1  15
BRANCH   1  30
ATOM     30  C   UNL     1      47.622   9.815  13.481  0.00  0.00    +0.000 C 
BRANCH  30  31
ATOM     31  N   UNL     1      48.553  10.787  14.071  0.00  0.00    +0.000 NA
ATOM     32  H   UNL     1      49.366  10.287  14.433  0.00  0.00    +0.000 HD
ATOM     33  H   UNL     1      48.114  11.237  14.875  0.00  0.00    +0.000 HD
ENDBRANCH  30  31
ENDBRANCH   1  30
TORSDOF 7
ENDMDL
MODEL 7
REMARK VINA RESULT:    -6.726      2.659      4.171
REMARK INTER + INTRA:         -10.004
REMARK INTER:                 -10.093
REMARK INTRA:                   0.089
REMARK UNBOUND:                -0.723
REMARK  Name = 
REMARK  7 active torsions:
REMARK  status: ('A' for Active; 'I' for Inactive)
REMARK    1  A    between atoms: N_1  and  C_2
REMARK    2  A    between atoms: C_2  and  C_3
REMARK    3  A    between atoms: C_3  and  N_4
REMARK    4  A    between atoms: C_3  and  C_17
REMARK    5  A    between atoms: C_5  and  C_7
REMARK    6  A    between atoms: C_20  and  C_21
REMARK    7  A    between atoms: C_21  and  C_22
REMARK                            x       y       z     vdW  Elec       q    Type
REMARK                         _______ _______ _______ _____ _____    ______ ____
ROOT
ATOM      1  C   UNL     1      46.527   5.494  14.298  0.00  0.00    +0.000 C 
ENDROOT
BRANCH   1   2
ATOM      2  C   UNL     1      45.947   5.103  12.942  0.00  0.00    +0.000 A 
ATOM      3  C   UNL     1      46.252   5.877  11.813  0.00  0.00    +0.000 A 
ATOM      4  C   UNL     1      45.749   5.542  10.553  0.00  0.00    +0.000 A 
ATOM      5  C   UNL     1      44.946   4.408  10.379  0.00  0.00    +0.000 A 
ATOM      6  C   UNL     1      44.637   3.629  11.502  0.00  0.00    +0.000 A 
ATOM      7  C   UNL     1      45.127   3.975  12.770  0.00  0.00    +0.000 A 
BRANCH   5   8
ATOM      8  C   UNL     1      44.416   4.040   9.010  0.00  0.00    +0.000 C 
BRANCH   8   9
ATOM      9  C   UNL     1      45.316   3.179   8.146  0.00  0.00    +0.000 A 
ATOM     10  C   UNL     1      45.673   1.890   8.542  0.00  0.00    +0.000 A 
ATOM     11  C   UNL     1      46.627   1.191   7.806  0.00  0.00    +0.000 A 
ATOM     12  C   UNL     1      47.198   1.787   6.690  0.00  0.00    +0.000 A 
ATOM     13  C   UNL     1      46.775   3.059   6.347  0.00  0.00    +0.000 A 
ATOM     14  N   UNL     1      45.856   3.765   7.045  0.00  0.00    +0.000 NA
ENDBRANCH   8   9
ENDBRANCH   5   8
ENDBRANCH   1   2
BRANCH   1  15
ATOM     15  N   UNL     1      47.557   6.508  14.114  0.00  0.00    +0.000 N 
ATOM     16  C   UNL     1      48.453   6.840  15.097  0.00  0.00    +0.000 C 
ATOM     17  O   UNL     1      48.485   6.264  16.181  0.00  0.00    +0.000 OA
ATOM     18  H   UNL     1      47.513   7.063  13.268  0.00  0.00    +0.000 HD
BRANCH  16  19
ATOM     19  C   UNL     1      49.402   7.914  14.781  0.00  0.00    +0.000 A 
ATOM     20  C   UNL     1      50.314   7.760  13.747  0.00  0.00    +0.000 A 
ATOM     21  S   UNL     1      51.388   9.077  13.583  0.00  0.00    +0.000 S 
ATOM     22  C   UNL     1      50.699   9.879  14.920  0.00  0.00    +0.000 A 
ATOM     23  N   UNL     1      51.207  11.049  15.376  0.00  0.00    +0.000 NA
ATOM     24  C   UNL     1      50.610  11.515  16.426  0.00  0.00    +0.000 A 
ATOM     25  N   UNL     1      49.534  10.930  17.035  0.00  0.00    +0.000 N 
ATOM     26  C   UNL     1      48.927   9.798  16.545  0.00  0.00    +0.000 A 
ATOM     27  O   UNL     1      47.858   9.407  16.998  0.00  0.00    +0.000 OA
ATOM     28  C   UNL     1      49.615   9.183  15.431  0.00  0.00    +0.000 A 
ATOM     29  H   UNL     1      49.070  11.376  17.814  0.00  0.00    +0.000 HD
ENDBRANCH  16  19
ENDBRANCH   1  15
BRANCH   1  30
ATOM     30  C   UNL     1      47.083   4.279  15.100  0.00  0.00    +0.000 C 
BRANCH  30  31
ATOM     31  N   UNL     1      47.630   3.194  14.274  0.00  0.00    +0.000 NA
ATOM     32  H   UNL     1      46.879   2.543  14.044  0.00  0.00    +0.000 HD
ATOM     33  H   UNL     1      48.313   2.662  14.815  0.00  0.00    +0.000 HD
ENDBRANCH  30  31
ENDBRANCH   1  30
TORSDOF 7
ENDMDL
MODEL 8
REMARK VINA RESULT:    -6.642      4.062      5.589
REMARK INTER + INTRA:          -9.888
REMARK INTER:                  -8.744
REMARK INTRA:                  -1.143
REMARK UNBOUND:                -0.723
REMARK  Name = 
REMARK  7 active torsions:
REMARK  status: ('A' for Active; 'I' for Inactive)
REMARK    1  A    between atoms: N_1  and  C_2
REMARK    2  A    between atoms: C_2  and  C_3
REMARK    3  A    between atoms: C_3  and  N_4
REMARK    4  A    between atoms: C_3  and  C_17
REMARK    5  A    between atoms: C_5  and  C_7
REMARK    6  A    between atoms: C_20  and  C_21
REMARK    7  A    between atoms: C_21  and  C_22
REMARK                            x       y       z     vdW  Elec       q    Type
REMARK                         _______ _______ _______ _____ _____    ______ ____
ROOT
ATOM      1  C   UNL     1      47.561   8.720  13.356  0.00  0.00    +0.000 C 
ENDROOT
BRANCH   1   2
ATOM      2  C   UNL     1      46.670   7.687  12.674  0.00  0.00    +0.000 A 
ATOM      3  C   UNL     1      45.538   8.114  11.964  0.00  0.00    +0.000 A 
ATOM      4  C   UNL     1      44.706   7.197  11.315  0.00  0.00    +0.000 A 
ATOM      5  C   UNL     1      44.996   5.826  11.334  0.00  0.00    +0.000 A 
ATOM      6  C   UNL     1      46.126   5.392  12.040  0.00  0.00    +0.000 A 
ATOM      7  C   UNL     1      46.950   6.310  12.706  0.00  0.00    +0.000 A 
BRANCH   5   8
ATOM      8  C   UNL     1      44.101   4.839  10.617  0.00  0.00    +0.000 C 
BRANCH   8   9
ATOM      9  C   UNL     1      44.754   3.992   9.543  0.00  0.00    +0.000 A 
ATOM     10  C   UNL     1      44.791   2.602   9.648  0.00  0.00    +0.000 A 
ATOM     11  C   UNL     1      45.538   1.868   8.728  0.00  0.00    +0.000 A 
ATOM     12  C   UNL     1      46.224   2.535   7.721  0.00  0.00    +0.000 A 
ATOM     13  C   UNL     1      46.119   3.913   7.669  0.00  0.00    +0.000 A 
ATOM     14  N   UNL     1      45.407   4.652   8.552  0.00  0.00    +0.000 NA
ENDBRANCH   8   9
ENDBRANCH   5   8
ENDBRANCH   1   2
BRANCH   1  15
ATOM     15  N   UNL     1      48.717   9.000  12.514  0.00  0.00    +0.000 N 
ATOM     16  C   UNL     1      49.167  10.272  12.275  0.00  0.00    +0.000 C 
ATOM     17  O   UNL     1      48.662  11.259  12.799  0.00  0.00    +0.000 OA
ATOM     18  H   UNL     1      49.111   8.222  11.997  0.00  0.00    +0.000 HD
BRANCH  16  19
ATOM     19  C   UNL     1      50.315  10.400  11.367  0.00  0.00    +0.000 A 
ATOM     20  C   UNL     1      50.305  11.350  10.356  0.00  0.00    +0.000 A 
ATOM     21  S   UNL     1      51.686  11.294   9.354  0.00  0.00    +0.000 S 
ATOM     22  C   UNL     1      52.324   9.965  10.212  0.00  0.00    +0.000 A 
ATOM     23  N   UNL     1      53.473   9.363   9.821  0.00  0.00    +0.000 NA
ATOM     24  C   UNL     1      53.808   8.340  10.540  0.00  0.00    +0.000 A 
ATOM     25  N   UNL     1      53.114   7.892  11.630  0.00  0.00    +0.000 N 
ATOM     26  C   UNL     1      52.001   8.534  12.118  0.00  0.00    +0.000 A 
ATOM     27  O   UNL     1      51.514   8.223  13.198  0.00  0.00    +0.000 OA
ATOM     28  C   UNL     1      51.529   9.625  11.294  0.00  0.00    +0.000 A 
ATOM     29  H   UNL     1      53.461   7.125  12.190  0.00  0.00    +0.000 HD
ENDBRANCH  16  19
ENDBRANCH   1  15
BRANCH   1  30
ATOM     30  C   UNL     1      48.008   8.296  14.786  0.00  0.00    +0.000 C 
BRANCH  30  31
ATOM     31  N   UNL     1      47.659   9.249  15.849  0.00  0.00    +0.000 NA
ATOM     32  H   UNL     1      48.420   9.278  16.529  0.00  0.00    +0.000 HD
ATOM     33  H   UNL     1      46.839   8.914  16.355  0.00  0.00    +0.000 HD
ENDBRANCH  30  31
ENDBRANCH   1  30
TORSDOF 7
ENDMDL
MODEL 9
REMARK VINA RESULT:    -6.552      3.999      7.053
REMARK INTER + INTRA:          -9.765
REMARK INTER:                  -9.091
REMARK INTRA:                  -0.674
REMARK UNBOUND:                -0.723
REMARK  Name = 
REMARK  7 active torsions:
REMARK  status: ('A' for Active; 'I' for Inactive)
REMARK    1  A    between atoms: N_1  and  C_2
REMARK    2  A    between atoms: C_2  and  C_3
REMARK    3  A    between atoms: C_3  and  N_4
REMARK    4  A    between atoms: C_3  and  C_17
REMARK    5  A    between atoms: C_5  and  C_7
REMARK    6  A    between atoms: C_20  and  C_21
REMARK    7  A    between atoms: C_21  and  C_22
REMARK                            x       y       z     vdW  Elec       q    Type
REMARK                         _______ _______ _______ _____ _____    ______ ____
ROOT
ATOM      1  C   UNL     1      45.274   8.336  12.070  0.00  0.00    +0.000 C 
ENDROOT
BRANCH   1   2
ATOM      2  C   UNL     1      46.796   8.447  12.059  0.00  0.00    +0.000 A 
ATOM      3  C   UNL     1      47.572   7.278  12.033  0.00  0.00    +0.000 A 
ATOM      4  C   UNL     1      48.968   7.341  12.008  0.00  0.00    +0.000 A 
ATOM      5  C   UNL     1      49.631   8.575  11.982  0.00  0.00    +0.000 A 
ATOM      6  C   UNL     1      48.862   9.747  12.006  0.00  0.00    +0.000 A 
ATOM      7  C   UNL     1      47.462   9.684  12.050  0.00  0.00    +0.000 A 
BRANCH   5   8
ATOM      8  C   UNL     1      51.142   8.638  11.939  0.00  0.00    +0.000 C 
BRANCH   8   9
ATOM      9  C   UNL     1      51.787   8.465  10.579  0.00  0.00    +0.000 A 
ATOM     10  C   UNL     1      52.086   7.197  10.082  0.00  0.00    +0.000 A 
ATOM     11  C   UNL     1      52.823   7.082   8.904  0.00  0.00    +0.000 A 
ATOM     12  C   UNL     1      53.238   8.232   8.246  0.00  0.00    +0.000 A 
ATOM     13  C   UNL     1      52.881   9.454   8.788  0.00  0.00    +0.000 A 
ATOM     14  N   UNL     1      52.173   9.596   9.932  0.00  0.00    +0.000 NA
ENDBRANCH   8   9
ENDBRANCH   5   8
ENDBRANCH   1   2
BRANCH   1  15
ATOM     15  N   UNL     1      44.875   7.035  11.551  0.00  0.00    +0.000 N 
ATOM     16  C   UNL     1      44.762   5.924  12.346  0.00  0.00    +0.000 C 
ATOM     17  O   UNL     1      44.933   5.963  13.561  0.00  0.00    +0.000 OA
ATOM     18  H   UNL     1      44.806   6.940  10.544  0.00  0.00    +0.000 HD
BRANCH  16  19
ATOM     19  C   UNL     1      44.396   4.672  11.672  0.00  0.00    +0.000 A 
ATOM     20  C   UNL     1      43.594   3.740  12.315  0.00  0.00    +0.000 A 
ATOM     21  S   UNL     1      43.345   2.314  11.410  0.00  0.00    +0.000 S 
ATOM     22  C   UNL     1      44.339   2.877  10.144  0.00  0.00    +0.000 A 
ATOM     23  N   UNL     1      44.617   2.099   9.070  0.00  0.00    +0.000 NA
ATOM     24  C   UNL     1      45.423   2.642   8.214  0.00  0.00    +0.000 A 
ATOM     25  N   UNL     1      45.944   3.902   8.325  0.00  0.00    +0.000 N 
ATOM     26  C   UNL     1      45.608   4.758   9.346  0.00  0.00    +0.000 A 
ATOM     27  O   UNL     1      45.939   5.937   9.317  0.00  0.00    +0.000 OA
ATOM     28  C   UNL     1      44.788   4.166  10.380  0.00  0.00    +0.000 A 
ATOM     29  H   UNL     1      46.518   4.295   7.591  0.00  0.00    +0.000 HD
ENDBRANCH  16  19
ENDBRANCH   1  15
BRANCH   1  30
ATOM     30  C   UNL     1      44.570   9.484  11.288  0.00  0.00    +0.000 C 
BRANCH  30  31
ATOM     31  N   UNL     1      43.820  10.431  12.124  0.00  0.00    +0.000 NA
ATOM     32  H   UNL     1      43.881  11.360  11.707  0.00  0.00    +0.000 HD
ATOM     33  H   UNL     1      44.259  10.501  13.042  0.00  0.00    +0.000 HD
ENDBRANCH  30  31
ENDBRANCH   1  30
TORSDOF 7
ENDMDL
