MODEL 1
REMARK VINA RESULT:    -8.167      0.000      0.000
REMARK INTER + INTRA:         -13.452
REMARK INTER:                 -11.987
REMARK INTRA:                  -1.465
REMARK UNBOUND:                -1.465
REMARK  Name = 
REMARK  9 active torsions:
REMARK  status: ('A' for Active; 'I' for Inactive)
REMARK    1  A    between atoms: C_1  and  O_2
REMARK    2  A    between atoms: O_2  and  C_3
REMARK    3  A    between atoms: C_10  and  C_11
REMARK    4  A    between atoms: N_13  and  C_14
REMARK    5  A    between atoms: C_14  and  C_15
REMARK    6  A    between atoms: C_18  and  C_19
REMARK    7  A    between atoms: C_19  and  O_20
REMARK    8  A    between atoms: O_20  and  C_21
REMARK    9  A    between atoms: C_21  and  C_22
REMARK                            x       y       z     vdW  Elec       q    Type
REMARK                         _______ _______ _______ _____ _____    ______ ____
ROOT
ATOM      1  C   UNL     1      48.311   6.643  13.474  0.00  0.00    +0.000 C 
ENDROOT
BRANCH   1   2
ATOM      2  C   UNL     1      47.031   6.143  12.860  0.00  0.00    +0.000 A 
ATOM      3  C   UNL     1      46.608   6.616  11.611  0.00  0.00    +0.000 A 
ATOM      4  C   UNL     1      45.391   6.198  11.070  0.00  0.00    +0.000 A 
ATOM      5  C   UNL     1      44.571   5.303  11.770  0.00  0.00    +0.000 A 
ATOM      6  C   UNL     1      44.995   4.827  13.018  0.00  0.00    +0.000 A 
ATOM      7  C   UNL     1      46.212   5.246  13.558  0.00  0.00    +0.000 A 
BRANCH   5   8
ATOM      8  C   UNL     1      43.264   4.842  11.176  0.00  0.00    +0.000 C 
BRANCH   8   9
ATOM      9  O   UNL     1      43.448   4.168   9.930  0.00  0.00    +0.000 OA
BRANCH   9  10
ATOM     10  C   UNL     1      44.164   2.943  10.075  0.00  0.00    +0.000 C 
BRANCH  10  11
ATOM     11  C   UNL     1      45.171   2.825   8.964  0.00  0.00    +0.000 A 
ATOM     12  C   UNL     1      45.592   3.964   8.258  0.00  0.00    +0.000 A 
ATOM     13  C   UNL     1      46.553   3.863   7.249  0.00  0.00    +0.000 A 
ATOM     14  C   UNL     1      47.102   2.622   6.935  0.00  0.00    +0.000 A 
ATOM     15  C   UNL     1      46.678   1.492   7.626  0.00  0.00    +0.000 A 
ATOM     16  F   UNL     1      47.206   0.299   7.321  0.00  0.00    +0.000 F 
ATOM     17  C   UNL     1      45.721   1.580   8.631  0.00  0.00    +0.000 A 
ENDBRANCH  10  11
ENDBRANCH   9  10
ENDBRANCH   8   9
ENDBRANCH   5   8
ENDBRANCH   1   2
BRANCH   1  20
ATOM     18  C   UNL     1      49.207   7.188  15.689  0.00  0.00    +0.000 C 
ATOM     19  O   UNL     1      50.203   7.698  15.178  0.00  0.00    +0.000 OA
ATOM     20  N   UNL     1      48.225   6.637  14.914  0.00  0.00    +0.000 N 
ATOM     21  H   UNL     1      47.412   6.212  15.340  0.00  0.00    +0.000 HD
BRANCH  18  29
ATOM     22  C   UNL     1      48.852   4.631  17.986  0.00  0.00    +0.000 A 
ATOM     23  N   UNL     1      48.670   3.860  19.079  0.00  0.00    +0.000 NA
ATOM     24  C   UNL     1      48.527   4.462  20.261  0.00  0.00    +0.000 A 
ATOM     25  N   UNL     1      48.544   5.770  20.499  0.00  0.00    +0.000 NA
ATOM     26  C   UNL     1      48.722   6.503  19.388  0.00  0.00    +0.000 A 
ATOM     27  S   UNL     1      48.773   8.197  19.509  0.00  0.00    +0.000 S 
ATOM     28  C   UNL     1      48.992   8.357  17.834  0.00  0.00    +0.000 A 
ATOM     29  C   UNL     1      49.036   7.148  17.150  0.00  0.00    +0.000 A 
ATOM     30  C   UNL     1      48.882   6.035  18.086  0.00  0.00    +0.000 A 
BRANCH  22  32
ATOM     31  C   UNL     1      47.860   3.316  16.310  0.00  0.00    +0.000 C 
ATOM     32  O   UNL     1      49.022   4.008  16.765  0.00  0.00    +0.000 OA
ENDBRANCH  22  32
ENDBRANCH  18  29
ENDBRANCH   1  20
TORSDOF 8
ENDMDL
MODEL 2
REMARK VINA RESULT:    -8.066      1.546      2.563
REMARK INTER + INTRA:         -13.304
REMARK INTER:                 -11.844
REMARK INTRA:                  -1.460
REMARK UNBOUND:                -1.465
REMARK  Name = 
REMARK  9 active torsions:
REMARK  status: ('A' for Active; 'I' for Inactive)
REMARK    1  A    between atoms: C_1  and  O_2
REMARK    2  A    between atoms: O_2  and  C_3
REMARK    3  A    between atoms: C_10  and  C_11
REMARK    4  A    between atoms: N_13  and  C_14
REMARK    5  A    between atoms: C_14  and  C_15
REMARK    6  A    between atoms: C_18  and  C_19
REMARK    7  A    between atoms: C_19  and  O_20
REMARK    8  A    between atoms: O_20  and  C_21
REMARK    9  A    between atoms: C_21  and  C_22
REMARK                            x       y       z     vdW  Elec       q    Type
REMARK                         _______ _______ _______ _____ _____    ______ ____
ROOT
ATOM      1  C   UNL     1      48.356   6.492  13.860  0.00  0.00    +0.000 C 
ENDROOT
BRANCH   1   2
ATOM      2  C   UNL     1      47.123   6.093  13.095  0.00  0.00    +0.000 A 
ATOM      3  C   UNL     1      46.850   6.653  11.840  0.00  0.00    +0.000 A 
ATOM      4  C   UNL     1      45.676   6.329  11.159  0.00  0.00    +0.000 A 
ATOM      5  C   UNL     1      44.749   5.441  11.722  0.00  0.00    +0.000 A 
ATOM      6  C   UNL     1      45.022   4.878  12.975  0.00  0.00    +0.000 A 
ATOM      7  C   UNL     1      46.196   5.204  13.656  0.00  0.00    +0.000 A 
BRANCH   5   8
ATOM      8  C   UNL     1      43.489   5.080  10.975  0.00  0.00    +0.000 C 
BRANCH   8   9
ATOM      9  O   UNL     1      43.766   4.487   9.707  0.00  0.00    +0.000 OA
BRANCH   9  10
ATOM     10  C   UNL     1      44.160   3.121   9.820  0.00  0.00    +0.000 C 
BRANCH  10  11
ATOM     11  C   UNL     1      45.213   2.822   8.789  0.00  0.00    +0.000 A 
ATOM     12  C   UNL     1      45.754   3.852   8.001  0.00  0.00    +0.000 A 
ATOM     13  C   UNL     1      46.757   3.585   7.067  0.00  0.00    +0.000 A 
ATOM     14  C   UNL     1      47.229   2.284   6.910  0.00  0.00    +0.000 A 
ATOM     15  C   UNL     1      46.687   1.261   7.680  0.00  0.00    +0.000 A 
ATOM     16  F   UNL     1      47.142   0.010   7.526  0.00  0.00    +0.000 F 
ATOM     17  C   UNL     1      45.687   1.515   8.612  0.00  0.00    +0.000 A 
ENDBRANCH  10  11
ENDBRANCH   9  10
ENDBRANCH   8   9
ENDBRANCH   5   8
ENDBRANCH   1   2
BRANCH   1  20
ATOM     18  C   UNL     1      48.995   6.420  16.226  0.00  0.00    +0.000 C 
ATOM     19  O   UNL     1      50.123   6.036  15.925  0.00  0.00    +0.000 OA
ATOM     20  N   UNL     1      48.056   6.663  15.261  0.00  0.00    +0.000 N 
ATOM     21  H   UNL     1      47.127   6.972  15.515  0.00  0.00    +0.000 HD
BRANCH  18  29
ATOM     22  C   UNL     1      47.812   9.138  18.001  0.00  0.00    +0.000 A 
ATOM     23  N   UNL     1      47.378  10.013  18.933  0.00  0.00    +0.000 NA
ATOM     24  C   UNL     1      47.237   9.583  20.187  0.00  0.00    +0.000 A 
ATOM     25  N   UNL     1      47.477   8.357  20.645  0.00  0.00    +0.000 NA
ATOM     26  C   UNL     1      47.912   7.518  19.690  0.00  0.00    +0.000 A 
ATOM     27  S   UNL     1      48.266   5.908  20.099  0.00  0.00    +0.000 S 
ATOM     28  C   UNL     1      48.717   5.552  18.503  0.00  0.00    +0.000 A 
ATOM     29  C   UNL     1      48.609   6.629  17.630  0.00  0.00    +0.000 A 
ATOM     30  C   UNL     1      48.117   7.807  18.344  0.00  0.00    +0.000 A 
BRANCH  22  32
ATOM     31  C   UNL     1      49.223  10.125  16.402  0.00  0.00    +0.000 C 
ATOM     32  O   UNL     1      47.939   9.577  16.698  0.00  0.00    +0.000 OA
ENDBRANCH  22  32
ENDBRANCH  18  29
ENDBRANCH   1  20
TORSDOF 8
ENDMDL
MODEL 3
REMARK VINA RESULT:    -7.424      1.601      2.825
REMARK INTER + INTRA:         -12.361
REMARK INTER:                 -11.280
REMARK INTRA:                  -1.082
REMARK UNBOUND:                -1.465
REMARK  Name = 
REMARK  9 active torsions:
REMARK  status: ('A' for Active; 'I' for Inactive)
REMARK    1  A    between atoms: C_1  and  O_2
REMARK    2  A    between atoms: O_2  and  C_3
REMARK    3  A    between atoms: C_10  and  C_11
REMARK    4  A    between atoms: N_13  and  C_14
REMARK    5  A    between atoms: C_14  and  C_15
REMARK    6  A    between atoms: C_18  and  C_19
REMARK    7  A    between atoms: C_19  and  O_20
REMARK    8  A    between atoms: O_20  and  C_21
REMARK    9  A    between atoms: C_21  and  C_22
REMARK                            x       y       z     vdW  Elec       q    Type
REMARK                         _______ _______ _______ _____ _____    ______ ____
ROOT
ATOM      1  C   UNL     1      47.230   3.886  15.259  0.00  0.00    +0.000 C 
ENDROOT
BRANCH   1   2
ATOM      2  C   UNL     1      46.673   4.426  13.970  0.00  0.00    +0.000 A 
ATOM      3  C   UNL     1      45.781   3.665  13.205  0.00  0.00    +0.000 A 
ATOM      4  C   UNL     1      45.312   4.142  11.979  0.00  0.00    +0.000 A 
ATOM      5  C   UNL     1      45.730   5.388  11.494  0.00  0.00    +0.000 A 
ATOM      6  C   UNL     1      46.619   6.152  12.260  0.00  0.00    +0.000 A 
ATOM      7  C   UNL     1      47.088   5.674  13.485  0.00  0.00    +0.000 A 
BRANCH   5   8
ATOM      8  C   UNL     1      45.208   5.907  10.177  0.00  0.00    +0.000 C 
BRANCH   8   9
ATOM      9  O   UNL     1      45.784   5.223   9.064  0.00  0.00    +0.000 OA
BRANCH   9  10
ATOM     10  C   UNL     1      44.991   4.115   8.638  0.00  0.00    +0.000 C 
BRANCH  10  11
ATOM     11  C   UNL     1      45.864   3.138   7.900  0.00  0.00    +0.000 A 
ATOM     12  C   UNL     1      46.685   3.569   6.845  0.00  0.00    +0.000 A 
ATOM     13  C   UNL     1      47.523   2.672   6.179  0.00  0.00    +0.000 A 
ATOM     14  C   UNL     1      47.547   1.332   6.561  0.00  0.00    +0.000 A 
ATOM     15  C   UNL     1      46.726   0.901   7.598  0.00  0.00    +0.000 A 
ATOM     16  F   UNL     1      46.750  -0.388   7.962  0.00  0.00    +0.000 F 
ATOM     17  C   UNL     1      45.887   1.786   8.266  0.00  0.00    +0.000 A 
ENDBRANCH  10  11
ENDBRANCH   9  10
ENDBRANCH   8   9
ENDBRANCH   5   8
ENDBRANCH   1   2
BRANCH   1  20
ATOM     18  C   UNL     1      47.856   4.704  17.484  0.00  0.00    +0.000 C 
ATOM     19  O   UNL     1      47.921   3.551  17.906  0.00  0.00    +0.000 OA
ATOM     20  N   UNL     1      47.514   4.956  16.184  0.00  0.00    +0.000 N 
ATOM     21  H   UNL     1      47.454   5.907  15.844  0.00  0.00    +0.000 HD
BRANCH  18  29
ATOM     22  C   UNL     1      50.061   7.358  17.303  0.00  0.00    +0.000 A 
ATOM     23  N   UNL     1      50.816   8.457  17.511  0.00  0.00    +0.000 NA
ATOM     24  C   UNL     1      50.617   9.161  18.626  0.00  0.00    +0.000 A 
ATOM     25  N   UNL     1      49.735   8.903  19.588  0.00  0.00    +0.000 NA
ATOM     26  C   UNL     1      49.006   7.800  19.348  0.00  0.00    +0.000 A 
ATOM     27  S   UNL     1      47.828   7.323  20.474  0.00  0.00    +0.000 S 
ATOM     28  C   UNL     1      47.408   5.974  19.534  0.00  0.00    +0.000 A 
ATOM     29  C   UNL     1      48.139   5.854  18.357  0.00  0.00    +0.000 A 
ATOM     30  C   UNL     1      49.093   6.957  18.243  0.00  0.00    +0.000 A 
BRANCH  22  32
ATOM     31  C   UNL     1      50.033   7.407  14.954  0.00  0.00    +0.000 C 
ATOM     32  O   UNL     1      50.252   6.641  16.139  0.00  0.00    +0.000 OA
ENDBRANCH  22  32
ENDBRANCH  18  29
ENDBRANCH   1  20
TORSDOF 8
ENDMDL
MODEL 4
REMARK VINA RESULT:    -7.398      1.784      2.014
REMARK INTER + INTRA:         -12.323
REMARK INTER:                 -11.183
REMARK INTRA:                  -1.140
REMARK UNBOUND:                -1.465
REMARK  Name = 
REMARK  9 active torsions:
REMARK  status: ('A' for Active; 'I' for Inactive)
REMARK    1  A    between atoms: C_1  and  O_2
REMARK    2  A    between atoms: O_2  and  C_3
REMARK    3  A    between atoms: C_10  and  C_11
REMARK    4  A    between atoms: N_13  and  C_14
REMARK    5  A    between atoms: C_14  and  C_15
REMARK    6  A    between atoms: C_18  and  C_19
REMARK    7  A    between atoms: C_19  and  O_20
REMARK    8  A    between atoms: O_20  and  C_21
REMARK    9  A    between atoms: C_21  and  C_22
REMARK                            x       y       z     vdW  Elec       q    Type
REMARK                         _______ _______ _______ _____ _____    ______ ____
ROOT
ATOM      1  C   UNL     1      48.016   7.898  13.223  0.00  0.00    +0.000 C 
ENDROOT
BRANCH   1   2
ATOM      2  C   UNL     1      47.017   6.868  12.770  0.00  0.00    +0.000 A 
ATOM      3  C   UNL     1      46.430   6.954  11.501  0.00  0.00    +0.000 A 
ATOM      4  C   UNL     1      45.457   6.034  11.106  0.00  0.00    +0.000 A 
ATOM      5  C   UNL     1      45.051   5.011  11.974  0.00  0.00    +0.000 A 
ATOM      6  C   UNL     1      45.640   4.922  13.241  0.00  0.00    +0.000 A 
ATOM      7  C   UNL     1      46.611   5.843  13.636  0.00  0.00    +0.000 A 
BRANCH   5   8
ATOM      8  C   UNL     1      44.011   4.009  11.537  0.00  0.00    +0.000 C 
BRANCH   8   9
ATOM      9  O   UNL     1      44.559   3.004  10.684  0.00  0.00    +0.000 OA
BRANCH   9  10
ATOM     10  C   UNL     1      44.232   3.217   9.312  0.00  0.00    +0.000 C 
BRANCH  10  11
ATOM     11  C   UNL     1      45.359   2.716   8.451  0.00  0.00    +0.000 A 
ATOM     12  C   UNL     1      46.110   3.608   7.668  0.00  0.00    +0.000 A 
ATOM     13  C   UNL     1      47.179   3.153   6.894  0.00  0.00    +0.000 A 
ATOM     14  C   UNL     1      47.509   1.799   6.895  0.00  0.00    +0.000 A 
ATOM     15  C   UNL     1      46.760   0.913   7.661  0.00  0.00    +0.000 A 
ATOM     16  F   UNL     1      47.078  -0.389   7.659  0.00  0.00    +0.000 F 
ATOM     17  C   UNL     1      45.692   1.355   8.434  0.00  0.00    +0.000 A 
ENDBRANCH  10  11
ENDBRANCH   9  10
ENDBRANCH   8   9
ENDBRANCH   5   8
ENDBRANCH   1   2
BRANCH   1  20
ATOM     18  C   UNL     1      49.432   7.661  15.210  0.00  0.00    +0.000 C 
ATOM     19  O   UNL     1      48.814   8.562  15.776  0.00  0.00    +0.000 OA
ATOM     20  N   UNL     1      49.103   7.276  13.940  0.00  0.00    +0.000 N 
ATOM     21  H   UNL     1      49.619   6.541  13.477  0.00  0.00    +0.000 HD
BRANCH  18  29
ATOM     22  C   UNL     1      49.629   4.981  17.382  0.00  0.00    +0.000 A 
ATOM     23  N   UNL     1      50.001   4.006  18.237  0.00  0.00    +0.000 NA
ATOM     24  C   UNL     1      51.298   3.864  18.509  0.00  0.00    +0.000 A 
ATOM     25  N   UNL     1      52.302   4.589  18.022  0.00  0.00    +0.000 NA
ATOM     26  C   UNL     1      51.892   5.551  17.179  0.00  0.00    +0.000 A 
ATOM     27  S   UNL     1      53.044   6.571  16.460  0.00  0.00    +0.000 S 
ATOM     28  C   UNL     1      51.837   7.429  15.632  0.00  0.00    +0.000 A 
ATOM     29  C   UNL     1      50.547   6.968  15.873  0.00  0.00    +0.000 A 
ATOM     30  C   UNL     1      50.583   5.834  16.797  0.00  0.00    +0.000 A 
BRANCH  22  32
ATOM     31  C   UNL     1      47.665   3.895  16.685  0.00  0.00    +0.000 C 
ATOM     32  O   UNL     1      48.287   5.116  17.084  0.00  0.00    +0.000 OA
ENDBRANCH  22  32
ENDBRANCH  18  29
ENDBRANCH   1  20
TORSDOF 8
ENDMDL
MODEL 5
REMARK VINA RESULT:    -7.305      2.413      4.115
REMARK INTER + INTRA:         -12.187
REMARK INTER:                 -10.853
REMARK INTRA:                  -1.334
REMARK UNBOUND:                -1.465
REMARK  Name = 
REMARK  9 active torsions:
REMARK  status: ('A' for Active; 'I' for Inactive)
REMARK    1  A    between atoms: C_1  and  O_2
REMARK    2  A    between atoms: O_2  and  C_3
REMARK    3  A    between atoms: C_10  and  C_11
REMARK    4  A    between atoms: N_13  and  C_14
REMARK    5  A    between atoms: C_14  and  C_15
REMARK    6  A    between atoms: C_18  and  C_19
REMARK    7  A    between atoms: C_19  and  O_20
REMARK    8  A    between atoms: O_20  and  C_21
REMARK    9  A    between atoms: C_21  and  C_22
REMARK                            x       y       z     vdW  Elec       q    Type
REMARK                         _______ _______ _______ _____ _____    ______ ____
ROOT
ATOM      1  C   UNL     1      47.427   5.018  14.852  0.00  0.00    +0.000 C 
ENDROOT
BRANCH   1   2
ATOM      2  C   UNL     1      46.384   4.785  13.793  0.00  0.00    +0.000 A 
ATOM      3  C   UNL     1      46.199   3.510  13.244  0.00  0.00    +0.000 A 
ATOM      4  C   UNL     1      45.274   3.307  12.218  0.00  0.00    +0.000 A 
ATOM      5  C   UNL     1      44.519   4.377  11.719  0.00  0.00    +0.000 A 
ATOM      6  C   UNL     1      44.701   5.652  12.269  0.00  0.00    +0.000 A 
ATOM      7  C   UNL     1      45.627   5.854  13.294  0.00  0.00    +0.000 A 
BRANCH   5   8
ATOM      8  C   UNL     1      43.510   4.151  10.621  0.00  0.00    +0.000 C 
BRANCH   8   9
ATOM      9  O   UNL     1      44.038   3.355   9.560  0.00  0.00    +0.000 OA
BRANCH   9  10
ATOM     10  C   UNL     1      44.885   4.102   8.690  0.00  0.00    +0.000 C 
BRANCH  10  11
ATOM     11  C   UNL     1      45.785   3.157   7.943  0.00  0.00    +0.000 A 
ATOM     12  C   UNL     1      46.582   3.617   6.881  0.00  0.00    +0.000 A 
ATOM     13  C   UNL     1      47.444   2.750   6.208  0.00  0.00    +0.000 A 
ATOM     14  C   UNL     1      47.519   1.412   6.588  0.00  0.00    +0.000 A 
ATOM     15  C   UNL     1      46.722   0.951   7.631  0.00  0.00    +0.000 A 
ATOM     16  F   UNL     1      46.794  -0.336   7.994  0.00  0.00    +0.000 F 
ATOM     17  C   UNL     1      45.859   1.806   8.307  0.00  0.00    +0.000 A 
ENDBRANCH  10  11
ENDBRANCH   9  10
ENDBRANCH   8   9
ENDBRANCH   5   8
ENDBRANCH   1   2
BRANCH   1  20
ATOM     18  C   UNL     1      48.733   6.900  15.724  0.00  0.00    +0.000 C 
ATOM     19  O   UNL     1      48.882   6.320  16.798  0.00  0.00    +0.000 OA
ATOM     20  N   UNL     1      48.019   6.326  14.710  0.00  0.00    +0.000 N 
ATOM     21  H   UNL     1      47.894   6.811  13.831  0.00  0.00    +0.000 HD
BRANCH  18  29
ATOM     22  C   UNL     1      49.836   8.568  12.906  0.00  0.00    +0.000 A 
ATOM     23  N   UNL     1      50.354   9.430  12.007  0.00  0.00    +0.000 NA
ATOM     24  C   UNL     1      50.799  10.609  12.443  0.00  0.00    +0.000 A 
ATOM     25  N   UNL     1      50.792  11.052  13.698  0.00  0.00    +0.000 NA
ATOM     26  C   UNL     1      50.275  10.165  14.564  0.00  0.00    +0.000 A 
ATOM     27  S   UNL     1      50.186  10.568  16.211  0.00  0.00    +0.000 S 
ATOM     28  C   UNL     1      49.494   9.065  16.589  0.00  0.00    +0.000 A 
ATOM     29  C   UNL     1      49.313   8.232  15.491  0.00  0.00    +0.000 A 
ATOM     30  C   UNL     1      49.774   8.898  14.273  0.00  0.00    +0.000 A 
BRANCH  22  32
ATOM     31  C   UNL     1      48.335   7.481  11.462  0.00  0.00    +0.000 C 
ATOM     32  O   UNL     1      49.356   7.356  12.452  0.00  0.00    +0.000 OA
ENDBRANCH  22  32
ENDBRANCH  18  29
ENDBRANCH   1  20
TORSDOF 8
ENDMDL
MODEL 6
REMARK VINA RESULT:    -6.991      2.601      3.169
REMARK INTER + INTRA:         -11.725
REMARK INTER:                 -10.923
REMARK INTRA:                  -0.802
REMARK UNBOUND:                -1.465
REMARK  Name = 
REMARK  9 active torsions:
REMARK  status: ('A' for Active; 'I' for Inactive)
REMARK    1  A    between atoms: C_1  and  O_2
REMARK    2  A    between atoms: O_2  and  C_3
REMARK    3  A    between atoms: C_10  and  C_11
REMARK    4  A    between atoms: N_13  and  C_14
REMARK    5  A    between atoms: C_14  and  C_15
REMARK    6  A    between atoms: C_18  and  C_19
REMARK    7  A    between atoms: C_19  and  O_20
REMARK    8  A    between atoms: O_20  and  C_21
REMARK    9  A    between atoms: C_21  and  C_22
REMARK                            x       y       z     vdW  Elec       q    Type
REMARK                         _______ _______ _______ _____ _____    ______ ____
ROOT
ATOM      1  C   UNL     1      49.049   6.890  15.854  0.00  0.00    +0.000 C 
ENDROOT
BRANCH   1   2
ATOM      2  C   UNL     1      48.182   6.220  14.822  0.00  0.00    +0.000 A 
ATOM      3  C   UNL     1      48.147   6.695  13.505  0.00  0.00    +0.000 A 
ATOM      4  C   UNL     1      47.296   6.112  12.564  0.00  0.00    +0.000 A 
ATOM      5  C   UNL     1      46.463   5.045  12.923  0.00  0.00    +0.000 A 
ATOM      6  C   UNL     1      46.500   4.567  14.239  0.00  0.00    +0.000 A 
ATOM      7  C   UNL     1      47.350   5.151  15.180  0.00  0.00    +0.000 A 
BRANCH   5   8
ATOM      8  C   UNL     1      45.557   4.407  11.899  0.00  0.00    +0.000 C 
BRANCH   8   9
ATOM      9  O   UNL     1      44.502   5.280  11.496  0.00  0.00    +0.000 OA
BRANCH   9  10
ATOM     10  C   UNL     1      43.701   4.722  10.456  0.00  0.00    +0.000 C 
BRANCH  10  11
ATOM     11  C   UNL     1      44.585   3.967   9.502  0.00  0.00    +0.000 A 
ATOM     12  C   UNL     1      45.469   4.654   8.653  0.00  0.00    +0.000 A 
ATOM     13  C   UNL     1      46.317   3.956   7.790  0.00  0.00    +0.000 A 
ATOM     14  C   UNL     1      46.289   2.563   7.767  0.00  0.00    +0.000 A 
ATOM     15  C   UNL     1      45.406   1.882   8.598  0.00  0.00    +0.000 A 
ATOM     16  F   UNL     1      45.380   0.543   8.572  0.00  0.00    +0.000 F 
ATOM     17  C   UNL     1      44.556   2.567   9.460  0.00  0.00    +0.000 A 
ENDBRANCH  10  11
ENDBRANCH   9  10
ENDBRANCH   8   9
ENDBRANCH   5   8
ENDBRANCH   1   2
BRANCH   1  20
ATOM     18  C   UNL     1      50.326   5.844  17.666  0.00  0.00    +0.000 C 
ATOM     19  O   UNL     1      49.700   6.494  18.503  0.00  0.00    +0.000 OA
ATOM     20  N   UNL     1      50.068   5.987  16.331  0.00  0.00    +0.000 N 
ATOM     21  H   UNL     1      50.591   5.456  15.648  0.00  0.00    +0.000 HD
BRANCH  18  29
ATOM     22  C   UNL     1      50.788   2.452  17.194  0.00  0.00    +0.000 A 
ATOM     23  N   UNL     1      51.208   1.170  17.191  0.00  0.00    +0.000 NA
ATOM     24  C   UNL     1      52.347   0.876  17.819  0.00  0.00    +0.000 A 
ATOM     25  N   UNL     1      53.145   1.721  18.466  0.00  0.00    +0.000 NA
ATOM     26  C   UNL     1      52.691   2.985  18.451  0.00  0.00    +0.000 A 
ATOM     27  S   UNL     1      53.589   4.199  19.229  0.00  0.00    +0.000 S 
ATOM     28  C   UNL     1      52.449   5.381  18.803  0.00  0.00    +0.000 A 
ATOM     29  C   UNL     1      51.374   4.894  18.068  0.00  0.00    +0.000 A 
ATOM     30  C   UNL     1      51.526   3.455  17.850  0.00  0.00    +0.000 A 
BRANCH  22  32
ATOM     31  C   UNL     1      48.441   2.529  17.298  0.00  0.00    +0.000 C 
ATOM     32  O   UNL     1      49.619   2.761  16.526  0.00  0.00    +0.000 OA
ENDBRANCH  22  32
ENDBRANCH  18  29
ENDBRANCH   1  20
TORSDOF 8
ENDMDL
MODEL 7
REMARK VINA RESULT:    -6.988      2.296      3.231
REMARK INTER + INTRA:         -11.722
REMARK INTER:                 -10.338
REMARK INTRA:                  -1.384
REMARK UNBOUND:                -1.465
REMARK  Name = 
REMARK  9 active torsions:
REMARK  status: ('A' for Active; 'I' for Inactive)
REMARK    1  A    between atoms: C_1  and  O_2
REMARK    2  A    between atoms: O_2  and  C_3
REMARK    3  A    between atoms: C_10  and  C_11
REMARK    4  A    between atoms: N_13  and  C_14
REMARK    5  A    between atoms: C_14  and  C_15
REMARK    6  A    between atoms: C_18  and  C_19
REMARK    7  A    between atoms: C_19  and  O_20
REMARK    8  A    between atoms: O_20  and  C_21
REMARK    9  A    between atoms: C_21  and  C_22
REMARK                            x       y       z     vdW  Elec       q    Type
REMARK                         _______ _______ _______ _____ _____    ______ ____
ROOT
ATOM      1  C   UNL     1      48.062   7.676  12.709  0.00  0.00    +0.000 C 
ENDROOT
BRANCH   1   2
ATOM      2  C   UNL     1      46.917   6.743  12.418  0.00  0.00    +0.000 A 
ATOM      3  C   UNL     1      45.919   7.104  11.504  0.00  0.00    +0.000 A 
ATOM      4  C   UNL     1      44.825   6.265  11.282  0.00  0.00    +0.000 A 
ATOM      5  C   UNL     1      44.707   5.052  11.972  0.00  0.00    +0.000 A 
ATOM      6  C   UNL     1      45.706   4.688  12.884  0.00  0.00    +0.000 A 
ATOM      7  C   UNL     1      46.799   5.528  13.106  0.00  0.00    +0.000 A 
BRANCH   5   8
ATOM      8  C   UNL     1      43.532   4.141  11.716  0.00  0.00    +0.000 C 
BRANCH   8   9
ATOM      9  O   UNL     1      43.464   3.719  10.354  0.00  0.00    +0.000 OA
BRANCH   9  10
ATOM     10  C   UNL     1      44.162   2.496  10.128  0.00  0.00    +0.000 C 
BRANCH  10  11
ATOM     11  C   UNL     1      45.155   2.691   9.015  0.00  0.00    +0.000 A 
ATOM     12  C   UNL     1      45.401   3.972   8.494  0.00  0.00    +0.000 A 
ATOM     13  C   UNL     1      46.347   4.162   7.485  0.00  0.00    +0.000 A 
ATOM     14  C   UNL     1      47.058   3.073   6.986  0.00  0.00    +0.000 A 
ATOM     15  C   UNL     1      46.807   1.802   7.493  0.00  0.00    +0.000 A 
ATOM     16  F   UNL     1      47.491   0.756   7.010  0.00  0.00    +0.000 F 
ATOM     17  C   UNL     1      45.866   1.601   8.496  0.00  0.00    +0.000 A 
ENDBRANCH  10  11
ENDBRANCH   9  10
ENDBRANCH   8   9
ENDBRANCH   5   8
ENDBRANCH   1   2
BRANCH   1  20
ATOM     18  C   UNL     1      48.981   7.499  14.975  0.00  0.00    +0.000 C 
ATOM     19  O   UNL     1      48.226   8.387  15.367  0.00  0.00    +0.000 OA
ATOM     20  N   UNL     1      48.967   7.092  13.669  0.00  0.00    +0.000 N 
ATOM     21  H   UNL     1      49.595   6.367  13.351  0.00  0.00    +0.000 HD
BRANCH  18  29
ATOM     22  C   UNL     1      52.428   7.436  15.207  0.00  0.00    +0.000 A 
ATOM     23  N   UNL     1      53.721   7.210  15.519  0.00  0.00    +0.000 NA
ATOM     24  C   UNL     1      53.993   6.412  16.552  0.00  0.00    +0.000 A 
ATOM     25  N   UNL     1      53.115   5.795  17.338  0.00  0.00    +0.000 NA
ATOM     26  C   UNL     1      51.840   6.040  16.995  0.00  0.00    +0.000 A 
ATOM     27  S   UNL     1      50.586   5.333  17.896  0.00  0.00    +0.000 S 
ATOM     28  C   UNL     1      49.408   6.056  16.911  0.00  0.00    +0.000 A 
ATOM     29  C   UNL     1      49.928   6.844  15.890  0.00  0.00    +0.000 A 
ATOM     30  C   UNL     1      51.389   6.840  15.947  0.00  0.00    +0.000 A 
BRANCH  22  32
ATOM     31  C   UNL     1      52.907   9.487  14.164  0.00  0.00    +0.000 C 
ATOM     32  O   UNL     1      52.146   8.279  14.151  0.00  0.00    +0.000 OA
ENDBRANCH  22  32
ENDBRANCH  18  29
ENDBRANCH   1  20
TORSDOF 8
ENDMDL
MODEL 8
REMARK VINA RESULT:    -6.946      2.370      2.973
REMARK INTER + INTRA:         -11.659
REMARK INTER:                 -10.660
REMARK INTRA:                  -0.999
REMARK UNBOUND:                -1.465
REMARK  Name = 
REMARK  9 active torsions:
REMARK  status: ('A' for Active; 'I' for Inactive)
REMARK    1  A    between atoms: C_1  and  O_2
REMARK    2  A    between atoms: O_2  and  C_3
REMARK    3  A    between atoms: C_10  and  C_11
REMARK    4  A    between atoms: N_13  and  C_14
REMARK    5  A    between atoms: C_14  and  C_15
REMARK    6  A    between atoms: C_18  and  C_19
REMARK    7  A    between atoms: C_19  and  O_20
REMARK    8  A    between atoms: O_20  and  C_21
REMARK    9  A    between atoms: C_21  and  C_22
REMARK                            x       y       z     vdW  Elec       q    Type
REMARK                         _______ _______ _______ _____ _____    ______ ____
ROOT
ATOM      1  C   UNL     1      46.071   8.580  13.139  0.00  0.00    +0.000 C 
ENDROOT
BRANCH   1   2
ATOM      2  C   UNL     1      45.510   7.265  12.668  0.00  0.00    +0.000 A 
ATOM      3  C   UNL     1      45.661   6.108  13.442  0.00  0.00    +0.000 A 
ATOM      4  C   UNL     1      45.195   4.877  12.976  0.00  0.00    +0.000 A 
ATOM      5  C   UNL     1      44.573   4.780  11.725  0.00  0.00    +0.000 A 
ATOM      6  C   UNL     1      44.418   5.937  10.950  0.00  0.00    +0.000 A 
ATOM      7  C   UNL     1      44.886   7.167  11.417  0.00  0.00    +0.000 A 
BRANCH   5   8
ATOM      8  C   UNL     1      44.056   3.451  11.232  0.00  0.00    +0.000 C 
BRANCH   8   9
ATOM      9  O   UNL     1      45.034   2.743  10.470  0.00  0.00    +0.000 OA
BRANCH   9  10
ATOM     10  C   UNL     1      44.488   2.169   9.284  0.00  0.00    +0.000 C 
BRANCH  10  11
ATOM     11  C   UNL     1      45.545   2.144   8.214  0.00  0.00    +0.000 A 
ATOM     12  C   UNL     1      46.357   1.010   8.040  0.00  0.00    +0.000 A 
ATOM     13  C   UNL     1      47.316   0.968   7.026  0.00  0.00    +0.000 A 
ATOM     14  C   UNL     1      47.475   2.061   6.176  0.00  0.00    +0.000 A 
ATOM     15  C   UNL     1      46.681   3.188   6.355  0.00  0.00    +0.000 A 
ATOM     16  F   UNL     1      46.837   4.238   5.537  0.00  0.00    +0.000 F 
ATOM     17  C   UNL     1      45.724   3.241   7.362  0.00  0.00    +0.000 A 
ENDBRANCH  10  11
ENDBRANCH   9  10
ENDBRANCH   8   9
ENDBRANCH   5   8
ENDBRANCH   1   2
BRANCH   1  20
ATOM     18  C   UNL     1      48.508   8.470  13.377  0.00  0.00    +0.000 C 
ATOM     19  O   UNL     1      48.652   8.720  12.181  0.00  0.00    +0.000 OA
ATOM     20  N   UNL     1      47.261   8.376  13.929  0.00  0.00    +0.000 N 
ATOM     21  H   UNL     1      47.148   8.163  14.911  0.00  0.00    +0.000 HD
BRANCH  18  29
ATOM     22  C   UNL     1      49.346   6.041  15.687  0.00  0.00    +0.000 A 
ATOM     23  N   UNL     1      49.911   5.274  16.643  0.00  0.00    +0.000 NA
ATOM     24  C   UNL     1      51.091   5.649  17.140  0.00  0.00    +0.000 A 
ATOM     25  N   UNL     1      51.801   6.719  16.794  0.00  0.00    +0.000 NA
ATOM     26  C   UNL     1      51.204   7.459  15.845  0.00  0.00    +0.000 A 
ATOM     27  S   UNL     1      51.975   8.864  15.282  0.00  0.00    +0.000 S 
ATOM     28  C   UNL     1      50.696   9.194  14.215  0.00  0.00    +0.000 A 
ATOM     29  C   UNL     1      49.668   8.258  14.256  0.00  0.00    +0.000 A 
ATOM     30  C   UNL     1      49.980   7.212  15.230  0.00  0.00    +0.000 A 
BRANCH  22  32
ATOM     31  C   UNL     1      47.505   4.596  15.896  0.00  0.00    +0.000 C 
ATOM     32  O   UNL     1      48.135   5.643  15.157  0.00  0.00    +0.000 OA
ENDBRANCH  22  32
ENDBRANCH  18  29
ENDBRANCH   1  20
TORSDOF 8
ENDMDL
MODEL 9
REMARK VINA RESULT:    -6.800      4.099      8.217
REMARK INTER + INTRA:         -11.445
REMARK INTER:                  -9.623
REMARK INTRA:                  -1.822
REMARK UNBOUND:                -1.465
REMARK  Name = 
REMARK  9 active torsions:
REMARK  status: ('A' for Active; 'I' for Inactive)
REMARK    1  A    between atoms: C_1  and  O_2
REMARK    2  A    between atoms: O_2  and  C_3
REMARK    3  A    between atoms: C_10  and  C_11
REMARK    4  A    between atoms: N_13  and  C_14
REMARK    5  A    between atoms: C_14  and  C_15
REMARK    6  A    between atoms: C_18  and  C_19
REMARK    7  A    between atoms: C_19  and  O_20
REMARK    8  A    between atoms: O_20  and  C_21
REMARK    9  A    between atoms: C_21  and  C_22
REMARK                            x       y       z     vdW  Elec       q    Type
REMARK                         _______ _______ _______ _____ _____    ______ ____
ROOT
ATOM      1  C   UNL     1      48.351   8.043  11.888  0.00  0.00    +0.000 C 
ENDROOT
BRANCH   1   2
ATOM      2  C   UNL     1      48.480   7.974  13.385  0.00  0.00    +0.000 A 
ATOM      3  C   UNL     1      47.868   8.937  14.198  0.00  0.00    +0.000 A 
ATOM      4  C   UNL     1      48.039   8.907  15.583  0.00  0.00    +0.000 A 
ATOM      5  C   UNL     1      48.829   7.917  16.182  0.00  0.00    +0.000 A 
ATOM      6  C   UNL     1      49.439   6.952  15.371  0.00  0.00    +0.000 A 
ATOM      7  C   UNL     1      49.268   6.982  13.985  0.00  0.00    +0.000 A 
BRANCH   5   8
ATOM      8  C   UNL     1      48.998   7.879  17.680  0.00  0.00    +0.000 C 
BRANCH   8   9
ATOM      9  O   UNL     1      50.008   6.955  18.085  0.00  0.00    +0.000 OA
BRANCH   9  10
ATOM     10  C   UNL     1      49.525   6.001  19.029  0.00  0.00    +0.000 C 
BRANCH  10  11
ATOM     11  C   UNL     1      49.053   4.775  18.297  0.00  0.00    +0.000 A 
ATOM     12  C   UNL     1      47.685   4.568  18.058  0.00  0.00    +0.000 A 
ATOM     13  C   UNL     1      47.245   3.449  17.348  0.00  0.00    +0.000 A 
ATOM     14  C   UNL     1      48.170   2.523  16.870  0.00  0.00    +0.000 A 
ATOM     15  C   UNL     1      49.524   2.720  17.116  0.00  0.00    +0.000 A 
ATOM     16  F   UNL     1      50.412   1.828  16.657  0.00  0.00    +0.000 F 
ATOM     17  C   UNL     1      49.973   3.830  17.823  0.00  0.00    +0.000 A 
ENDBRANCH  10  11
ENDBRANCH   9  10
ENDBRANCH   8   9
ENDBRANCH   5   8
ENDBRANCH   1   2
BRANCH   1  20
ATOM     18  C   UNL     1      46.265   6.915  11.264  0.00  0.00    +0.000 C 
ATOM     19  O   UNL     1      45.614   7.904  11.597  0.00  0.00    +0.000 OA
ATOM     20  N   UNL     1      47.627   6.901  11.383  0.00  0.00    +0.000 N 
ATOM     21  H   UNL     1      48.158   6.083  11.114  0.00  0.00    +0.000 HD
BRANCH  18  29
ATOM     22  C   UNL     1      44.484   4.326  12.700  0.00  0.00    +0.000 A 
ATOM     23  N   UNL     1      43.792   3.202  12.979  0.00  0.00    +0.000 NA
ATOM     24  C   UNL     1      43.470   2.390  11.971  0.00  0.00    +0.000 A 
ATOM     25  N   UNL     1      43.756   2.562  10.683  0.00  0.00    +0.000 NA
ATOM     26  C   UNL     1      44.449   3.689  10.446  0.00  0.00    +0.000 A 
ATOM     27  S   UNL     1      44.897   4.068   8.852  0.00  0.00    +0.000 S 
ATOM     28  C   UNL     1      45.671   5.490   9.359  0.00  0.00    +0.000 A 
ATOM     29  C   UNL     1      45.608   5.713  10.730  0.00  0.00    +0.000 A 
ATOM     30  C   UNL     1      44.865   4.633  11.380  0.00  0.00    +0.000 A 
BRANCH  22  32
ATOM     31  C   UNL     1      46.124   5.002  14.241  0.00  0.00    +0.000 C 
ATOM     32  O   UNL     1      44.799   5.178  13.741  0.00  0.00    +0.000 OA
ENDBRANCH  22  32
ENDBRANCH  18  29
ENDBRANCH   1  20
TORSDOF 8
ENDMDL
