MODEL 1
REMARK VINA RESULT:    -8.885      0.000      0.000
REMARK INTER + INTRA:         -13.713
REMARK INTER:                 -12.521
REMARK INTRA:                  -1.192
REMARK UNBOUND:                -1.192
REMARK  Name = 
REMARK  7 active torsions:
REMARK  status: ('A' for Active; 'I' for Inactive)
REMARK    1  A    between atoms: C_2  and  C_20
REMARK    2  A    between atoms: N_3  and  C_4
REMARK    3  A    between atoms: C_4  and  C_5
REMARK    4  A    between atoms: C_8  and  C_9
REMARK    5  A    between atoms: C_9  and  N_10
REMARK    6  A    between atoms: N_10  and  C_11
REMARK    7  A    between atoms: C_11  and  C_12
REMARK                            x       y       z     vdW  Elec       q    Type
REMARK                         _______ _______ _______ _____ _____    ______ ____
ROOT
ATOM      1  C   UNL     1      46.718   7.953  12.757  0.00  0.00    +0.000 C 
ENDROOT
BRANCH   1   2
ATOM      2  C   UNL     1      45.696   6.982  12.157  0.00  0.00    +0.000 C 
ATOM      3  C   UNL     1      45.202   5.999  13.226  0.00  0.00    +0.000 C 
ATOM      4  C   UNL     1      44.196   5.005  12.651  0.00  0.00    +0.000 C 
ATOM      5  C   UNL     1      44.768   4.235  11.449  0.00  0.00    +0.000 C 
ATOM      6  C   UNL     1      45.311   5.210  10.390  0.00  0.00    +0.000 C 
ATOM      7  C   UNL     1      46.301   6.210  10.977  0.00  0.00    +0.000 C 
BRANCH   5   8
ATOM      8  C   UNL     1      43.717   3.298  10.815  0.00  0.00    +0.000 C 
BRANCH   8   9
ATOM      9  N   UNL     1      44.042   3.069   9.405  0.00  0.00    +0.000 NA
ATOM     10  H   UNL     1      44.575   3.860   9.048  0.00  0.00    +0.000 HD
BRANCH   9  11
ATOM     11  C   UNL     1      44.820   1.853   9.191  0.00  0.00    +0.000 C 
BRANCH  11  12
ATOM     12  C   UNL     1      45.839   2.043   8.096  0.00  0.00    +0.000 A 
ATOM     13  C   UNL     1      45.883   3.228   7.357  0.00  0.00    +0.000 A 
ATOM     14  C   UNL     1      46.832   3.387   6.353  0.00  0.00    +0.000 A 
ATOM     15  C   UNL     1      47.710   2.344   6.107  0.00  0.00    +0.000 A 
ATOM     16  N   UNL     1      47.704   1.184   6.795  0.00  0.00    +0.000 NA
ATOM     17  C   UNL     1      46.773   1.061   7.772  0.00  0.00    +0.000 A 
ENDBRANCH  11  12
ENDBRANCH   9  11
ENDBRANCH   8   9
ENDBRANCH   5   8
ENDBRANCH   1   2
BRANCH   1  20
ATOM     18  O   UNL     1      49.036   6.484  13.305  0.00  0.00    +0.000 OA
ATOM     19  C   UNL     1      48.270   6.761  14.234  0.00  0.00    +0.000 C 
ATOM     20  N   UNL     1      47.141   7.517  14.065  0.00  0.00    +0.000 N 
ATOM     21  H   UNL     1      46.611   7.822  14.873  0.00  0.00    +0.000 HD
BRANCH  19  22
ATOM     22  C   UNL     1      48.546   6.363  15.607  0.00  0.00    +0.000 A 
ATOM     23  C   UNL     1      49.221   7.171  16.511  0.00  0.00    +0.000 A 
ATOM     24  S   UNL     1      49.342   6.464  18.068  0.00  0.00    +0.000 S 
ATOM     25  C   UNL     1      48.521   5.060  17.559  0.00  0.00    +0.000 A 
ATOM     26  N   UNL     1      48.273   4.031  18.410  0.00  0.00    +0.000 NA
ATOM     27  C   UNL     1      47.623   3.043  17.879  0.00  0.00    +0.000 A 
ATOM     28  N   UNL     1      47.207   2.997  16.576  0.00  0.00    +0.000 N 
ATOM     29  C   UNL     1      47.520   3.962  15.660  0.00  0.00    +0.000 A 
ATOM     30  O   UNL     1      47.229   3.813  14.472  0.00  0.00    +0.000 OA
ATOM     31  C   UNL     1      48.175   5.122  16.226  0.00  0.00    +0.000 A 
ATOM     32  H   UNL     1      46.743   2.176  16.207  0.00  0.00    +0.000 HD
ENDBRANCH  19  22
ENDBRANCH   1  20
TORSDOF 7
ENDMDL
MODEL 2
REMARK VINA RESULT:    -8.262      1.595      1.914
REMARK INTER + INTRA:         -12.836
REMARK INTER:                 -11.869
REMARK INTRA:                  -0.967
REMARK UNBOUND:                -1.192
REMARK  Name = 
REMARK  7 active torsions:
REMARK  status: ('A' for Active; 'I' for Inactive)
REMARK    1  A    between atoms: C_2  and  C_20
REMARK    2  A    between atoms: N_3  and  C_4
REMARK    3  A    between atoms: C_4  and  C_5
REMARK    4  A    between atoms: C_8  and  C_9
REMARK    5  A    between atoms: C_9  and  N_10
REMARK    6  A    between atoms: N_10  and  C_11
REMARK    7  A    between atoms: C_11  and  C_12
REMARK                            x       y       z     vdW  Elec       q    Type
REMARK                         _______ _______ _______ _____ _____    ______ ____
ROOT
ATOM      1  C   UNL     1      48.147   6.597  13.681  0.00  0.00    +0.000 C 
ENDROOT
BRANCH   1   2
ATOM      2  C   UNL     1      46.795   6.189  13.084  0.00  0.00    +0.000 C 
ATOM      3  C   UNL     1      46.543   4.693  13.308  0.00  0.00    +0.000 C 
ATOM      4  C   UNL     1      45.211   4.254  12.706  0.00  0.00    +0.000 C 
ATOM      5  C   UNL     1      45.117   4.587  11.208  0.00  0.00    +0.000 C 
ATOM      6  C   UNL     1      45.417   6.075  10.964  0.00  0.00    +0.000 C 
ATOM      7  C   UNL     1      46.740   6.509  11.585  0.00  0.00    +0.000 C 
BRANCH   5   8
ATOM      8  C   UNL     1      43.734   4.224  10.624  0.00  0.00    +0.000 C 
BRANCH   8   9
ATOM      9  N   UNL     1      43.899   3.573   9.323  0.00  0.00    +0.000 NA
ATOM     10  H   UNL     1      44.360   4.216   8.679  0.00  0.00    +0.000 HD
BRANCH   9  11
ATOM     11  C   UNL     1      44.687   2.347   9.394  0.00  0.00    +0.000 C 
BRANCH  11  12
ATOM     12  C   UNL     1      45.700   2.283   8.281  0.00  0.00    +0.000 A 
ATOM     13  C   UNL     1      45.945   3.396   7.471  0.00  0.00    +0.000 A 
ATOM     14  C   UNL     1      46.886   3.320   6.450  0.00  0.00    +0.000 A 
ATOM     15  C   UNL     1      47.553   2.121   6.259  0.00  0.00    +0.000 A 
ATOM     16  N   UNL     1      47.348   1.022   7.014  0.00  0.00    +0.000 NA
ATOM     17  C   UNL     1      46.432   1.129   8.006  0.00  0.00    +0.000 A 
ENDBRANCH  11  12
ENDBRANCH   9  11
ENDBRANCH   8   9
ENDBRANCH   5   8
ENDBRANCH   1   2
BRANCH   1  20
ATOM     18  O   UNL     1      50.309   6.670  15.458  0.00  0.00    +0.000 OA
ATOM     19  C   UNL     1      49.161   6.756  15.908  0.00  0.00    +0.000 C 
ATOM     20  N   UNL     1      48.049   6.779  15.109  0.00  0.00    +0.000 N 
ATOM     21  H   UNL     1      47.141   6.976  15.512  0.00  0.00    +0.000 HD
BRANCH  19  22
ATOM     22  C   UNL     1      48.901   6.915  17.332  0.00  0.00    +0.000 A 
ATOM     23  C   UNL     1      48.558   8.128  17.911  0.00  0.00    +0.000 A 
ATOM     24  S   UNL     1      48.249   7.994  19.592  0.00  0.00    +0.000 S 
ATOM     25  C   UNL     1      48.592   6.324  19.583  0.00  0.00    +0.000 A 
ATOM     26  N   UNL     1      48.514   5.574  20.711  0.00  0.00    +0.000 NA
ATOM     27  C   UNL     1      48.785   4.318  20.539  0.00  0.00    +0.000 A 
ATOM     28  N   UNL     1      49.129   3.755  19.339  0.00  0.00    +0.000 N 
ATOM     29  C   UNL     1      49.318   4.487  18.200  0.00  0.00    +0.000 A 
ATOM     30  O   UNL     1      49.749   3.951  17.179  0.00  0.00    +0.000 OA
ATOM     31  C   UNL     1      48.949   5.881  18.327  0.00  0.00    +0.000 A 
ATOM     32  H   UNL     1      49.376   2.775  19.277  0.00  0.00    +0.000 HD
ENDBRANCH  19  22
ENDBRANCH   1  20
TORSDOF 7
ENDMDL
MODEL 3
REMARK VINA RESULT:    -8.024      2.133      2.758
REMARK INTER + INTRA:         -12.499
REMARK INTER:                 -11.336
REMARK INTRA:                  -1.164
REMARK UNBOUND:                -1.192
REMARK  Name = 
REMARK  7 active torsions:
REMARK  status: ('A' for Active; 'I' for Inactive)
REMARK    1  A    between atoms: C_2  and  C_20
REMARK    2  A    between atoms: N_3  and  C_4
REMARK    3  A    between atoms: C_4  and  C_5
REMARK    4  A    between atoms: C_8  and  C_9
REMARK    5  A    between atoms: C_9  and  N_10
REMARK    6  A    between atoms: N_10  and  C_11
REMARK    7  A    between atoms: C_11  and  C_12
REMARK                            x       y       z     vdW  Elec       q    Type
REMARK                         _______ _______ _______ _____ _____    ______ ____
ROOT
ATOM      1  C   UNL     1      47.977   6.533  13.919  0.00  0.00    +0.000 C 
ENDROOT
BRANCH   1   2
ATOM      2  C   UNL     1      46.657   6.183  13.225  0.00  0.00    +0.000 C 
ATOM      3  C   UNL     1      46.242   4.745  13.560  0.00  0.00    +0.000 C 
ATOM      4  C   UNL     1      44.938   4.362  12.865  0.00  0.00    +0.000 C 
ATOM      5  C   UNL     1      45.021   4.546  11.341  0.00  0.00    +0.000 C 
ATOM      6  C   UNL     1      45.483   5.971  10.992  0.00  0.00    +0.000 C 
ATOM      7  C   UNL     1      46.776   6.351  11.705  0.00  0.00    +0.000 C 
BRANCH   5   8
ATOM      8  C   UNL     1      43.672   4.244  10.652  0.00  0.00    +0.000 C 
BRANCH   8   9
ATOM      9  N   UNL     1      43.903   3.516   9.402  0.00  0.00    +0.000 NA
ATOM     10  H   UNL     1      44.240   4.164   8.691  0.00  0.00    +0.000 HD
BRANCH   9  11
ATOM     11  C   UNL     1      44.877   2.438   9.544  0.00  0.00    +0.000 C 
BRANCH  11  12
ATOM     12  C   UNL     1      45.768   2.345   8.332  0.00  0.00    +0.000 A 
ATOM     13  C   UNL     1      45.956   3.449   7.494  0.00  0.00    +0.000 A 
ATOM     14  C   UNL     1      46.784   3.345   6.382  0.00  0.00    +0.000 A 
ATOM     15  C   UNL     1      47.398   2.130   6.130  0.00  0.00    +0.000 A 
ATOM     16  N   UNL     1      47.246   1.039   6.910  0.00  0.00    +0.000 NA
ATOM     17  C   UNL     1      46.440   1.172   7.991  0.00  0.00    +0.000 A 
ENDBRANCH  11  12
ENDBRANCH   9  11
ENDBRANCH   8   9
ENDBRANCH   5   8
ENDBRANCH   1   2
BRANCH   1  20
ATOM     18  O   UNL     1      50.152   6.437  15.680  0.00  0.00    +0.000 OA
ATOM     19  C   UNL     1      49.015   6.228  16.120  0.00  0.00    +0.000 C 
ATOM     20  N   UNL     1      47.892   6.303  15.341  0.00  0.00    +0.000 N 
ATOM     21  H   UNL     1      46.975   6.247  15.769  0.00  0.00    +0.000 HD
BRANCH  19  22
ATOM     22  C   UNL     1      48.773   5.953  17.529  0.00  0.00    +0.000 A 
ATOM     23  C   UNL     1      48.954   4.702  18.100  0.00  0.00    +0.000 A 
ATOM     24  S   UNL     1      48.653   4.697  19.788  0.00  0.00    +0.000 S 
ATOM     25  C   UNL     1      48.252   6.353  19.782  0.00  0.00    +0.000 A 
ATOM     26  N   UNL     1      47.896   7.005  20.919  0.00  0.00    +0.000 NA
ATOM     27  C   UNL     1      47.639   8.265  20.755  0.00  0.00    +0.000 A 
ATOM     28  N   UNL     1      47.705   8.922  19.556  0.00  0.00    +0.000 N 
ATOM     29  C   UNL     1      47.960   8.287  18.372  0.00  0.00    +0.000 A 
ATOM     30  O   UNL     1      47.883   8.900  17.306  0.00  0.00    +0.000 OA
ATOM     31  C   UNL     1      48.331   6.895  18.517  0.00  0.00    +0.000 A 
ATOM     32  H   UNL     1      47.446   9.898  19.482  0.00  0.00    +0.000 HD
ENDBRANCH  19  22
ENDBRANCH   1  20
TORSDOF 7
ENDMDL
MODEL 4
REMARK VINA RESULT:    -7.907      2.133      2.767
REMARK INTER + INTRA:         -12.334
REMARK INTER:                 -11.305
REMARK INTRA:                  -1.029
REMARK UNBOUND:                -1.192
REMARK  Name = 
REMARK  7 active torsions:
REMARK  status: ('A' for Active; 'I' for Inactive)
REMARK    1  A    between atoms: C_2  and  C_20
REMARK    2  A    between atoms: N_3  and  C_4
REMARK    3  A    between atoms: C_4  and  C_5
REMARK    4  A    between atoms: C_8  and  C_9
REMARK    5  A    between atoms: C_9  and  N_10
REMARK    6  A    between atoms: N_10  and  C_11
REMARK    7  A    between atoms: C_11  and  C_12
REMARK                            x       y       z     vdW  Elec       q    Type
REMARK                         _______ _______ _______ _____ _____    ______ ____
ROOT
ATOM      1  C   UNL     1      47.583   4.446  14.801  0.00  0.00    +0.000 C 
ENDROOT
BRANCH   1   2
ATOM      2  C   UNL     1      46.347   4.593  13.906  0.00  0.00    +0.000 C 
ATOM      3  C   UNL     1      46.147   3.329  13.061  0.00  0.00    +0.000 C 
ATOM      4  C   UNL     1      44.934   3.455  12.144  0.00  0.00    +0.000 C 
ATOM      5  C   UNL     1      45.025   4.690  11.232  0.00  0.00    +0.000 C 
ATOM      6  C   UNL     1      45.274   5.959  12.065  0.00  0.00    +0.000 C 
ATOM      7  C   UNL     1      46.477   5.818  12.991  0.00  0.00    +0.000 C 
BRANCH   5   8
ATOM      8  C   UNL     1      43.754   4.864  10.372  0.00  0.00    +0.000 C 
BRANCH   8   9
ATOM      9  N   UNL     1      44.007   4.390   9.009  0.00  0.00    +0.000 NA
ATOM     10  H   UNL     1      43.421   4.908   8.357  0.00  0.00    +0.000 HD
BRANCH   9  11
ATOM     11  C   UNL     1      45.400   4.544   8.603  0.00  0.00    +0.000 C 
BRANCH  11  12
ATOM     12  C   UNL     1      45.964   3.247   8.081  0.00  0.00    +0.000 A 
ATOM     13  C   UNL     1      46.820   3.232   6.976  0.00  0.00    +0.000 A 
ATOM     14  C   UNL     1      47.333   2.026   6.511  0.00  0.00    +0.000 A 
ATOM     15  C   UNL     1      46.963   0.860   7.160  0.00  0.00    +0.000 A 
ATOM     16  N   UNL     1      46.139   0.827   8.228  0.00  0.00    +0.000 NA
ATOM     17  C   UNL     1      45.663   2.018   8.664  0.00  0.00    +0.000 A 
ENDBRANCH  11  12
ENDBRANCH   9  11
ENDBRANCH   8   9
ENDBRANCH   5   8
ENDBRANCH   1   2
BRANCH   1  20
ATOM     18  O   UNL     1      49.594   6.331  15.291  0.00  0.00    +0.000 OA
ATOM     19  C   UNL     1      48.624   6.278  16.055  0.00  0.00    +0.000 C 
ATOM     20  N   UNL     1      47.572   5.423  15.863  0.00  0.00    +0.000 N 
ATOM     21  H   UNL     1      46.744   5.501  16.442  0.00  0.00    +0.000 HD
BRANCH  19  22
ATOM     22  C   UNL     1      48.487   7.180  17.190  0.00  0.00    +0.000 A 
ATOM     23  C   UNL     1      48.689   8.549  17.101  0.00  0.00    +0.000 A 
ATOM     24  S   UNL     1      48.394   9.359  18.583  0.00  0.00    +0.000 S 
ATOM     25  C   UNL     1      48.016   7.898  19.375  0.00  0.00    +0.000 A 
ATOM     26  N   UNL     1      47.662   7.867  20.686  0.00  0.00    +0.000 NA
ATOM     27  C   UNL     1      47.387   6.684  21.138  0.00  0.00    +0.000 A 
ATOM     28  N   UNL     1      47.439   5.536  20.394  0.00  0.00    +0.000 N 
ATOM     29  C   UNL     1      47.885   5.506  19.102  0.00  0.00    +0.000 A 
ATOM     30  O   UNL     1      48.032   4.431  18.519  0.00  0.00    +0.000 OA
ATOM     31  C   UNL     1      48.128   6.813  18.531  0.00  0.00    +0.000 A 
ATOM     32  H   UNL     1      47.258   4.634  20.817  0.00  0.00    +0.000 HD
ENDBRANCH  19  22
ENDBRANCH   1  20
TORSDOF 7
ENDMDL
MODEL 5
REMARK VINA RESULT:    -7.778      2.242      3.475
REMARK INTER + INTRA:         -12.153
REMARK INTER:                 -10.963
REMARK INTRA:                  -1.190
REMARK UNBOUND:                -1.192
REMARK  Name = 
REMARK  7 active torsions:
REMARK  status: ('A' for Active; 'I' for Inactive)
REMARK    1  A    between atoms: C_2  and  C_20
REMARK    2  A    between atoms: N_3  and  C_4
REMARK    3  A    between atoms: C_4  and  C_5
REMARK    4  A    between atoms: C_8  and  C_9
REMARK    5  A    between atoms: C_9  and  N_10
REMARK    6  A    between atoms: N_10  and  C_11
REMARK    7  A    between atoms: C_11  and  C_12
REMARK                            x       y       z     vdW  Elec       q    Type
REMARK                         _______ _______ _______ _____ _____    ______ ____
ROOT
ATOM      1  C   UNL     1      47.538   4.433  14.930  0.00  0.00    +0.000 C 
ENDROOT
BRANCH   1   2
ATOM      2  C   UNL     1      46.297   4.521  14.035  0.00  0.00    +0.000 C 
ATOM      3  C   UNL     1      46.227   3.307  13.099  0.00  0.00    +0.000 C 
ATOM      4  C   UNL     1      45.011   3.379  12.180  0.00  0.00    +0.000 C 
ATOM      5  C   UNL     1      44.983   4.680  11.360  0.00  0.00    +0.000 C 
ATOM      6  C   UNL     1      45.102   5.904  12.284  0.00  0.00    +0.000 C 
ATOM      7  C   UNL     1      46.309   5.815  13.211  0.00  0.00    +0.000 C 
BRANCH   5   8
ATOM      8  C   UNL     1      43.704   4.789  10.500  0.00  0.00    +0.000 C 
BRANCH   8   9
ATOM      9  N   UNL     1      43.934   4.179   9.188  0.00  0.00    +0.000 NA
ATOM     10  H   UNL     1      43.231   4.515   8.532  0.00  0.00    +0.000 HD
BRANCH   9  11
ATOM     11  C   UNL     1      45.255   4.479   8.644  0.00  0.00    +0.000 C 
BRANCH  11  12
ATOM     12  C   UNL     1      45.898   3.247   8.062  0.00  0.00    +0.000 A 
ATOM     13  C   UNL     1      46.708   3.330   6.926  0.00  0.00    +0.000 A 
ATOM     14  C   UNL     1      47.296   2.183   6.405  0.00  0.00    +0.000 A 
ATOM     15  C   UNL     1      47.046   0.973   7.031  0.00  0.00    +0.000 A 
ATOM     16  N   UNL     1      46.271   0.845   8.128  0.00  0.00    +0.000 NA
ATOM     17  C   UNL     1      45.719   1.981   8.618  0.00  0.00    +0.000 A 
ENDBRANCH  11  12
ENDBRANCH   9  11
ENDBRANCH   8   9
ENDBRANCH   5   8
ENDBRANCH   1   2
BRANCH   1  20
ATOM     18  O   UNL     1      49.703   5.173  16.542  0.00  0.00    +0.000 OA
ATOM     19  C   UNL     1      48.605   5.707  16.733  0.00  0.00    +0.000 C 
ATOM     20  N   UNL     1      47.506   5.442  15.961  0.00  0.00    +0.000 N 
ATOM     21  H   UNL     1      46.663   5.993  16.074  0.00  0.00    +0.000 HD
BRANCH  19  22
ATOM     22  C   UNL     1      48.409   6.724  17.757  0.00  0.00    +0.000 A 
ATOM     23  C   UNL     1      48.309   6.430  19.109  0.00  0.00    +0.000 A 
ATOM     24  S   UNL     1      48.147   7.833  20.080  0.00  0.00    +0.000 S 
ATOM     25  C   UNL     1      48.183   8.854  18.716  0.00  0.00    +0.000 A 
ATOM     26  N   UNL     1      48.094  10.204  18.832  0.00  0.00    +0.000 NA
ATOM     27  C   UNL     1      48.155  10.843  17.706  0.00  0.00    +0.000 A 
ATOM     28  N   UNL     1      48.294  10.248  16.481  0.00  0.00    +0.000 N 
ATOM     29  C   UNL     1      48.287   8.893  16.307  0.00  0.00    +0.000 A 
ATOM     30  O   UNL     1      48.287   8.409  15.174  0.00  0.00    +0.000 OA
ATOM     31  C   UNL     1      48.300   8.139  17.543  0.00  0.00    +0.000 A 
ATOM     32  H   UNL     1      48.288  10.799  15.631  0.00  0.00    +0.000 HD
ENDBRANCH  19  22
ENDBRANCH   1  20
TORSDOF 7
ENDMDL
MODEL 6
REMARK VINA RESULT:    -7.668      2.003      3.474
REMARK INTER + INTRA:         -11.998
REMARK INTER:                 -10.785
REMARK INTRA:                  -1.213
REMARK UNBOUND:                -1.192
REMARK  Name = 
REMARK  7 active torsions:
REMARK  status: ('A' for Active; 'I' for Inactive)
REMARK    1  A    between atoms: C_2  and  C_20
REMARK    2  A    between atoms: N_3  and  C_4
REMARK    3  A    between atoms: C_4  and  C_5
REMARK    4  A    between atoms: C_8  and  C_9
REMARK    5  A    between atoms: C_9  and  N_10
REMARK    6  A    between atoms: N_10  and  C_11
REMARK    7  A    between atoms: C_11  and  C_12
REMARK                            x       y       z     vdW  Elec       q    Type
REMARK                         _______ _______ _______ _____ _____    ______ ____
ROOT
ATOM      1  C   UNL     1      47.231   4.226  14.865  0.00  0.00    +0.000 C 
ENDROOT
BRANCH   1   2
ATOM      2  C   UNL     1      46.070   4.420  13.885  0.00  0.00    +0.000 C 
ATOM      3  C   UNL     1      45.983   3.231  12.919  0.00  0.00    +0.000 C 
ATOM      4  C   UNL     1      44.845   3.407  11.917  0.00  0.00    +0.000 C 
ATOM      5  C   UNL     1      44.970   4.720  11.126  0.00  0.00    +0.000 C 
ATOM      6  C   UNL     1      45.108   5.916  12.084  0.00  0.00    +0.000 C 
ATOM      7  C   UNL     1      46.234   5.723  13.093  0.00  0.00    +0.000 C 
BRANCH   5   8
ATOM      8  C   UNL     1      43.770   4.937  10.179  0.00  0.00    +0.000 C 
BRANCH   8   9
ATOM      9  N   UNL     1      44.043   4.317   8.880  0.00  0.00    +0.000 NA
ATOM     10  H   UNL     1      43.428   4.722   8.176  0.00  0.00    +0.000 HD
BRANCH   9  11
ATOM     11  C   UNL     1      45.424   4.496   8.444  0.00  0.00    +0.000 C 
BRANCH  11  12
ATOM     12  C   UNL     1      46.028   3.189   7.995  0.00  0.00    +0.000 A 
ATOM     13  C   UNL     1      46.963   3.152   6.956  0.00  0.00    +0.000 A 
ATOM     14  C   UNL     1      47.511   1.938   6.558  0.00  0.00    +0.000 A 
ATOM     15  C   UNL     1      47.098   0.785   7.205  0.00  0.00    +0.000 A 
ATOM     16  N   UNL     1      46.199   0.774   8.211  0.00  0.00    +0.000 NA
ATOM     17  C   UNL     1      45.688   1.972   8.583  0.00  0.00    +0.000 A 
ENDBRANCH  11  12
ENDBRANCH   9  11
ENDBRANCH   8   9
ENDBRANCH   5   8
ENDBRANCH   1   2
BRANCH   1  20
ATOM     18  O   UNL     1      49.319   4.584  16.695  0.00  0.00    +0.000 OA
ATOM     19  C   UNL     1      48.539   5.519  16.487  0.00  0.00    +0.000 C 
ATOM     20  N   UNL     1      47.521   5.449  15.574  0.00  0.00    +0.000 N 
ATOM     21  H   UNL     1      46.986   6.279  15.348  0.00  0.00    +0.000 HD
BRANCH  19  22
ATOM     22  C   UNL     1      48.685   6.807  17.150  0.00  0.00    +0.000 A 
ATOM     23  C   UNL     1      48.333   7.024  18.474  0.00  0.00    +0.000 A 
ATOM     24  S   UNL     1      48.678   8.620  18.997  0.00  0.00    +0.000 S 
ATOM     25  C   UNL     1      49.278   9.057  17.463  0.00  0.00    +0.000 A 
ATOM     26  N   UNL     1      49.754  10.303  17.211  0.00  0.00    +0.000 NA
ATOM     27  C   UNL     1      50.193  10.475  16.004  0.00  0.00    +0.000 A 
ATOM     28  N   UNL     1      50.193   9.511  15.033  0.00  0.00    +0.000 N 
ATOM     29  C   UNL     1      49.634   8.276  15.210  0.00  0.00    +0.000 A 
ATOM     30  O   UNL     1      49.548   7.489  14.266  0.00  0.00    +0.000 OA
ATOM     31  C   UNL     1      49.204   8.012  16.567  0.00  0.00    +0.000 A 
ATOM     32  H   UNL     1      50.506   9.719  14.092  0.00  0.00    +0.000 HD
ENDBRANCH  19  22
ENDBRANCH   1  20
TORSDOF 7
ENDMDL
MODEL 7
REMARK VINA RESULT:    -7.382      2.258      3.063
REMARK INTER + INTRA:         -11.595
REMARK INTER:                 -11.221
REMARK INTRA:                  -0.374
REMARK UNBOUND:                -1.192
REMARK  Name = 
REMARK  7 active torsions:
REMARK  status: ('A' for Active; 'I' for Inactive)
REMARK    1  A    between atoms: C_2  and  C_20
REMARK    2  A    between atoms: N_3  and  C_4
REMARK    3  A    between atoms: C_4  and  C_5
REMARK    4  A    between atoms: C_8  and  C_9
REMARK    5  A    between atoms: C_9  and  N_10
REMARK    6  A    between atoms: N_10  and  C_11
REMARK    7  A    between atoms: C_11  and  C_12
REMARK                            x       y       z     vdW  Elec       q    Type
REMARK                         _______ _______ _______ _____ _____    ______ ____
ROOT
ATOM      1  C   UNL     1      46.432   4.295  15.189  0.00  0.00    +0.000 C 
ENDROOT
BRANCH   1   2
ATOM      2  C   UNL     1      46.545   4.463  13.670  0.00  0.00    +0.000 C 
ATOM      3  C   UNL     1      46.110   5.875  13.255  0.00  0.00    +0.000 C 
ATOM      4  C   UNL     1      46.194   6.065  11.743  0.00  0.00    +0.000 C 
ATOM      5  C   UNL     1      45.369   5.013  10.983  0.00  0.00    +0.000 C 
ATOM      6  C   UNL     1      45.762   3.594  11.425  0.00  0.00    +0.000 C 
ATOM      7  C   UNL     1      45.693   3.418  12.938  0.00  0.00    +0.000 C 
BRANCH   5   8
ATOM      8  C   UNL     1      45.531   5.153   9.453  0.00  0.00    +0.000 C 
BRANCH   8   9
ATOM      9  N   UNL     1      44.370   4.573   8.775  0.00  0.00    +0.000 NA
ATOM     10  H   UNL     1      44.304   4.952   7.832  0.00  0.00    +0.000 HD
BRANCH   9  11
ATOM     11  C   UNL     1      44.432   3.117   8.685  0.00  0.00    +0.000 C 
BRANCH  11  12
ATOM     12  C   UNL     1      45.596   2.673   7.837  0.00  0.00    +0.000 A 
ATOM     13  C   UNL     1      46.287   1.493   8.130  0.00  0.00    +0.000 A 
ATOM     14  C   UNL     1      47.356   1.098   7.334  0.00  0.00    +0.000 A 
ATOM     15  C   UNL     1      47.715   1.903   6.266  0.00  0.00    +0.000 A 
ATOM     16  N   UNL     1      47.078   3.049   5.947  0.00  0.00    +0.000 NA
ATOM     17  C   UNL     1      46.035   3.405   6.734  0.00  0.00    +0.000 A 
ENDBRANCH  11  12
ENDBRANCH   9  11
ENDBRANCH   8   9
ENDBRANCH   5   8
ENDBRANCH   1   2
BRANCH   1  20
ATOM     18  O   UNL     1      46.918   4.459  17.940  0.00  0.00    +0.000 OA
ATOM     19  C   UNL     1      47.879   4.421  17.164  0.00  0.00    +0.000 C 
ATOM     20  N   UNL     1      47.734   4.290  15.809  0.00  0.00    +0.000 N 
ATOM     21  H   UNL     1      48.549   4.139  15.225  0.00  0.00    +0.000 HD
BRANCH  19  22
ATOM     22  C   UNL     1      49.256   4.439  17.639  0.00  0.00    +0.000 A 
ATOM     23  C   UNL     1      49.817   5.522  18.299  0.00  0.00    +0.000 A 
ATOM     24  S   UNL     1      51.432   5.229  18.795  0.00  0.00    +0.000 S 
ATOM     25  C   UNL     1      51.420   3.665  18.117  0.00  0.00    +0.000 A 
ATOM     26  N   UNL     1      52.501   2.848  18.189  0.00  0.00    +0.000 NA
ATOM     27  C   UNL     1      52.330   1.684  17.644  0.00  0.00    +0.000 A 
ATOM     28  N   UNL     1      51.175   1.274  17.035  0.00  0.00    +0.000 N 
ATOM     29  C   UNL     1      50.099   2.096  16.850  0.00  0.00    +0.000 A 
ATOM     30  O   UNL     1      49.133   1.718  16.185  0.00  0.00    +0.000 OA
ATOM     31  C   UNL     1      50.215   3.378  17.512  0.00  0.00    +0.000 A 
ATOM     32  H   UNL     1      51.118   0.368  16.584  0.00  0.00    +0.000 HD
ENDBRANCH  19  22
ENDBRANCH   1  20
TORSDOF 7
ENDMDL
MODEL 8
REMARK VINA RESULT:    -6.917      3.550      7.673
REMARK INTER + INTRA:         -10.940
REMARK INTER:                  -9.127
REMARK INTRA:                  -1.813
REMARK UNBOUND:                -1.192
REMARK  Name = 
REMARK  7 active torsions:
REMARK  status: ('A' for Active; 'I' for Inactive)
REMARK    1  A    between atoms: C_2  and  C_20
REMARK    2  A    between atoms: N_3  and  C_4
REMARK    3  A    between atoms: C_4  and  C_5
REMARK    4  A    between atoms: C_8  and  C_9
REMARK    5  A    between atoms: C_9  and  N_10
REMARK    6  A    between atoms: N_10  and  C_11
REMARK    7  A    between atoms: C_11  and  C_12
REMARK                            x       y       z     vdW  Elec       q    Type
REMARK                         _______ _______ _______ _____ _____    ______ ____
ROOT
ATOM      1  C   UNL     1      47.807   8.698  14.062  0.00  0.00    +0.000 C 
ENDROOT
BRANCH   1   2
ATOM      2  C   UNL     1      48.527   7.920  15.168  0.00  0.00    +0.000 C 
ATOM      3  C   UNL     1      48.498   8.711  16.483  0.00  0.00    +0.000 C 
ATOM      4  C   UNL     1      49.227   7.968  17.599  0.00  0.00    +0.000 C 
ATOM      5  C   UNL     1      50.678   7.632  17.217  0.00  0.00    +0.000 C 
ATOM      6  C   UNL     1      50.725   6.881  15.876  0.00  0.00    +0.000 C 
ATOM      7  C   UNL     1      49.979   7.621  14.771  0.00  0.00    +0.000 C 
BRANCH   5   8
ATOM      8  C   UNL     1      51.383   6.802  18.312  0.00  0.00    +0.000 C 
BRANCH   8   9
ATOM      9  N   UNL     1      50.433   5.863  18.913  0.00  0.00    +0.000 NA
ATOM     10  H   UNL     1      49.516   5.991  18.486  0.00  0.00    +0.000 HD
BRANCH   9  11
ATOM     11  C   UNL     1      50.829   4.468  18.746  0.00  0.00    +0.000 C 
BRANCH  11  12
ATOM     12  C   UNL     1      49.898   3.744  17.807  0.00  0.00    +0.000 A 
ATOM     13  C   UNL     1      48.621   4.245  17.539  0.00  0.00    +0.000 A 
ATOM     14  C   UNL     1      47.777   3.565  16.667  0.00  0.00    +0.000 A 
ATOM     15  C   UNL     1      48.232   2.390  16.093  0.00  0.00    +0.000 A 
ATOM     16  N   UNL     1      49.455   1.870  16.324  0.00  0.00    +0.000 NA
ATOM     17  C   UNL     1      50.259   2.558  17.170  0.00  0.00    +0.000 A 
ENDBRANCH  11  12
ENDBRANCH   9  11
ENDBRANCH   8   9
ENDBRANCH   5   8
ENDBRANCH   1   2
BRANCH   1  20
ATOM     18  O   UNL     1      47.699   6.976  11.858  0.00  0.00    +0.000 OA
ATOM     19  C   UNL     1      46.662   7.201  12.493  0.00  0.00    +0.000 C 
ATOM     20  N   UNL     1      46.633   7.990  13.612  0.00  0.00    +0.000 N 
ATOM     21  H   UNL     1      45.789   8.046  14.169  0.00  0.00    +0.000 HD
BRANCH  19  22
ATOM     22  C   UNL     1      45.392   6.583  12.140  0.00  0.00    +0.000 A 
ATOM     23  C   UNL     1      44.324   7.291  11.608  0.00  0.00    +0.000 A 
ATOM     24  S   UNL     1      42.986   6.288  11.232  0.00  0.00    +0.000 S 
ATOM     25  C   UNL     1      43.795   4.897  11.796  0.00  0.00    +0.000 A 
ATOM     26  N   UNL     1      43.215   3.670  11.760  0.00  0.00    +0.000 NA
ATOM     27  C   UNL     1      43.963   2.711  12.206  0.00  0.00    +0.000 A 
ATOM     28  N   UNL     1      45.235   2.876  12.684  0.00  0.00    +0.000 N 
ATOM     29  C   UNL     1      45.822   4.102  12.832  0.00  0.00    +0.000 A 
ATOM     30  O   UNL     1      46.918   4.206  13.385  0.00  0.00    +0.000 OA
ATOM     31  C   UNL     1      45.054   5.194  12.274  0.00  0.00    +0.000 A 
ATOM     32  H   UNL     1      45.754   2.093  13.064  0.00  0.00    +0.000 HD
ENDBRANCH  19  22
ENDBRANCH   1  20
TORSDOF 7
ENDMDL
MODEL 9
REMARK VINA RESULT:    -6.807      3.906      8.949
REMARK INTER + INTRA:         -10.785
REMARK INTER:                  -9.396
REMARK INTRA:                  -1.388
REMARK UNBOUND:                -1.192
REMARK  Name = 
REMARK  7 active torsions:
REMARK  status: ('A' for Active; 'I' for Inactive)
REMARK    1  A    between atoms: C_2  and  C_20
REMARK    2  A    between atoms: N_3  and  C_4
REMARK    3  A    between atoms: C_4  and  C_5
REMARK    4  A    between atoms: C_8  and  C_9
REMARK    5  A    between atoms: C_9  and  N_10
REMARK    6  A    between atoms: N_10  and  C_11
REMARK    7  A    between atoms: C_11  and  C_12
REMARK                            x       y       z     vdW  Elec       q    Type
REMARK                         _______ _______ _______ _____ _____    ______ ____
ROOT
ATOM      1  C   UNL     1      47.246   3.563  16.626  0.00  0.00    +0.000 C 
ENDROOT
BRANCH   1   2
ATOM      2  C   UNL     1      48.567   3.993  17.271  0.00  0.00    +0.000 C 
ATOM      3  C   UNL     1      48.422   4.051  18.797  0.00  0.00    +0.000 C 
ATOM      4  C   UNL     1      49.720   4.497  19.466  0.00  0.00    +0.000 C 
ATOM      5  C   UNL     1      50.209   5.853  18.931  0.00  0.00    +0.000 C 
ATOM      6  C   UNL     1      50.312   5.823  17.396  0.00  0.00    +0.000 C 
ATOM      7  C   UNL     1      49.017   5.359  16.738  0.00  0.00    +0.000 C 
BRANCH   5   8
ATOM      8  C   UNL     1      51.568   6.256  19.544  0.00  0.00    +0.000 C 
BRANCH   8   9
ATOM      9  N   UNL     1      52.289   5.060  19.985  0.00  0.00    +0.000 NA
ATOM     10  H   UNL     1      51.632   4.287  20.085  0.00  0.00    +0.000 HD
BRANCH   9  11
ATOM     11  C   UNL     1      53.341   4.655  19.059  0.00  0.00    +0.000 C 
BRANCH  11  12
ATOM     12  C   UNL     1      53.195   3.207  18.667  0.00  0.00    +0.000 A 
ATOM     13  C   UNL     1      52.151   2.791  17.836  0.00  0.00    +0.000 A 
ATOM     14  C   UNL     1      52.035   1.451  17.482  0.00  0.00    +0.000 A 
ATOM     15  C   UNL     1      52.965   0.556  17.982  0.00  0.00    +0.000 A 
ATOM     16  N   UNL     1      53.987   0.911  18.788  0.00  0.00    +0.000 NA
ATOM     17  C   UNL     1      54.081   2.225  19.108  0.00  0.00    +0.000 A 
ENDBRANCH  11  12
ENDBRANCH   9  11
ENDBRANCH   8   9
ENDBRANCH   5   8
ENDBRANCH   1   2
BRANCH   1  20
ATOM     18  O   UNL     1      47.138   3.226  13.849  0.00  0.00    +0.000 OA
ATOM     19  C   UNL     1      46.809   4.315  14.333  0.00  0.00    +0.000 C 
ATOM     20  N   UNL     1      46.784   4.551  15.681  0.00  0.00    +0.000 N 
ATOM     21  H   UNL     1      46.391   5.415  16.036  0.00  0.00    +0.000 HD
BRANCH  19  22
ATOM     22  C   UNL     1      46.349   5.420  13.504  0.00  0.00    +0.000 A 
ATOM     23  C   UNL     1      47.124   6.537  13.231  0.00  0.00    +0.000 A 
ATOM     24  S   UNL     1      46.344   7.640  12.175  0.00  0.00    +0.000 S 
ATOM     25  C   UNL     1      44.952   6.661  12.084  0.00  0.00    +0.000 A 
ATOM     26  N   UNL     1      43.878   7.015  11.332  0.00  0.00    +0.000 NA
ATOM     27  C   UNL     1      42.906   6.158  11.350  0.00  0.00    +0.000 A 
ATOM     28  N   UNL     1      42.917   4.985  12.056  0.00  0.00    +0.000 N 
ATOM     29  C   UNL     1      43.931   4.636  12.904  0.00  0.00    +0.000 A 
ATOM     30  O   UNL     1      43.835   3.632  13.611  0.00  0.00    +0.000 OA
ATOM     31  C   UNL     1      45.073   5.524  12.854  0.00  0.00    +0.000 A 
ATOM     32  H   UNL     1      42.107   4.378  12.069  0.00  0.00    +0.000 HD
ENDBRANCH  19  22
ENDBRANCH   1  20
TORSDOF 7
ENDMDL
