MODEL 1
REMARK VINA RESULT:    -8.023      0.000      0.000
REMARK INTER + INTRA:         -10.492
REMARK INTER:                  -9.899
REMARK INTRA:                  -0.593
REMARK UNBOUND:                -0.593
REMARK  Name = 
REMARK  4 active torsions:
REMARK  status: ('A' for Active; 'I' for Inactive)
REMARK    1  A    between atoms: C_2  and  C_3
REMARK    2  A    between atoms: N_7  and  C_8
REMARK    3  A    between atoms: C_8  and  C_9
REMARK    4  A    between atoms: C_13  and  C_14
REMARK                            x       y       z     vdW  Elec       q    Type
REMARK                         _______ _______ _______ _____ _____    ______ ____
ROOT
ATOM      1  C   UNL     1      44.405   5.676  11.569  0.00  0.00    +0.000 A 
ATOM      2  C   UNL     1      44.560   6.995  11.165  0.00  0.00    +0.000 A 
ATOM      3  N   UNL     1      45.445   7.857  11.708  0.00  0.00    +0.000 NA
ATOM      4  C   UNL     1      46.228   7.377  12.704  0.00  0.00    +0.000 A 
ATOM      5  C   UNL     1      46.172   6.079  13.216  0.00  0.00    +0.000 A 
ATOM      6  C   UNL     1      45.224   5.235  12.617  0.00  0.00    +0.000 A 
ENDROOT
BRANCH   5   7
ATOM      7  C   UNL     1      47.051   5.613  14.309  0.00  0.00    +0.000 A 
ATOM      8  C   UNL     1      48.130   6.380  14.769  0.00  0.00    +0.000 A 
ATOM      9  C   UNL     1      48.919   5.895  15.804  0.00  0.00    +0.000 A 
ATOM     10  N   UNL     1      48.715   4.715  16.415  0.00  0.00    +0.000 NA
ATOM     11  C   UNL     1      47.676   3.986  15.968  0.00  0.00    +0.000 A 
ATOM     12  F   UNL     1      47.445   2.806  16.560  0.00  0.00    +0.000 F 
ATOM     13  C   UNL     1      46.837   4.381  14.940  0.00  0.00    +0.000 A 
ENDBRANCH   5   7
BRANCH   1  14
ATOM     14  C   UNL     1      43.399   4.809  10.860  0.00  0.00    +0.000 C 
BRANCH  14  19
ATOM     15  C   UNL     1      46.582   2.529   7.503  0.00  0.00    +0.000 A 
ATOM     16  C   UNL     1      46.225   3.861   7.645  0.00  0.00    +0.000 A 
ATOM     17  C   UNL     1      45.325   4.222   8.648  0.00  0.00    +0.000 A 
ATOM     18  C   UNL     1      44.795   3.245   9.486  0.00  0.00    +0.000 A 
ATOM     19  N   UNL     1      43.909   3.511  10.491  0.00  0.00    +0.000 N 
ATOM     20  N   UNL     1      45.131   1.948   9.348  0.00  0.00    +0.000 NA
ATOM     21  C   UNL     1      46.017   1.615   8.376  0.00  0.00    +0.000 A 
ATOM     22  H   UNL     1      43.562   2.687  10.963  0.00  0.00    +0.000 HD
BRANCH  15  24
ATOM     23  N   UNL     1      48.246   1.766   5.673  0.00  0.00    +0.000 NA
ATOM     24  C   UNL     1      47.494   2.108   6.492  0.00  0.00    +0.000 C 
ENDBRANCH  15  24
ENDBRANCH  14  19
ENDBRANCH   1  14
TORSDOF 4
ENDMDL
MODEL 2
REMARK VINA RESULT:    -7.973      2.780      7.300
REMARK INTER + INTRA:         -10.431
REMARK INTER:                  -9.911
REMARK INTRA:                  -0.519
REMARK UNBOUND:                -0.593
REMARK  Name = 
REMARK  4 active torsions:
REMARK  status: ('A' for Active; 'I' for Inactive)
REMARK    1  A    between atoms: C_2  and  C_3
REMARK    2  A    between atoms: N_7  and  C_8
REMARK    3  A    between atoms: C_8  and  C_9
REMARK    4  A    between atoms: C_13  and  C_14
REMARK                            x       y       z     vdW  Elec       q    Type
REMARK                         _______ _______ _______ _____ _____    ______ ____
ROOT
ATOM      1  C   UNL     1      43.773   4.834  10.647  0.00  0.00    +0.000 A 
ATOM      2  C   UNL     1      43.161   3.851  11.413  0.00  0.00    +0.000 A 
ATOM      3  N   UNL     1      43.317   2.526  11.214  0.00  0.00    +0.000 NA
ATOM      4  C   UNL     1      44.135   2.156  10.200  0.00  0.00    +0.000 A 
ATOM      5  C   UNL     1      44.804   3.034   9.345  0.00  0.00    +0.000 A 
ATOM      6  C   UNL     1      44.593   4.399   9.597  0.00  0.00    +0.000 A 
ENDROOT
BRANCH   5   7
ATOM      7  C   UNL     1      45.683   2.570   8.251  0.00  0.00    +0.000 A 
ATOM      8  C   UNL     1      46.305   1.315   8.283  0.00  0.00    +0.000 A 
ATOM      9  C   UNL     1      47.116   0.927   7.225  0.00  0.00    +0.000 A 
ATOM     10  N   UNL     1      47.350   1.687   6.140  0.00  0.00    +0.000 NA
ATOM     11  C   UNL     1      46.748   2.891   6.117  0.00  0.00    +0.000 A 
ATOM     12  F   UNL     1      46.959   3.671   5.048  0.00  0.00    +0.000 F 
ATOM     13  C   UNL     1      45.928   3.368   7.125  0.00  0.00    +0.000 A 
ENDBRANCH   5   7
BRANCH   1  14
ATOM     14  C   UNL     1      43.538   6.281  10.992  0.00  0.00    +0.000 C 
BRANCH  14  19
ATOM     15  C   UNL     1      47.890   6.780  13.715  0.00  0.00    +0.000 A 
ATOM     16  C   UNL     1      46.817   5.916  13.879  0.00  0.00    +0.000 A 
ATOM     17  C   UNL     1      45.742   5.989  12.993  0.00  0.00    +0.000 A 
ATOM     18  C   UNL     1      45.756   6.927  11.964  0.00  0.00    +0.000 A 
ATOM     19  N   UNL     1      44.748   7.066  11.054  0.00  0.00    +0.000 N 
ATOM     20  N   UNL     1      46.792   7.774  11.804  0.00  0.00    +0.000 NA
ATOM     21  C   UNL     1      47.835   7.682  12.666  0.00  0.00    +0.000 A 
ATOM     22  H   UNL     1      44.873   7.838  10.414  0.00  0.00    +0.000 HD
BRANCH  15  24
ATOM     23  N   UNL     1      49.920   6.728  15.320  0.00  0.00    +0.000 NA
ATOM     24  C   UNL     1      49.010   6.748  14.595  0.00  0.00    +0.000 C 
ENDBRANCH  15  24
ENDBRANCH  14  19
ENDBRANCH   1  14
TORSDOF 4
ENDMDL
MODEL 3
REMARK VINA RESULT:    -7.936      2.652      3.770
REMARK INTER + INTRA:         -10.385
REMARK INTER:                  -9.775
REMARK INTRA:                  -0.610
REMARK UNBOUND:                -0.593
REMARK  Name = 
REMARK  4 active torsions:
REMARK  status: ('A' for Active; 'I' for Inactive)
REMARK    1  A    between atoms: C_2  and  C_3
REMARK    2  A    between atoms: N_7  and  C_8
REMARK    3  A    between atoms: C_8  and  C_9
REMARK    4  A    between atoms: C_13  and  C_14
REMARK                            x       y       z     vdW  Elec       q    Type
REMARK                         _______ _______ _______ _____ _____    ______ ____
ROOT
ATOM      1  C   UNL     1      44.712   4.382  11.790  0.00  0.00    +0.000 A 
ATOM      2  C   UNL     1      45.180   3.737  12.927  0.00  0.00    +0.000 A 
ATOM      3  N   UNL     1      46.006   4.299  13.833  0.00  0.00    +0.000 NA
ATOM      4  C   UNL     1      46.382   5.579  13.601  0.00  0.00    +0.000 A 
ATOM      5  C   UNL     1      45.997   6.343  12.497  0.00  0.00    +0.000 A 
ATOM      6  C   UNL     1      45.147   5.699  11.586  0.00  0.00    +0.000 A 
ENDROOT
BRANCH   5   7
ATOM      7  C   UNL     1      46.444   7.737  12.296  0.00  0.00    +0.000 A 
ATOM      8  C   UNL     1      47.795   8.064  12.118  0.00  0.00    +0.000 A 
ATOM      9  C   UNL     1      48.157   9.390  11.927  0.00  0.00    +0.000 A 
ATOM     10  N   UNL     1      47.282  10.411  11.893  0.00  0.00    +0.000 NA
ATOM     11  C   UNL     1      45.986  10.088  12.063  0.00  0.00    +0.000 A 
ATOM     12  F   UNL     1      45.089  11.083  12.031  0.00  0.00    +0.000 F 
ATOM     13  C   UNL     1      45.528   8.798  12.266  0.00  0.00    +0.000 A 
ENDBRANCH   5   7
BRANCH   1  14
ATOM     14  C   UNL     1      43.769   3.651  10.871  0.00  0.00    +0.000 C 
BRANCH  14  19
ATOM     15  C   UNL     1      46.880   2.347   6.969  0.00  0.00    +0.000 A 
ATOM     16  C   UNL     1      46.425   3.590   7.383  0.00  0.00    +0.000 A 
ATOM     17  C   UNL     1      45.572   3.671   8.485  0.00  0.00    +0.000 A 
ATOM     18  C   UNL     1      45.187   2.509   9.148  0.00  0.00    +0.000 A 
ATOM     19  N   UNL     1      44.358   2.498  10.233  0.00  0.00    +0.000 N 
ATOM     20  N   UNL     1      45.620   1.298   8.746  0.00  0.00    +0.000 NA
ATOM     21  C   UNL     1      46.457   1.237   7.681  0.00  0.00    +0.000 A 
ATOM     22  H   UNL     1      44.115   1.572  10.557  0.00  0.00    +0.000 HD
BRANCH  15  24
ATOM     23  N   UNL     1      48.450   2.091   4.927  0.00  0.00    +0.000 NA
ATOM     24  C   UNL     1      47.748   2.210   5.847  0.00  0.00    +0.000 C 
ENDBRANCH  15  24
ENDBRANCH  14  19
ENDBRANCH   1  14
TORSDOF 4
ENDMDL
MODEL 4
REMARK VINA RESULT:    -7.822      2.974      6.986
REMARK INTER + INTRA:         -10.244
REMARK INTER:                  -9.558
REMARK INTRA:                  -0.687
REMARK UNBOUND:                -0.593
REMARK  Name = 
REMARK  4 active torsions:
REMARK  status: ('A' for Active; 'I' for Inactive)
REMARK    1  A    between atoms: C_2  and  C_3
REMARK    2  A    between atoms: N_7  and  C_8
REMARK    3  A    between atoms: C_8  and  C_9
REMARK    4  A    between atoms: C_13  and  C_14
REMARK                            x       y       z     vdW  Elec       q    Type
REMARK                         _______ _______ _______ _____ _____    ______ ____
ROOT
ATOM      1  C   UNL     1      44.320   4.981  11.658  0.00  0.00    +0.000 A 
ATOM      2  C   UNL     1      43.362   4.095  12.133  0.00  0.00    +0.000 A 
ATOM      3  N   UNL     1      43.093   2.897  11.576  0.00  0.00    +0.000 NA
ATOM      4  C   UNL     1      43.824   2.554  10.489  0.00  0.00    +0.000 A 
ATOM      5  C   UNL     1      44.809   3.348   9.899  0.00  0.00    +0.000 A 
ATOM      6  C   UNL     1      45.035   4.588  10.518  0.00  0.00    +0.000 A 
ENDROOT
BRANCH   5   7
ATOM      7  C   UNL     1      45.574   2.921   8.709  0.00  0.00    +0.000 A 
ATOM      8  C   UNL     1      45.980   3.832   7.724  0.00  0.00    +0.000 A 
ATOM      9  C   UNL     1      46.702   3.376   6.629  0.00  0.00    +0.000 A 
ATOM     10  N   UNL     1      47.053   2.092   6.442  0.00  0.00    +0.000 NA
ATOM     11  C   UNL     1      46.659   1.224   7.393  0.00  0.00    +0.000 A 
ATOM     12  F   UNL     1      46.996  -0.064   7.237  0.00  0.00    +0.000 F 
ATOM     13  C   UNL     1      45.933   1.581   8.516  0.00  0.00    +0.000 A 
ENDBRANCH   5   7
BRANCH   1  14
ATOM     14  C   UNL     1      44.543   6.278  12.390  0.00  0.00    +0.000 C 
BRANCH  14  19
ATOM     15  C   UNL     1      49.493   7.691  12.714  0.00  0.00    +0.000 A 
ATOM     16  C   UNL     1      48.585   7.818  11.673  0.00  0.00    +0.000 A 
ATOM     17  C   UNL     1      47.284   7.341  11.842  0.00  0.00    +0.000 A 
ATOM     18  C   UNL     1      46.918   6.742  13.043  0.00  0.00    +0.000 A 
ATOM     19  N   UNL     1      45.669   6.249  13.292  0.00  0.00    +0.000 N 
ATOM     20  N   UNL     1      47.797   6.608  14.055  0.00  0.00    +0.000 NA
ATOM     21  C   UNL     1      49.053   7.088  13.880  0.00  0.00    +0.000 A 
ATOM     22  H   UNL     1      45.580   5.780  14.183  0.00  0.00    +0.000 HD
BRANCH  15  24
ATOM     23  N   UNL     1      51.930   8.531  12.484  0.00  0.00    +0.000 NA
ATOM     24  C   UNL     1      50.833   8.157  12.591  0.00  0.00    +0.000 C 
ENDBRANCH  15  24
ENDBRANCH  14  19
ENDBRANCH   1  14
TORSDOF 4
ENDMDL
MODEL 5
REMARK VINA RESULT:    -6.716      2.616      3.219
REMARK INTER + INTRA:          -8.880
REMARK INTER:                  -8.351
REMARK INTRA:                  -0.529
REMARK UNBOUND:                -0.593
REMARK  Name = 
REMARK  4 active torsions:
REMARK  status: ('A' for Active; 'I' for Inactive)
REMARK    1  A    between atoms: C_2  and  C_3
REMARK    2  A    between atoms: N_7  and  C_8
REMARK    3  A    between atoms: C_8  and  C_9
REMARK    4  A    between atoms: C_13  and  C_14
REMARK                            x       y       z     vdW  Elec       q    Type
REMARK                         _______ _______ _______ _____ _____    ______ ____
ROOT
ATOM      1  C   UNL     1      45.266   5.555  12.331  0.00  0.00    +0.000 A 
ATOM      2  C   UNL     1      44.977   4.577  13.273  0.00  0.00    +0.000 A 
ATOM      3  N   UNL     1      45.754   4.294  14.338  0.00  0.00    +0.000 NA
ATOM      4  C   UNL     1      46.880   5.032  14.482  0.00  0.00    +0.000 A 
ATOM      5  C   UNL     1      47.300   6.038  13.608  0.00  0.00    +0.000 A 
ATOM      6  C   UNL     1      46.454   6.277  12.514  0.00  0.00    +0.000 A 
ENDROOT
BRANCH   5   7
ATOM      7  C   UNL     1      48.543   6.809  13.815  0.00  0.00    +0.000 A 
ATOM      8  C   UNL     1      49.101   6.986  15.089  0.00  0.00    +0.000 A 
ATOM      9  C   UNL     1      50.275   7.714  15.224  0.00  0.00    +0.000 A 
ATOM     10  N   UNL     1      50.936   8.273  14.195  0.00  0.00    +0.000 NA
ATOM     11  C   UNL     1      50.394   8.097  12.975  0.00  0.00    +0.000 A 
ATOM     12  F   UNL     1      51.031   8.640  11.928  0.00  0.00    +0.000 F 
ATOM     13  C   UNL     1      49.226   7.393  12.740  0.00  0.00    +0.000 A 
ENDBRANCH   5   7
BRANCH   1  14
ATOM     14  C   UNL     1      44.299   5.792  11.202  0.00  0.00    +0.000 C 
BRANCH  14  19
ATOM     15  C   UNL     1      46.193   2.319   7.893  0.00  0.00    +0.000 A 
ATOM     16  C   UNL     1      45.667   2.158   9.166  0.00  0.00    +0.000 A 
ATOM     17  C   UNL     1      45.220   3.280   9.865  0.00  0.00    +0.000 A 
ATOM     18  C   UNL     1      45.311   4.540   9.281  0.00  0.00    +0.000 A 
ATOM     19  N   UNL     1      44.898   5.689   9.893  0.00  0.00    +0.000 N 
ATOM     20  N   UNL     1      45.827   4.704   8.047  0.00  0.00    +0.000 NA
ATOM     21  C   UNL     1      46.246   3.602   7.376  0.00  0.00    +0.000 A 
ATOM     22  H   UNL     1      45.096   6.530   9.369  0.00  0.00    +0.000 HD
BRANCH  15  24
ATOM     23  N   UNL     1      47.044   0.294   6.523  0.00  0.00    +0.000 NA
ATOM     24  C   UNL     1      46.666   1.206   7.139  0.00  0.00    +0.000 C 
ENDBRANCH  15  24
ENDBRANCH  14  19
ENDBRANCH   1  14
TORSDOF 4
ENDMDL
MODEL 6
REMARK VINA RESULT:    -6.713      3.663      8.259
REMARK INTER + INTRA:          -8.876
REMARK INTER:                  -8.344
REMARK INTRA:                  -0.532
REMARK UNBOUND:                -0.593
REMARK  Name = 
REMARK  4 active torsions:
REMARK  status: ('A' for Active; 'I' for Inactive)
REMARK    1  A    between atoms: C_2  and  C_3
REMARK    2  A    between atoms: N_7  and  C_8
REMARK    3  A    between atoms: C_8  and  C_9
REMARK    4  A    between atoms: C_13  and  C_14
REMARK                            x       y       z     vdW  Elec       q    Type
REMARK                         _______ _______ _______ _____ _____    ______ ____
ROOT
ATOM      1  C   UNL     1      47.532   4.496  15.828  0.00  0.00    +0.000 A 
ATOM      2  C   UNL     1      48.339   5.560  15.450  0.00  0.00    +0.000 A 
ATOM      3  N   UNL     1      48.169   6.280  14.321  0.00  0.00    +0.000 NA
ATOM      4  C   UNL     1      47.130   5.928  13.527  0.00  0.00    +0.000 A 
ATOM      5  C   UNL     1      46.247   4.876  13.778  0.00  0.00    +0.000 A 
ATOM      6  C   UNL     1      46.483   4.159  14.962  0.00  0.00    +0.000 A 
ENDROOT
BRANCH   5   7
ATOM      7  C   UNL     1      45.131   4.536  12.871  0.00  0.00    +0.000 A 
ATOM      8  C   UNL     1      45.165   3.401  12.049  0.00  0.00    +0.000 A 
ATOM      9  C   UNL     1      44.085   3.126  11.220  0.00  0.00    +0.000 A 
ATOM     10  N   UNL     1      42.979   3.887  11.151  0.00  0.00    +0.000 NA
ATOM     11  C   UNL     1      42.953   4.973  11.944  0.00  0.00    +0.000 A 
ATOM     12  F   UNL     1      41.862   5.750  11.900  0.00  0.00    +0.000 F 
ATOM     13  C   UNL     1      43.981   5.334  12.799  0.00  0.00    +0.000 A 
ENDBRANCH   5   7
BRANCH   1  14
ATOM     14  C   UNL     1      47.812   3.793  17.129  0.00  0.00    +0.000 C 
BRANCH  14  19
ATOM     15  C   UNL     1      52.661   2.222  17.921  0.00  0.00    +0.000 A 
ATOM     16  C   UNL     1      52.069   3.460  18.125  0.00  0.00    +0.000 A 
ATOM     17  C   UNL     1      50.718   3.627  17.821  0.00  0.00    +0.000 A 
ATOM     18  C   UNL     1      49.985   2.557  17.315  0.00  0.00    +0.000 A 
ATOM     19  N   UNL     1      48.660   2.633  16.992  0.00  0.00    +0.000 N 
ATOM     20  N   UNL     1      50.555   1.354  17.108  0.00  0.00    +0.000 NA
ATOM     21  C   UNL     1      51.867   1.204  17.420  0.00  0.00    +0.000 A 
ATOM     22  H   UNL     1      48.289   1.793  16.570  0.00  0.00    +0.000 HD
BRANCH  15  24
ATOM     23  N   UNL     1      55.164   1.818  18.438  0.00  0.00    +0.000 NA
ATOM     24  C   UNL     1      54.038   2.000  18.211  0.00  0.00    +0.000 C 
ENDBRANCH  15  24
ENDBRANCH  14  19
ENDBRANCH   1  14
TORSDOF 4
ENDMDL
MODEL 7
REMARK VINA RESULT:    -6.634      3.053      7.604
REMARK INTER + INTRA:          -8.779
REMARK INTER:                  -8.304
REMARK INTRA:                  -0.475
REMARK UNBOUND:                -0.593
REMARK  Name = 
REMARK  4 active torsions:
REMARK  status: ('A' for Active; 'I' for Inactive)
REMARK    1  A    between atoms: C_2  and  C_3
REMARK    2  A    between atoms: N_7  and  C_8
REMARK    3  A    between atoms: C_8  and  C_9
REMARK    4  A    between atoms: C_13  and  C_14
REMARK                            x       y       z     vdW  Elec       q    Type
REMARK                         _______ _______ _______ _____ _____    ______ ____
ROOT
ATOM      1  C   UNL     1      45.179   6.303  11.681  0.00  0.00    +0.000 A 
ATOM      2  C   UNL     1      43.833   6.152  11.984  0.00  0.00    +0.000 A 
ATOM      3  N   UNL     1      43.017   5.253  11.396  0.00  0.00    +0.000 NA
ATOM      4  C   UNL     1      43.574   4.450  10.459  0.00  0.00    +0.000 A 
ATOM      5  C   UNL     1      44.908   4.498  10.048  0.00  0.00    +0.000 A 
ATOM      6  C   UNL     1      45.702   5.461  10.689  0.00  0.00    +0.000 A 
ENDROOT
BRANCH   5   7
ATOM      7  C   UNL     1      45.458   3.596   9.015  0.00  0.00    +0.000 A 
ATOM      8  C   UNL     1      45.522   2.208   9.202  0.00  0.00    +0.000 A 
ATOM      9  C   UNL     1      46.044   1.407   8.194  0.00  0.00    +0.000 A 
ATOM     10  N   UNL     1      46.499   1.878   7.020  0.00  0.00    +0.000 NA
ATOM     11  C   UNL     1      46.433   3.212   6.848  0.00  0.00    +0.000 A 
ATOM     12  F   UNL     1      46.877   3.712   5.687  0.00  0.00    +0.000 F 
ATOM     13  C   UNL     1      45.936   4.092   7.795  0.00  0.00    +0.000 A 
ENDBRANCH   5   7
BRANCH   1  14
ATOM     14  C   UNL     1      45.988   7.327  12.432  0.00  0.00    +0.000 C 
BRANCH  14  19
ATOM     15  C   UNL     1      50.568   7.567  14.792  0.00  0.00    +0.000 A 
ATOM     16  C   UNL     1      50.108   8.203  13.648  0.00  0.00    +0.000 A 
ATOM     17  C   UNL     1      48.806   7.959  13.210  0.00  0.00    +0.000 A 
ATOM     18  C   UNL     1      47.991   7.081  13.919  0.00  0.00    +0.000 A 
ATOM     19  N   UNL     1      46.707   6.786  13.560  0.00  0.00    +0.000 N 
ATOM     20  N   UNL     1      48.434   6.454  15.026  0.00  0.00    +0.000 NA
ATOM     21  C   UNL     1      49.698   6.711  15.446  0.00  0.00    +0.000 A 
ATOM     22  H   UNL     1      46.271   6.077  14.134  0.00  0.00    +0.000 HD
BRANCH  15  24
ATOM     23  N   UNL     1      52.969   7.943  15.681  0.00  0.00    +0.000 NA
ATOM     24  C   UNL     1      51.890   7.779  15.278  0.00  0.00    +0.000 C 
ENDBRANCH  15  24
ENDBRANCH  14  19
ENDBRANCH   1  14
TORSDOF 4
ENDMDL
MODEL 8
REMARK VINA RESULT:    -6.360      2.757      7.947
REMARK INTER + INTRA:          -8.441
REMARK INTER:                  -8.012
REMARK INTRA:                  -0.429
REMARK UNBOUND:                -0.593
REMARK  Name = 
REMARK  4 active torsions:
REMARK  status: ('A' for Active; 'I' for Inactive)
REMARK    1  A    between atoms: C_2  and  C_3
REMARK    2  A    between atoms: N_7  and  C_8
REMARK    3  A    between atoms: C_8  and  C_9
REMARK    4  A    between atoms: C_13  and  C_14
REMARK                            x       y       z     vdW  Elec       q    Type
REMARK                         _______ _______ _______ _____ _____    ______ ____
ROOT
ATOM      1  C   UNL     1      46.835   7.305  13.043  0.00  0.00    +0.000 A 
ATOM      2  C   UNL     1      46.044   8.429  12.849  0.00  0.00    +0.000 A 
ATOM      3  N   UNL     1      45.038   8.505  11.953  0.00  0.00    +0.000 NA
ATOM      4  C   UNL     1      44.798   7.396  11.214  0.00  0.00    +0.000 A 
ATOM      5  C   UNL     1      45.518   6.203  11.297  0.00  0.00    +0.000 A 
ATOM      6  C   UNL     1      46.559   6.191  12.239  0.00  0.00    +0.000 A 
ENDROOT
BRANCH   5   7
ATOM      7  C   UNL     1      45.211   5.025  10.460  0.00  0.00    +0.000 A 
ATOM      8  C   UNL     1      44.479   3.936  10.954  0.00  0.00    +0.000 A 
ATOM      9  C   UNL     1      44.214   2.857  10.120  0.00  0.00    +0.000 A 
ATOM     10  N   UNL     1      44.614   2.782   8.839  0.00  0.00    +0.000 NA
ATOM     11  C   UNL     1      45.315   3.831   8.372  0.00  0.00    +0.000 A 
ATOM     12  F   UNL     1      45.726   3.787   7.097  0.00  0.00    +0.000 F 
ATOM     13  C   UNL     1      45.634   4.948   9.126  0.00  0.00    +0.000 A 
ENDBRANCH   5   7
BRANCH   1  14
ATOM     14  C   UNL     1      47.910   7.340  14.097  0.00  0.00    +0.000 C 
BRANCH  14  19
ATOM     15  C   UNL     1      50.715   5.039  17.763  0.00  0.00    +0.000 A 
ATOM     16  C   UNL     1      50.970   6.178  17.014  0.00  0.00    +0.000 A 
ATOM     17  C   UNL     1      50.034   6.594  16.066  0.00  0.00    +0.000 A 
ATOM     18  C   UNL     1      48.865   5.862  15.881  0.00  0.00    +0.000 A 
ATOM     19  N   UNL     1      47.898   6.197  14.977  0.00  0.00    +0.000 N 
ATOM     20  N   UNL     1      48.615   4.750  16.600  0.00  0.00    +0.000 NA
ATOM     21  C   UNL     1      49.528   4.366  17.526  0.00  0.00    +0.000 A 
ATOM     22  H   UNL     1      47.144   5.527  14.911  0.00  0.00    +0.000 HD
BRANCH  15  24
ATOM     23  N   UNL     1      52.402   4.195  19.534  0.00  0.00    +0.000 NA
ATOM     24  C   UNL     1      51.640   4.571  18.740  0.00  0.00    +0.000 C 
ENDBRANCH  15  24
ENDBRANCH  14  19
ENDBRANCH   1  14
TORSDOF 4
ENDMDL
