MODEL 1
REMARK VINA RESULT:    -8.731      0.000      0.000
REMARK INTER + INTRA:         -12.717
REMARK INTER:                 -11.794
REMARK INTRA:                  -0.923
REMARK UNBOUND:                -0.923
REMARK  Name = 
REMARK  6 active torsions:
REMARK  status: ('A' for Active; 'I' for Inactive)
REMARK    1  A    between atoms: C_2  and  C_4
REMARK    2  A    between atoms: C_7  and  N_8
REMARK    3  A    between atoms: N_8  and  C_9
REMARK    4  A    between atoms: C_9  and  C_10
REMARK    5  A    between atoms: C_10  and  C_11
REMARK    6  A    between atoms: C_15  and  C_16
REMARK                            x       y       z     vdW  Elec       q    Type
REMARK                         _______ _______ _______ _____ _____    ______ ____
ROOT
ATOM      1  C   UNL     1      43.266   5.236  12.437  0.00  0.00    +0.000 C 
ENDROOT
BRANCH   1   2
ATOM      2  C   UNL     1      44.717   5.382  12.812  0.00  0.00    +0.000 A 
ATOM      3  C   UNL     1      45.330   4.451  13.640  0.00  0.00    +0.000 A 
ATOM      4  N   UNL     1      46.619   4.521  14.021  0.00  0.00    +0.000 NA
ATOM      5  C   UNL     1      47.337   5.567  13.548  0.00  0.00    +0.000 A 
ATOM      6  C   UNL     1      46.843   6.585  12.727  0.00  0.00    +0.000 A 
ATOM      7  C   UNL     1      45.489   6.466  12.370  0.00  0.00    +0.000 A 
BRANCH   6   8
ATOM      8  C   UNL     1      47.704   7.693  12.253  0.00  0.00    +0.000 A 
ATOM      9  C   UNL     1      47.239   9.027  12.230  0.00  0.00    +0.000 A 
ATOM     10  C   UNL     1      48.063  10.086  11.830  0.00  0.00    +0.000 A 
ATOM     11  C   UNL     1      49.365   9.825  11.430  0.00  0.00    +0.000 A 
ATOM     12  F   UNL     1      50.154  10.840  11.053  0.00  0.00    +0.000 F 
ATOM     13  C   UNL     1      49.842   8.524  11.424  0.00  0.00    +0.000 A 
ATOM     14  F   UNL     1      51.099   8.268  11.035  0.00  0.00    +0.000 F 
ATOM     15  C   UNL     1      49.028   7.466  11.831  0.00  0.00    +0.000 A 
ENDBRANCH   6   8
ENDBRANCH   1   2
BRANCH   1  16
ATOM     16  C   UNL     1      43.077   4.261  11.272  0.00  0.00    +0.000 C 
BRANCH  16  17
ATOM     17  N   UNL     1      43.733   4.764  10.068  0.00  0.00    +0.000 N 
ATOM     18  H   UNL     1      43.165   5.378   9.488  0.00  0.00    +0.000 HD
BRANCH  17  22
ATOM     19  C   UNL     1      46.339   2.314   7.821  0.00  0.00    +0.000 A 
ATOM     20  C   UNL     1      45.465   1.727   8.739  0.00  0.00    +0.000 A 
ATOM     21  C   UNL     1      44.586   2.527   9.479  0.00  0.00    +0.000 A 
ATOM     22  C   UNL     1      44.535   3.915   9.301  0.00  0.00    +0.000 A 
ATOM     23  C   UNL     1      45.433   4.488   8.388  0.00  0.00    +0.000 A 
ATOM     24  C   UNL     1      46.332   3.700   7.658  0.00  0.00    +0.000 A 
BRANCH  19  26
ATOM     25  N   UNL     1      48.423   2.140   6.577  0.00  0.00    +0.000 N 
ATOM     26  C   UNL     1      47.310   1.501   7.047  0.00  0.00    +0.000 C 
ATOM     27  O   UNL     1      47.144   0.302   6.859  0.00  0.00    +0.000 OA
ATOM     28  H   UNL     1      49.123   1.559   6.134  0.00  0.00    +0.000 HD
ATOM     29  H   UNL     1      48.712   3.046   6.920  0.00  0.00    +0.000 HD
ENDBRANCH  19  26
ENDBRANCH  17  22
ENDBRANCH  16  17
ENDBRANCH   1  16
TORSDOF 6
ENDMDL
MODEL 2
REMARK VINA RESULT:    -8.642      3.315      4.565
REMARK INTER + INTRA:         -12.597
REMARK INTER:                 -11.748
REMARK INTRA:                  -0.849
REMARK UNBOUND:                -0.923
REMARK  Name = 
REMARK  6 active torsions:
REMARK  status: ('A' for Active; 'I' for Inactive)
REMARK    1  A    between atoms: C_2  and  C_4
REMARK    2  A    between atoms: C_7  and  N_8
REMARK    3  A    between atoms: N_8  and  C_9
REMARK    4  A    between atoms: C_9  and  C_10
REMARK    5  A    between atoms: C_10  and  C_11
REMARK    6  A    between atoms: C_15  and  C_16
REMARK                            x       y       z     vdW  Elec       q    Type
REMARK                         _______ _______ _______ _____ _____    ______ ____
ROOT
ATOM      1  C   UNL     1      44.361   6.311  11.757  0.00  0.00    +0.000 C 
ENDROOT
BRANCH   1   2
ATOM      2  C   UNL     1      45.764   6.301  12.305  0.00  0.00    +0.000 A 
ATOM      3  C   UNL     1      46.817   6.815  11.560  0.00  0.00    +0.000 A 
ATOM      4  N   UNL     1      48.096   6.834  11.983  0.00  0.00    +0.000 NA
ATOM      5  C   UNL     1      48.336   6.320  13.213  0.00  0.00    +0.000 A 
ATOM      6  C   UNL     1      47.377   5.753  14.057  0.00  0.00    +0.000 A 
ATOM      7  C   UNL     1      46.064   5.752  13.560  0.00  0.00    +0.000 A 
BRANCH   6   8
ATOM      8  C   UNL     1      47.731   5.217  15.392  0.00  0.00    +0.000 A 
ATOM      9  C   UNL     1      48.655   5.881  16.229  0.00  0.00    +0.000 A 
ATOM     10  C   UNL     1      48.958   5.409  17.511  0.00  0.00    +0.000 A 
ATOM     11  C   UNL     1      48.351   4.250  17.973  0.00  0.00    +0.000 A 
ATOM     12  F   UNL     1      48.638   3.801  19.202  0.00  0.00    +0.000 F 
ATOM     13  C   UNL     1      47.455   3.567  17.166  0.00  0.00    +0.000 A 
ATOM     14  F   UNL     1      46.869   2.445  17.608  0.00  0.00    +0.000 F 
ATOM     15  C   UNL     1      47.144   4.039  15.891  0.00  0.00    +0.000 A 
ENDBRANCH   6   8
ENDBRANCH   1   2
BRANCH   1  16
ATOM     16  C   UNL     1      43.860   4.896  11.459  0.00  0.00    +0.000 C 
BRANCH  16  17
ATOM     17  N   UNL     1      43.712   4.694  10.021  0.00  0.00    +0.000 N 
ATOM     18  H   UNL     1      42.765   4.498   9.704  0.00  0.00    +0.000 HD
BRANCH  17  22
ATOM     19  C   UNL     1      46.415   2.322   7.804  0.00  0.00    +0.000 A 
ATOM     20  C   UNL     1      46.440   3.711   7.660  0.00  0.00    +0.000 A 
ATOM     21  C   UNL     1      45.560   4.508   8.399  0.00  0.00    +0.000 A 
ATOM     22  C   UNL     1      44.662   3.950   9.317  0.00  0.00    +0.000 A 
ATOM     23  C   UNL     1      44.639   2.552   9.435  0.00  0.00    +0.000 A 
ATOM     24  C   UNL     1      45.500   1.742   8.684  0.00  0.00    +0.000 A 
BRANCH  19  26
ATOM     25  N   UNL     1      48.351   2.040   6.358  0.00  0.00    +0.000 N 
ATOM     26  C   UNL     1      47.308   1.443   7.008  0.00  0.00    +0.000 C 
ATOM     27  O   UNL     1      47.142   0.230   6.957  0.00  0.00    +0.000 OA
ATOM     28  H   UNL     1      49.007   1.422   5.898  0.00  0.00    +0.000 HD
ATOM     29  H   UNL     1      48.662   2.977   6.578  0.00  0.00    +0.000 HD
ENDBRANCH  19  26
ENDBRANCH  17  22
ENDBRANCH  16  17
ENDBRANCH   1  16
TORSDOF 6
ENDMDL
MODEL 3
REMARK VINA RESULT:    -8.277      4.187      7.368
REMARK INTER + INTRA:         -12.104
REMARK INTER:                 -11.343
REMARK INTRA:                  -0.761
REMARK UNBOUND:                -0.923
REMARK  Name = 
REMARK  6 active torsions:
REMARK  status: ('A' for Active; 'I' for Inactive)
REMARK    1  A    between atoms: C_2  and  C_4
REMARK    2  A    between atoms: C_7  and  N_8
REMARK    3  A    between atoms: N_8  and  C_9
REMARK    4  A    between atoms: C_9  and  C_10
REMARK    5  A    between atoms: C_10  and  C_11
REMARK    6  A    between atoms: C_15  and  C_16
REMARK                            x       y       z     vdW  Elec       q    Type
REMARK                         _______ _______ _______ _____ _____    ______ ____
ROOT
ATOM      1  C   UNL     1      45.696   7.617  12.001  0.00  0.00    +0.000 C 
ENDROOT
BRANCH   1   2
ATOM      2  C   UNL     1      44.992   6.454  11.354  0.00  0.00    +0.000 A 
ATOM      3  C   UNL     1      43.677   6.152  11.684  0.00  0.00    +0.000 A 
ATOM      4  N   UNL     1      42.987   5.126  11.151  0.00  0.00    +0.000 NA
ATOM      5  C   UNL     1      43.637   4.366  10.238  0.00  0.00    +0.000 A 
ATOM      6  C   UNL     1      44.963   4.543   9.830  0.00  0.00    +0.000 A 
ATOM      7  C   UNL     1      45.635   5.622  10.427  0.00  0.00    +0.000 A 
BRANCH   6   8
ATOM      8  C   UNL     1      45.593   3.662   8.819  0.00  0.00    +0.000 A 
ATOM      9  C   UNL     1      46.286   4.196   7.711  0.00  0.00    +0.000 A 
ATOM     10  C   UNL     1      46.928   3.372   6.778  0.00  0.00    +0.000 A 
ATOM     11  C   UNL     1      46.872   1.995   6.931  0.00  0.00    +0.000 A 
ATOM     12  F   UNL     1      47.490   1.207   6.042  0.00  0.00    +0.000 F 
ATOM     13  C   UNL     1      46.182   1.442   8.000  0.00  0.00    +0.000 A 
ATOM     14  F   UNL     1      46.124   0.111   8.150  0.00  0.00    +0.000 F 
ATOM     15  C   UNL     1      45.550   2.260   8.937  0.00  0.00    +0.000 A 
ENDBRANCH   6   8
ENDBRANCH   1   2
BRANCH   1  16
ATOM     16  C   UNL     1      47.218   7.455  11.952  0.00  0.00    +0.000 C 
BRANCH  16  17
ATOM     17  N   UNL     1      47.789   7.542  13.293  0.00  0.00    +0.000 N 
ATOM     18  H   UNL     1      48.658   8.067  13.362  0.00  0.00    +0.000 HD
BRANCH  17  22
ATOM     19  C   UNL     1      47.688   4.289  15.986  0.00  0.00    +0.000 A 
ATOM     20  C   UNL     1      47.064   4.172  14.742  0.00  0.00    +0.000 A 
ATOM     21  C   UNL     1      47.103   5.237  13.835  0.00  0.00    +0.000 A 
ATOM     22  C   UNL     1      47.785   6.423  14.130  0.00  0.00    +0.000 A 
ATOM     23  C   UNL     1      48.391   6.530  15.391  0.00  0.00    +0.000 A 
ATOM     24  C   UNL     1      48.340   5.479  16.315  0.00  0.00    +0.000 A 
BRANCH  19  26
ATOM     25  N   UNL     1      48.818   2.599  17.322  0.00  0.00    +0.000 N 
ATOM     26  C   UNL     1      47.635   3.194  16.986  0.00  0.00    +0.000 C 
ATOM     27  O   UNL     1      46.584   2.854  17.516  0.00  0.00    +0.000 OA
ATOM     28  H   UNL     1      48.784   1.921  18.072  0.00  0.00    +0.000 HD
ATOM     29  H   UNL     1      49.714   3.012  17.101  0.00  0.00    +0.000 HD
ENDBRANCH  19  26
ENDBRANCH  17  22
ENDBRANCH  16  17
ENDBRANCH   1  16
TORSDOF 6
ENDMDL
MODEL 4
REMARK VINA RESULT:    -7.546      4.234      7.304
REMARK INTER + INTRA:         -11.116
REMARK INTER:                 -10.348
REMARK INTRA:                  -0.768
REMARK UNBOUND:                -0.923
REMARK  Name = 
REMARK  6 active torsions:
REMARK  status: ('A' for Active; 'I' for Inactive)
REMARK    1  A    between atoms: C_2  and  C_4
REMARK    2  A    between atoms: C_7  and  N_8
REMARK    3  A    between atoms: N_8  and  C_9
REMARK    4  A    between atoms: C_9  and  C_10
REMARK    5  A    between atoms: C_10  and  C_11
REMARK    6  A    between atoms: C_15  and  C_16
REMARK                            x       y       z     vdW  Elec       q    Type
REMARK                         _______ _______ _______ _____ _____    ______ ____
ROOT
ATOM      1  C   UNL     1      44.852   7.511  11.477  0.00  0.00    +0.000 C 
ENDROOT
BRANCH   1   2
ATOM      2  C   UNL     1      44.495   6.101  11.089  0.00  0.00    +0.000 A 
ATOM      3  C   UNL     1      43.442   5.442  11.710  0.00  0.00    +0.000 A 
ATOM      4  N   UNL     1      43.070   4.181  11.419  0.00  0.00    +0.000 NA
ATOM      5  C   UNL     1      43.779   3.546  10.456  0.00  0.00    +0.000 A 
ATOM      6  C   UNL     1      44.871   4.081   9.766  0.00  0.00    +0.000 A 
ATOM      7  C   UNL     1      45.220   5.395  10.118  0.00  0.00    +0.000 A 
BRANCH   6   8
ATOM      8  C   UNL     1      45.587   3.313   8.720  0.00  0.00    +0.000 A 
ATOM      9  C   UNL     1      46.217   3.961   7.635  0.00  0.00    +0.000 A 
ATOM     10  C   UNL     1      46.937   3.246   6.670  0.00  0.00    +0.000 A 
ATOM     11  C   UNL     1      47.026   1.866   6.767  0.00  0.00    +0.000 A 
ATOM     12  F   UNL     1      47.719   1.184   5.846  0.00  0.00    +0.000 F 
ATOM     13  C   UNL     1      46.401   1.202   7.811  0.00  0.00    +0.000 A 
ATOM     14  F   UNL     1      46.482  -0.133   7.906  0.00  0.00    +0.000 F 
ATOM     15  C   UNL     1      45.690   1.910   8.780  0.00  0.00    +0.000 A 
ENDBRANCH   6   8
ENDBRANCH   1   2
BRANCH   1  16
ATOM     16  C   UNL     1      45.365   7.590  12.917  0.00  0.00    +0.000 C 
BRANCH  16  17
ATOM     17  N   UNL     1      46.450   6.636  13.130  0.00  0.00    +0.000 N 
ATOM     18  H   UNL     1      46.318   5.995  13.909  0.00  0.00    +0.000 HD
BRANCH  17  22
ATOM     19  C   UNL     1      50.395   8.075  12.669  0.00  0.00    +0.000 A 
ATOM     20  C   UNL     1      49.931   7.734  13.941  0.00  0.00    +0.000 A 
ATOM     21  C   UNL     1      48.632   7.242  14.105  0.00  0.00    +0.000 A 
ATOM     22  C   UNL     1      47.779   7.049  13.012  0.00  0.00    +0.000 A 
ATOM     23  C   UNL     1      48.255   7.414  11.743  0.00  0.00    +0.000 A 
ATOM     24  C   UNL     1      49.547   7.927  11.569  0.00  0.00    +0.000 A 
BRANCH  19  26
ATOM     25  N   UNL     1      52.749   7.752  12.149  0.00  0.00    +0.000 N 
ATOM     26  C   UNL     1      51.754   8.634  12.462  0.00  0.00    +0.000 C 
ATOM     27  O   UNL     1      51.975   9.837  12.537  0.00  0.00    +0.000 OA
ATOM     28  H   UNL     1      53.649   8.153  11.917  0.00  0.00    +0.000 HD
ATOM     29  H   UNL     1      52.560   6.810  11.836  0.00  0.00    +0.000 HD
ENDBRANCH  19  26
ENDBRANCH  17  22
ENDBRANCH  16  17
ENDBRANCH   1  16
TORSDOF 6
ENDMDL
MODEL 5
REMARK VINA RESULT:    -7.324      4.214      7.663
REMARK INTER + INTRA:         -10.816
REMARK INTER:                  -9.650
REMARK INTRA:                  -1.167
REMARK UNBOUND:                -0.923
REMARK  Name = 
REMARK  6 active torsions:
REMARK  status: ('A' for Active; 'I' for Inactive)
REMARK    1  A    between atoms: C_2  and  C_4
REMARK    2  A    between atoms: C_7  and  N_8
REMARK    3  A    between atoms: N_8  and  C_9
REMARK    4  A    between atoms: C_9  and  C_10
REMARK    5  A    between atoms: C_10  and  C_11
REMARK    6  A    between atoms: C_15  and  C_16
REMARK                            x       y       z     vdW  Elec       q    Type
REMARK                         _______ _______ _______ _____ _____    ______ ____
ROOT
ATOM      1  C   UNL     1      48.968   8.794  12.375  0.00  0.00    +0.000 C 
ENDROOT
BRANCH   1   2
ATOM      2  C   UNL     1      47.545   8.356  12.154  0.00  0.00    +0.000 A 
ATOM      3  C   UNL     1      46.488   9.194  12.484  0.00  0.00    +0.000 A 
ATOM      4  N   UNL     1      45.192   8.867  12.319  0.00  0.00    +0.000 NA
ATOM      5  C   UNL     1      44.936   7.646  11.793  0.00  0.00    +0.000 A 
ATOM      6  C   UNL     1      45.899   6.697  11.437  0.00  0.00    +0.000 A 
ATOM      7  C   UNL     1      47.233   7.089  11.640  0.00  0.00    +0.000 A 
BRANCH   6   8
ATOM      8  C   UNL     1      45.526   5.384  10.862  0.00  0.00    +0.000 A 
ATOM      9  C   UNL     1      45.111   4.313  11.685  0.00  0.00    +0.000 A 
ATOM     10  C   UNL     1      44.709   3.085  11.147  0.00  0.00    +0.000 A 
ATOM     11  C   UNL     1      44.732   2.901   9.773  0.00  0.00    +0.000 A 
ATOM     12  F   UNL     1      44.343   1.727   9.259  0.00  0.00    +0.000 F 
ATOM     13  C   UNL     1      45.153   3.927   8.942  0.00  0.00    +0.000 A 
ATOM     14  F   UNL     1      45.179   3.752   7.613  0.00  0.00    +0.000 F 
ATOM     15  C   UNL     1      45.545   5.157   9.473  0.00  0.00    +0.000 A 
ENDBRANCH   6   8
ENDBRANCH   1   2
BRANCH   1  16
ATOM     16  C   UNL     1      49.767   7.749  13.158  0.00  0.00    +0.000 C 
BRANCH  16  17
ATOM     17  N   UNL     1      49.465   7.831  14.584  0.00  0.00    +0.000 N 
ATOM     18  H   UNL     1      50.122   8.378  15.137  0.00  0.00    +0.000 HD
BRANCH  17  22
ATOM     19  C   UNL     1      48.051   4.549  16.836  0.00  0.00    +0.000 A 
ATOM     20  C   UNL     1      47.550   4.768  15.551  0.00  0.00    +0.000 A 
ATOM     21  C   UNL     1      48.021   5.843  14.790  0.00  0.00    +0.000 A 
ATOM     22  C   UNL     1      49.017   6.701  15.272  0.00  0.00    +0.000 A 
ATOM     23  C   UNL     1      49.496   6.476  16.572  0.00  0.00    +0.000 A 
ATOM     24  C   UNL     1      49.017   5.416  17.352  0.00  0.00    +0.000 A 
BRANCH  19  26
ATOM     25  N   UNL     1      48.294   3.109  18.783  0.00  0.00    +0.000 N 
ATOM     26  C   UNL     1      47.548   3.441  17.686  0.00  0.00    +0.000 C 
ATOM     27  O   UNL     1      46.495   2.865  17.440  0.00  0.00    +0.000 OA
ATOM     28  H   UNL     1      47.894   2.419  19.406  0.00  0.00    +0.000 HD
ATOM     29  H   UNL     1      49.015   3.714  19.150  0.00  0.00    +0.000 HD
ENDBRANCH  19  26
ENDBRANCH  17  22
ENDBRANCH  16  17
ENDBRANCH   1  16
TORSDOF 6
ENDMDL
MODEL 6
REMARK VINA RESULT:    -7.047      4.822      7.986
REMARK INTER + INTRA:         -10.442
REMARK INTER:                  -9.598
REMARK INTRA:                  -0.845
REMARK UNBOUND:                -0.923
REMARK  Name = 
REMARK  6 active torsions:
REMARK  status: ('A' for Active; 'I' for Inactive)
REMARK    1  A    between atoms: C_2  and  C_4
REMARK    2  A    between atoms: C_7  and  N_8
REMARK    3  A    between atoms: N_8  and  C_9
REMARK    4  A    between atoms: C_9  and  C_10
REMARK    5  A    between atoms: C_10  and  C_11
REMARK    6  A    between atoms: C_15  and  C_16
REMARK                            x       y       z     vdW  Elec       q    Type
REMARK                         _______ _______ _______ _____ _____    ______ ____
ROOT
ATOM      1  C   UNL     1      48.960   7.359  14.163  0.00  0.00    +0.000 C 
ENDROOT
BRANCH   1   2
ATOM      2  C   UNL     1      47.646   7.452  13.435  0.00  0.00    +0.000 A 
ATOM      3  C   UNL     1      46.842   8.577  13.566  0.00  0.00    +0.000 A 
ATOM      4  N   UNL     1      45.654   8.725  12.950  0.00  0.00    +0.000 NA
ATOM      5  C   UNL     1      45.248   7.705  12.159  0.00  0.00    +0.000 A 
ATOM      6  C   UNL     1      45.944   6.509  11.954  0.00  0.00    +0.000 A 
ATOM      7  C   UNL     1      47.172   6.406  12.629  0.00  0.00    +0.000 A 
BRANCH   6   8
ATOM      8  C   UNL     1      45.424   5.445  11.065  0.00  0.00    +0.000 A 
ATOM      9  C   UNL     1      45.737   5.420   9.688  0.00  0.00    +0.000 A 
ATOM     10  C   UNL     1      45.291   4.391   8.851  0.00  0.00    +0.000 A 
ATOM     11  C   UNL     1      44.508   3.374   9.375  0.00  0.00    +0.000 A 
ATOM     12  F   UNL     1      44.085   2.387   8.575  0.00  0.00    +0.000 F 
ATOM     13  C   UNL     1      44.169   3.383  10.719  0.00  0.00    +0.000 A 
ATOM     14  F   UNL     1      43.409   2.403  11.230  0.00  0.00    +0.000 F 
ATOM     15  C   UNL     1      44.619   4.401  11.559  0.00  0.00    +0.000 A 
ENDBRANCH   6   8
ENDBRANCH   1   2
BRANCH   1  16
ATOM     16  C   UNL     1      48.842   7.852  15.608  0.00  0.00    +0.000 C 
BRANCH  16  17
ATOM     17  N   UNL     1      48.273   6.813  16.461  0.00  0.00    +0.000 N 
ATOM     18  H   UNL     1      47.808   7.148  17.303  0.00  0.00    +0.000 HD
BRANCH  17  22
ATOM     19  C   UNL     1      50.466   3.315  17.354  0.00  0.00    +0.000 A 
ATOM     20  C   UNL     1      49.119   3.211  17.002  0.00  0.00    +0.000 A 
ATOM     21  C   UNL     1      48.385   4.361  16.689  0.00  0.00    +0.000 A 
ATOM     22  C   UNL     1      48.978   5.629  16.689  0.00  0.00    +0.000 A 
ATOM     23  C   UNL     1      50.327   5.716  17.063  0.00  0.00    +0.000 A 
ATOM     24  C   UNL     1      51.067   4.575  17.399  0.00  0.00    +0.000 A 
BRANCH  19  26
ATOM     25  N   UNL     1      52.339   2.322  18.549  0.00  0.00    +0.000 N 
ATOM     26  C   UNL     1      51.265   2.122  17.728  0.00  0.00    +0.000 C 
ATOM     27  O   UNL     1      50.963   0.997  17.346  0.00  0.00    +0.000 OA
ATOM     28  H   UNL     1      52.818   1.493  18.874  0.00  0.00    +0.000 HD
ATOM     29  H   UNL     1      52.466   3.176  19.076  0.00  0.00    +0.000 HD
ENDBRANCH  19  26
ENDBRANCH  17  22
ENDBRANCH  16  17
ENDBRANCH   1  16
TORSDOF 6
ENDMDL
MODEL 7
REMARK VINA RESULT:    -6.223      4.656      8.069
REMARK INTER + INTRA:          -9.329
REMARK INTER:                  -7.294
REMARK INTRA:                  -2.035
REMARK UNBOUND:                -0.923
REMARK  Name = 
REMARK  6 active torsions:
REMARK  status: ('A' for Active; 'I' for Inactive)
REMARK    1  A    between atoms: C_2  and  C_4
REMARK    2  A    between atoms: C_7  and  N_8
REMARK    3  A    between atoms: N_8  and  C_9
REMARK    4  A    between atoms: C_9  and  C_10
REMARK    5  A    between atoms: C_10  and  C_11
REMARK    6  A    between atoms: C_15  and  C_16
REMARK                            x       y       z     vdW  Elec       q    Type
REMARK                         _______ _______ _______ _____ _____    ______ ____
ROOT
ATOM      1  C   UNL     1      48.718   9.768  16.373  0.00  0.00    +0.000 C 
ENDROOT
BRANCH   1   2
ATOM      2  C   UNL     1      48.737   9.114  15.018  0.00  0.00    +0.000 A 
ATOM      3  C   UNL     1      49.545   9.611  14.004  0.00  0.00    +0.000 A 
ATOM      4  N   UNL     1      49.608   9.082  12.767  0.00  0.00    +0.000 NA
ATOM      5  C   UNL     1      48.831   7.998  12.530  0.00  0.00    +0.000 A 
ATOM      6  C   UNL     1      47.958   7.409  13.449  0.00  0.00    +0.000 A 
ATOM      7  C   UNL     1      47.926   8.010  14.718  0.00  0.00    +0.000 A 
BRANCH   6   8
ATOM      8  C   UNL     1      47.146   6.219  13.102  0.00  0.00    +0.000 A 
ATOM      9  C   UNL     1      47.205   5.039  13.877  0.00  0.00    +0.000 A 
ATOM     10  C   UNL     1      46.405   3.928  13.586  0.00  0.00    +0.000 A 
ATOM     11  C   UNL     1      45.542   3.973  12.502  0.00  0.00    +0.000 A 
ATOM     12  F   UNL     1      44.773   2.911  12.227  0.00  0.00    +0.000 F 
ATOM     13  C   UNL     1      45.477   5.110  11.712  0.00  0.00    +0.000 A 
ATOM     14  F   UNL     1      44.646   5.156  10.661  0.00  0.00    +0.000 F 
ATOM     15  C   UNL     1      46.266   6.224  12.004  0.00  0.00    +0.000 A 
ENDBRANCH   6   8
ENDBRANCH   1   2
BRANCH   1  16
ATOM     16  C   UNL     1      49.972   9.428  17.183  0.00  0.00    +0.000 C 
BRANCH  16  17
ATOM     17  N   UNL     1      49.643   8.540  18.294  0.00  0.00    +0.000 N 
ATOM     18  H   UNL     1      50.261   8.605  19.100  0.00  0.00    +0.000 HD
BRANCH  17  22
ATOM     19  C   UNL     1      48.246   4.644  17.451  0.00  0.00    +0.000 A 
ATOM     20  C   UNL     1      49.490   5.049  16.962  0.00  0.00    +0.000 A 
ATOM     21  C   UNL     1      49.970   6.332  17.247  0.00  0.00    +0.000 A 
ATOM     22  C   UNL     1      49.244   7.225  18.045  0.00  0.00    +0.000 A 
ATOM     23  C   UNL     1      47.989   6.807  18.512  0.00  0.00    +0.000 A 
ATOM     24  C   UNL     1      47.488   5.533  18.216  0.00  0.00    +0.000 A 
BRANCH  19  26
ATOM     25  N   UNL     1      48.537   2.393  16.575  0.00  0.00    +0.000 N 
ATOM     26  C   UNL     1      47.688   3.305  17.137  0.00  0.00    +0.000 C 
ATOM     27  O   UNL     1      46.527   3.012  17.396  0.00  0.00    +0.000 OA
ATOM     28  H   UNL     1      48.174   1.456  16.453  0.00  0.00    +0.000 HD
ATOM     29  H   UNL     1      49.541   2.511  16.581  0.00  0.00    +0.000 HD
ENDBRANCH  19  26
ENDBRANCH  17  22
ENDBRANCH  16  17
ENDBRANCH   1  16
TORSDOF 6
ENDMDL
MODEL 8
REMARK VINA RESULT:    -6.171      4.698      6.964
REMARK INTER + INTRA:          -9.259
REMARK INTER:                  -7.729
REMARK INTRA:                  -1.530
REMARK UNBOUND:                -0.923
REMARK  Name = 
REMARK  6 active torsions:
REMARK  status: ('A' for Active; 'I' for Inactive)
REMARK    1  A    between atoms: C_2  and  C_4
REMARK    2  A    between atoms: C_7  and  N_8
REMARK    3  A    between atoms: N_8  and  C_9
REMARK    4  A    between atoms: C_9  and  C_10
REMARK    5  A    between atoms: C_10  and  C_11
REMARK    6  A    between atoms: C_15  and  C_16
REMARK                            x       y       z     vdW  Elec       q    Type
REMARK                         _______ _______ _______ _____ _____    ______ ____
ROOT
ATOM      1  C   UNL     1      49.508   9.378  13.452  0.00  0.00    +0.000 C 
ENDROOT
BRANCH   1   2
ATOM      2  C   UNL     1      49.911   8.551  14.644  0.00  0.00    +0.000 A 
ATOM      3  C   UNL     1      51.060   8.857  15.361  0.00  0.00    +0.000 A 
ATOM      4  N   UNL     1      51.484   8.159  16.432  0.00  0.00    +0.000 NA
ATOM      5  C   UNL     1      50.721   7.107  16.812  0.00  0.00    +0.000 A 
ATOM      6  C   UNL     1      49.555   6.676  16.172  0.00  0.00    +0.000 A 
ATOM      7  C   UNL     1      49.167   7.435  15.055  0.00  0.00    +0.000 A 
BRANCH   6   8
ATOM      8  C   UNL     1      48.779   5.513  16.662  0.00  0.00    +0.000 A 
ATOM      9  C   UNL     1      47.801   4.890  15.855  0.00  0.00    +0.000 A 
ATOM     10  C   UNL     1      47.099   3.760  16.291  0.00  0.00    +0.000 A 
ATOM     11  C   UNL     1      47.353   3.243  17.552  0.00  0.00    +0.000 A 
ATOM     12  F   UNL     1      46.684   2.159  17.967  0.00  0.00    +0.000 F 
ATOM     13  C   UNL     1      48.293   3.845  18.373  0.00  0.00    +0.000 A 
ATOM     14  F   UNL     1      48.539   3.350  19.595  0.00  0.00    +0.000 F 
ATOM     15  C   UNL     1      49.003   4.966  17.939  0.00  0.00    +0.000 A 
ENDBRANCH   6   8
ENDBRANCH   1   2
BRANCH   1  16
ATOM     16  C   UNL     1      47.992   9.584  13.392  0.00  0.00    +0.000 C 
BRANCH  16  17
ATOM     17  N   UNL     1      47.434   8.956  12.198  0.00  0.00    +0.000 N 
ATOM     18  H   UNL     1      47.017   9.595  11.525  0.00  0.00    +0.000 HD
BRANCH  17  22
ATOM     19  C   UNL     1      45.377   5.301  12.701  0.00  0.00    +0.000 A 
ATOM     20  C   UNL     1      44.660   6.499  12.698  0.00  0.00    +0.000 A 
ATOM     21  C   UNL     1      45.328   7.715  12.518  0.00  0.00    +0.000 A 
ATOM     22  C   UNL     1      46.711   7.766  12.305  0.00  0.00    +0.000 A 
ATOM     23  C   UNL     1      47.417   6.554  12.329  0.00  0.00    +0.000 A 
ATOM     24  C   UNL     1      46.763   5.332  12.530  0.00  0.00    +0.000 A 
BRANCH  19  26
ATOM     25  N   UNL     1      45.384   2.873  12.541  0.00  0.00    +0.000 N 
ATOM     26  C   UNL     1      44.707   3.996  12.927  0.00  0.00    +0.000 C 
ATOM     27  O   UNL     1      43.608   3.918  13.463  0.00  0.00    +0.000 OA
ATOM     28  H   UNL     1      44.961   1.986  12.785  0.00  0.00    +0.000 HD
ATOM     29  H   UNL     1      46.373   2.881  12.334  0.00  0.00    +0.000 HD
ENDBRANCH  19  26
ENDBRANCH  17  22
ENDBRANCH  16  17
ENDBRANCH   1  16
TORSDOF 6
ENDMDL
MODEL 9
REMARK VINA RESULT:    -6.020      5.595      7.219
REMARK INTER + INTRA:          -9.055
REMARK INTER:                  -8.469
REMARK INTRA:                  -0.586
REMARK UNBOUND:                -0.923
REMARK  Name = 
REMARK  6 active torsions:
REMARK  status: ('A' for Active; 'I' for Inactive)
REMARK    1  A    between atoms: C_2  and  C_4
REMARK    2  A    between atoms: C_7  and  N_8
REMARK    3  A    between atoms: N_8  and  C_9
REMARK    4  A    between atoms: C_9  and  C_10
REMARK    5  A    between atoms: C_10  and  C_11
REMARK    6  A    between atoms: C_15  and  C_16
REMARK                            x       y       z     vdW  Elec       q    Type
REMARK                         _______ _______ _______ _____ _____    ______ ____
ROOT
ATOM      1  C   UNL     1      47.170   4.521  15.991  0.00  0.00    +0.000 C 
ENDROOT
BRANCH   1   2
ATOM      2  C   UNL     1      48.280   4.634  17.001  0.00  0.00    +0.000 A 
ATOM      3  C   UNL     1      48.272   5.648  17.950  0.00  0.00    +0.000 A 
ATOM      4  N   UNL     1      49.233   5.815  18.878  0.00  0.00    +0.000 NA
ATOM      5  C   UNL     1      50.251   4.922  18.865  0.00  0.00    +0.000 A 
ATOM      6  C   UNL     1      50.396   3.870  17.956  0.00  0.00    +0.000 A 
ATOM      7  C   UNL     1      49.369   3.751  17.005  0.00  0.00    +0.000 A 
BRANCH   6   8
ATOM      8  C   UNL     1      51.545   2.936  18.019  0.00  0.00    +0.000 A 
ATOM      9  C   UNL     1      51.485   1.656  17.425  0.00  0.00    +0.000 A 
ATOM     10  C   UNL     1      52.583   0.788  17.436  0.00  0.00    +0.000 A 
ATOM     11  C   UNL     1      53.758   1.181  18.059  0.00  0.00    +0.000 A 
ATOM     12  F   UNL     1      54.809   0.351  18.066  0.00  0.00    +0.000 F 
ATOM     13  C   UNL     1      53.839   2.423  18.668  0.00  0.00    +0.000 A 
ATOM     14  F   UNL     1      54.972   2.805  19.274  0.00  0.00    +0.000 F 
ATOM     15  C   UNL     1      52.751   3.296  18.650  0.00  0.00    +0.000 A 
ENDBRANCH   6   8
ENDBRANCH   1   2
BRANCH   1  16
ATOM     16  C   UNL     1      47.537   5.195  14.667  0.00  0.00    +0.000 C 
BRANCH  16  17
ATOM     17  N   UNL     1      46.341   5.693  13.993  0.00  0.00    +0.000 N 
ATOM     18  H   UNL     1      45.605   6.033  14.608  0.00  0.00    +0.000 HD
BRANCH  17  22
ATOM     19  C   UNL     1      44.961   3.704  10.531  0.00  0.00    +0.000 A 
ATOM     20  C   UNL     1      45.146   2.981  11.711  0.00  0.00    +0.000 A 
ATOM     21  C   UNL     1      45.589   3.631  12.869  0.00  0.00    +0.000 A 
ATOM     22  C   UNL     1      45.826   5.011  12.887  0.00  0.00    +0.000 A 
ATOM     23  C   UNL     1      45.652   5.718  11.688  0.00  0.00    +0.000 A 
ATOM     24  C   UNL     1      45.230   5.074  10.517  0.00  0.00    +0.000 A 
BRANCH  19  26
ATOM     25  N   UNL     1      44.254   3.849   8.207  0.00  0.00    +0.000 N 
ATOM     26  C   UNL     1      44.529   3.041   9.275  0.00  0.00    +0.000 C 
ATOM     27  O   UNL     1      44.449   1.822   9.183  0.00  0.00    +0.000 OA
ATOM     28  H   UNL     1      44.053   3.383   7.331  0.00  0.00    +0.000 HD
ATOM     29  H   UNL     1      44.546   4.816   8.170  0.00  0.00    +0.000 HD
ENDBRANCH  19  26
ENDBRANCH  17  22
ENDBRANCH  16  17
ENDBRANCH   1  16
TORSDOF 6
ENDMDL
