MODEL 1
REMARK VINA RESULT:    -6.721      0.000      0.000
REMARK INTER + INTRA:          -9.210
REMARK INTER:                  -8.293
REMARK INTRA:                  -0.917
REMARK UNBOUND:                -0.917
REMARK  Name = 
REMARK  7 active torsions:
REMARK  status: ('A' for Active; 'I' for Inactive)
REMARK    1  A    between atoms: C_1  and  C_2
REMARK    2  A    between atoms: C_2  and  C_3
REMARK    3  A    between atoms: C_2  and  C_4
REMARK    4  A    between atoms: C_2  and  C_5
REMARK    5  A    between atoms: C_9  and  C_10
REMARK    6  A    between atoms: N_16  and  C_17
REMARK    7  A    between atoms: C_17  and  C_18
REMARK                            x       y       z     vdW  Elec       q    Type
REMARK                         _______ _______ _______ _____ _____    ______ ____
ROOT
ATOM      1  C   UNL     1      44.551   4.043  11.155  0.00  0.00    +0.000 A 
ATOM      2  N   UNL     1      44.888   2.854  10.676  0.00  0.00    +0.000 NA
ATOM      3  C   UNL     1      45.540   3.067   9.492  0.00  0.00    +0.000 A 
ATOM      4  C   UNL     1      46.078   2.165   8.565  0.00  0.00    +0.000 A 
ATOM      5  C   UNL     1      46.678   2.708   7.423  0.00  0.00    +0.000 A 
ATOM      6  C   UNL     1      46.724   4.100   7.291  0.00  0.00    +0.000 A 
ATOM      7  N   UNL     1      46.217   5.006   8.173  0.00  0.00    +0.000 NA
ATOM      8  C   UNL     1      45.639   4.423   9.236  0.00  0.00    +0.000 A 
ATOM      9  N   UNL     1      44.960   5.036  10.271  0.00  0.00    +0.000 N 
ENDROOT
BRANCH   5  10
ATOM     10  C   UNL     1      47.260   1.889   6.327  0.00  0.00    +0.000 C 
ATOM     11  N   UNL     1      47.939   2.519   5.322  0.00  0.00    +0.000 N 
ATOM     12  O   UNL     1      47.142   0.666   6.324  0.00  0.00    +0.000 OA
ATOM     13  H   UNL     1      48.099   3.512   5.252  0.00  0.00    +0.000 HD
ATOM     14  H   UNL     1      48.336   1.926   4.598  0.00  0.00    +0.000 HD
ENDBRANCH   5  10
BRANCH   1  16
ATOM     15  C   UNL     1      43.327   2.854  12.977  0.00  0.00    +0.000 C 
ATOM     16  C   UNL     1      43.846   4.234  12.498  0.00  0.00    +0.000 C 
ATOM     17  C   UNL     1      42.622   5.157  12.412  0.00  0.00    +0.000 C 
ATOM     18  C   UNL     1      44.818   4.754  13.572  0.00  0.00    +0.000 C 
ENDBRANCH   1  16
BRANCH   9  19
ATOM     19  C   UNL     1      44.785   6.478  10.350  0.00  0.00    +0.000 C 
BRANCH  19  20
ATOM     20  C   UNL     1      45.723   7.174  11.312  0.00  0.00    +0.000 A 
ATOM     21  C   UNL     1      45.201   8.100  12.236  0.00  0.00    +0.000 A 
ATOM     22  C   UNL     1      46.002   8.631  13.249  0.00  0.00    +0.000 A 
ATOM     23  C   UNL     1      47.334   8.238  13.357  0.00  0.00    +0.000 A 
ATOM     24  C   UNL     1      47.872   7.355  12.426  0.00  0.00    +0.000 A 
ATOM     25 CL   UNL     1      49.514   6.860  12.561  0.00  0.00    +0.000 Cl
ATOM     26  C   UNL     1      47.080   6.834  11.407  0.00  0.00    +0.000 A 
ENDBRANCH  19  20
ENDBRANCH   9  19
TORSDOF 4
ENDMDL
MODEL 2
REMARK VINA RESULT:    -6.058      4.124      6.051
REMARK INTER + INTRA:          -8.392
REMARK INTER:                  -7.873
REMARK INTRA:                  -0.520
REMARK UNBOUND:                -0.917
REMARK  Name = 
REMARK  7 active torsions:
REMARK  status: ('A' for Active; 'I' for Inactive)
REMARK    1  A    between atoms: C_1  and  C_2
REMARK    2  A    between atoms: C_2  and  C_3
REMARK    3  A    between atoms: C_2  and  C_4
REMARK    4  A    between atoms: C_2  and  C_5
REMARK    5  A    between atoms: C_9  and  C_10
REMARK    6  A    between atoms: N_16  and  C_17
REMARK    7  A    between atoms: C_17  and  C_18
REMARK                            x       y       z     vdW  Elec       q    Type
REMARK                         _______ _______ _______ _____ _____    ______ ____
ROOT
ATOM      1  C   UNL     1      45.052   4.666  12.512  0.00  0.00    +0.000 A 
ATOM      2  N   UNL     1      45.279   4.024  13.650  0.00  0.00    +0.000 NA
ATOM      3  C   UNL     1      46.345   4.636  14.250  0.00  0.00    +0.000 A 
ATOM      4  C   UNL     1      47.015   4.347  15.446  0.00  0.00    +0.000 A 
ATOM      5  C   UNL     1      48.099   5.166  15.782  0.00  0.00    +0.000 A 
ATOM      6  C   UNL     1      48.428   6.223  14.926  0.00  0.00    +0.000 A 
ATOM      7  N   UNL     1      47.797   6.536  13.760  0.00  0.00    +0.000 NA
ATOM      8  C   UNL     1      46.779   5.704  13.485  0.00  0.00    +0.000 A 
ATOM      9  N   UNL     1      45.987   5.683  12.354  0.00  0.00    +0.000 N 
ENDROOT
BRANCH   5  10
ATOM     10  C   UNL     1      48.938   4.970  16.994  0.00  0.00    +0.000 C 
ATOM     11  N   UNL     1      48.643   5.682  18.123  0.00  0.00    +0.000 N 
ATOM     12  O   UNL     1      49.878   4.179  16.988  0.00  0.00    +0.000 OA
ATOM     13  H   UNL     1      47.885   6.338  18.224  0.00  0.00    +0.000 HD
ATOM     14  H   UNL     1      49.229   5.511  18.936  0.00  0.00    +0.000 HD
ENDBRANCH   5  10
BRANCH   1  16
ATOM     15  C   UNL     1      43.435   2.870  11.887  0.00  0.00    +0.000 C 
ATOM     16  C   UNL     1      43.901   4.314  11.570  0.00  0.00    +0.000 C 
ATOM     17  C   UNL     1      44.306   4.327  10.089  0.00  0.00    +0.000 C 
ATOM     18  C   UNL     1      42.692   5.241  11.790  0.00  0.00    +0.000 C 
ENDBRANCH   1  16
BRANCH   9  19
ATOM     19  C   UNL     1      46.157   6.625  11.258  0.00  0.00    +0.000 C 
BRANCH  19  20
ATOM     20  C   UNL     1      45.535   7.983  11.494  0.00  0.00    +0.000 A 
ATOM     21  C   UNL     1      46.328   9.025  12.013  0.00  0.00    +0.000 A 
ATOM     22  C   UNL     1      45.841  10.331  12.082  0.00  0.00    +0.000 A 
ATOM     23  C   UNL     1      44.556  10.617  11.626  0.00  0.00    +0.000 A 
ATOM     24  C   UNL     1      43.749   9.590  11.149  0.00  0.00    +0.000 A 
ATOM     25 CL   UNL     1      42.164   9.939  10.576  0.00  0.00    +0.000 Cl
ATOM     26  C   UNL     1      44.226   8.284  11.091  0.00  0.00    +0.000 A 
ENDBRANCH  19  20
ENDBRANCH   9  19
TORSDOF 4
ENDMDL
MODEL 3
REMARK VINA RESULT:    -5.905      3.308      5.478
REMARK INTER + INTRA:          -8.203
REMARK INTER:                  -7.307
REMARK INTRA:                  -0.896
REMARK UNBOUND:                -0.917
REMARK  Name = 
REMARK  7 active torsions:
REMARK  status: ('A' for Active; 'I' for Inactive)
REMARK    1  A    between atoms: C_1  and  C_2
REMARK    2  A    between atoms: C_2  and  C_3
REMARK    3  A    between atoms: C_2  and  C_4
REMARK    4  A    between atoms: C_2  and  C_5
REMARK    5  A    between atoms: C_9  and  C_10
REMARK    6  A    between atoms: N_16  and  C_17
REMARK    7  A    between atoms: C_17  and  C_18
REMARK                            x       y       z     vdW  Elec       q    Type
REMARK                         _______ _______ _______ _____ _____    ______ ____
ROOT
ATOM      1  C   UNL     1      48.234   6.757  14.582  0.00  0.00    +0.000 A 
ATOM      2  N   UNL     1      47.790   5.511  14.681  0.00  0.00    +0.000 NA
ATOM      3  C   UNL     1      46.973   5.290  13.606  0.00  0.00    +0.000 A 
ATOM      4  C   UNL     1      46.226   4.164  13.239  0.00  0.00    +0.000 A 
ATOM      5  C   UNL     1      45.464   4.259  12.068  0.00  0.00    +0.000 A 
ATOM      6  C   UNL     1      45.514   5.449  11.335  0.00  0.00    +0.000 A 
ATOM      7  N   UNL     1      46.233   6.561  11.658  0.00  0.00    +0.000 NA
ATOM      8  C   UNL     1      46.926   6.413  12.799  0.00  0.00    +0.000 A 
ATOM      9  N   UNL     1      47.687   7.360  13.454  0.00  0.00    +0.000 N 
ENDROOT
BRANCH   5  10
ATOM     10  C   UNL     1      44.586   3.171  11.562  0.00  0.00    +0.000 C 
ATOM     11  N   UNL     1      43.839   2.457  12.455  0.00  0.00    +0.000 N 
ATOM     12  O   UNL     1      44.526   2.918  10.361  0.00  0.00    +0.000 OA
ATOM     13  H   UNL     1      43.813   2.604  13.452  0.00  0.00    +0.000 HD
ATOM     14  H   UNL     1      43.240   1.730  12.071  0.00  0.00    +0.000 HD
ENDBRANCH   5  10
BRANCH   1  16
ATOM     15  C   UNL     1      49.271   6.474  16.835  0.00  0.00    +0.000 C 
ATOM     16  C   UNL     1      49.222   7.373  15.573  0.00  0.00    +0.000 C 
ATOM     17  C   UNL     1      48.808   8.772  16.048  0.00  0.00    +0.000 C 
ATOM     18  C   UNL     1      50.646   7.418  14.990  0.00  0.00    +0.000 C 
ENDBRANCH   1  16
BRANCH   9  19
ATOM     19  C   UNL     1      47.854   8.716  12.955  0.00  0.00    +0.000 C 
BRANCH  19  20
ATOM     20  C   UNL     1      49.186   8.983  12.291  0.00  0.00    +0.000 A 
ATOM     21  C   UNL     1      49.874  10.178  12.580  0.00  0.00    +0.000 A 
ATOM     22  C   UNL     1      51.178  10.382  12.125  0.00  0.00    +0.000 A 
ATOM     23  C   UNL     1      51.816   9.392  11.381  0.00  0.00    +0.000 A 
ATOM     24  C   UNL     1      51.132   8.225  11.055  0.00  0.00    +0.000 A 
ATOM     25 CL   UNL     1      51.918   6.996  10.143  0.00  0.00    +0.000 Cl
ATOM     26  C   UNL     1      49.827   8.023  11.495  0.00  0.00    +0.000 A 
ENDBRANCH  19  20
ENDBRANCH   9  19
TORSDOF 4
ENDMDL
MODEL 4
REMARK VINA RESULT:    -5.426      4.693      6.413
REMARK INTER + INTRA:          -7.612
REMARK INTER:                  -7.094
REMARK INTRA:                  -0.518
REMARK UNBOUND:                -0.917
REMARK  Name = 
REMARK  7 active torsions:
REMARK  status: ('A' for Active; 'I' for Inactive)
REMARK    1  A    between atoms: C_1  and  C_2
REMARK    2  A    between atoms: C_2  and  C_3
REMARK    3  A    between atoms: C_2  and  C_4
REMARK    4  A    between atoms: C_2  and  C_5
REMARK    5  A    between atoms: C_9  and  C_10
REMARK    6  A    between atoms: N_16  and  C_17
REMARK    7  A    between atoms: C_17  and  C_18
REMARK                            x       y       z     vdW  Elec       q    Type
REMARK                         _______ _______ _______ _____ _____    ______ ____
ROOT
ATOM      1  C   UNL     1      47.844   4.553  16.245  0.00  0.00    +0.000 A 
ATOM      2  N   UNL     1      46.847   4.150  15.469  0.00  0.00    +0.000 NA
ATOM      3  C   UNL     1      46.795   5.008  14.405  0.00  0.00    +0.000 A 
ATOM      4  C   UNL     1      45.922   5.060  13.311  0.00  0.00    +0.000 A 
ATOM      5  C   UNL     1      46.125   6.087  12.382  0.00  0.00    +0.000 A 
ATOM      6  C   UNL     1      47.188   6.972  12.588  0.00  0.00    +0.000 A 
ATOM      7  N   UNL     1      48.060   6.949  13.636  0.00  0.00    +0.000 NA
ATOM      8  C   UNL     1      47.800   5.953  14.500  0.00  0.00    +0.000 A 
ATOM      9  N   UNL     1      48.430   5.691  15.700  0.00  0.00    +0.000 N 
ENDROOT
BRANCH   5  10
ATOM     10  C   UNL     1      45.264   6.306  11.189  0.00  0.00    +0.000 C 
ATOM     11  N   UNL     1      45.438   5.506  10.095  0.00  0.00    +0.000 N 
ATOM     12  O   UNL     1      44.405   7.184  11.185  0.00  0.00    +0.000 OA
ATOM     13  H   UNL     1      46.103   4.753  10.016  0.00  0.00    +0.000 HD
ATOM     14  H   UNL     1      44.821   5.675   9.305  0.00  0.00    +0.000 HD
ENDBRANCH   5  10
BRANCH   1  16
ATOM     15  C   UNL     1      47.277   2.643  17.748  0.00  0.00    +0.000 C 
ATOM     16  C   UNL     1      48.260   3.819  17.520  0.00  0.00    +0.000 C 
ATOM     17  C   UNL     1      48.189   4.699  18.775  0.00  0.00    +0.000 C 
ATOM     18  C   UNL     1      49.670   3.215  17.384  0.00  0.00    +0.000 C 
ENDBRANCH   1  16
BRANCH   9  19
ATOM     19  C   UNL     1      49.527   6.502  16.206  0.00  0.00    +0.000 C 
BRANCH  19  20
ATOM     20  C   UNL     1      49.114   7.854  16.743  0.00  0.00    +0.000 A 
ATOM     21  C   UNL     1      49.368   9.008  15.977  0.00  0.00    +0.000 A 
ATOM     22  C   UNL     1      48.851  10.248  16.355  0.00  0.00    +0.000 A 
ATOM     23  C   UNL     1      48.067  10.352  17.502  0.00  0.00    +0.000 A 
ATOM     24  C   UNL     1      47.843   9.227  18.289  0.00  0.00    +0.000 A 
ATOM     25 CL   UNL     1      46.867   9.348  19.701  0.00  0.00    +0.000 Cl
ATOM     26  C   UNL     1      48.367   7.991  17.922  0.00  0.00    +0.000 A 
ENDBRANCH  19  20
ENDBRANCH   9  19
TORSDOF 4
ENDMDL
MODEL 5
REMARK VINA RESULT:    -5.396      3.845      6.401
REMARK INTER + INTRA:          -7.575
REMARK INTER:                  -7.025
REMARK INTRA:                  -0.550
REMARK UNBOUND:                -0.917
REMARK  Name = 
REMARK  7 active torsions:
REMARK  status: ('A' for Active; 'I' for Inactive)
REMARK    1  A    between atoms: C_1  and  C_2
REMARK    2  A    between atoms: C_2  and  C_3
REMARK    3  A    between atoms: C_2  and  C_4
REMARK    4  A    between atoms: C_2  and  C_5
REMARK    5  A    between atoms: C_9  and  C_10
REMARK    6  A    between atoms: N_16  and  C_17
REMARK    7  A    between atoms: C_17  and  C_18
REMARK                            x       y       z     vdW  Elec       q    Type
REMARK                         _______ _______ _______ _____ _____    ______ ____
ROOT
ATOM      1  C   UNL     1      48.133   8.364  12.581  0.00  0.00    +0.000 A 
ATOM      2  N   UNL     1      47.060   7.959  11.916  0.00  0.00    +0.000 NA
ATOM      3  C   UNL     1      46.775   6.692  12.347  0.00  0.00    +0.000 A 
ATOM      4  C   UNL     1      45.772   5.795  11.958  0.00  0.00    +0.000 A 
ATOM      5  C   UNL     1      45.756   4.545  12.590  0.00  0.00    +0.000 A 
ATOM      6  C   UNL     1      46.715   4.283  13.574  0.00  0.00    +0.000 A 
ATOM      7  N   UNL     1      47.699   5.132  13.981  0.00  0.00    +0.000 NA
ATOM      8  C   UNL     1      47.673   6.305  13.326  0.00  0.00    +0.000 A 
ATOM      9  N   UNL     1      48.567   7.352  13.431  0.00  0.00    +0.000 N 
ENDROOT
BRANCH   5  10
ATOM     10  C   UNL     1      44.785   3.467  12.265  0.00  0.00    +0.000 C 
ATOM     11  N   UNL     1      44.933   2.777  11.095  0.00  0.00    +0.000 N 
ATOM     12  O   UNL     1      43.867   3.193  13.034  0.00  0.00    +0.000 OA
ATOM     13  H   UNL     1      45.662   2.921  10.414  0.00  0.00    +0.000 HD
ATOM     14  H   UNL     1      44.260   2.037  10.913  0.00  0.00    +0.000 HD
ENDBRANCH   5  10
BRANCH   1  16
ATOM     15  C   UNL     1      47.852  10.565  11.438  0.00  0.00    +0.000 C 
ATOM     16  C   UNL     1      48.740   9.757  12.417  0.00  0.00    +0.000 C 
ATOM     17  C   UNL     1      50.151   9.735  11.812  0.00  0.00    +0.000 C 
ATOM     18  C   UNL     1      48.758  10.521  13.753  0.00  0.00    +0.000 C 
ENDBRANCH   1  16
BRANCH   9  19
ATOM     19  C   UNL     1      49.712   7.320  14.327  0.00  0.00    +0.000 C 
BRANCH  19  20
ATOM     20  C   UNL     1      49.360   7.257  15.796  0.00  0.00    +0.000 A 
ATOM     21  C   UNL     1      49.933   6.253  16.601  0.00  0.00    +0.000 A 
ATOM     22  C   UNL     1      49.771   6.265  17.987  0.00  0.00    +0.000 A 
ATOM     23  C   UNL     1      49.038   7.285  18.590  0.00  0.00    +0.000 A 
ATOM     24  C   UNL     1      48.433   8.259  17.803  0.00  0.00    +0.000 A 
ATOM     25 CL   UNL     1      47.535   9.526  18.543  0.00  0.00    +0.000 Cl
ATOM     26  C   UNL     1      48.582   8.243  16.419  0.00  0.00    +0.000 A 
ENDBRANCH  19  20
ENDBRANCH   9  19
TORSDOF 4
ENDMDL
MODEL 6
REMARK VINA RESULT:    -5.380      4.763      6.534
REMARK INTER + INTRA:          -7.556
REMARK INTER:                  -7.224
REMARK INTRA:                  -0.331
REMARK UNBOUND:                -0.917
REMARK  Name = 
REMARK  7 active torsions:
REMARK  status: ('A' for Active; 'I' for Inactive)
REMARK    1  A    between atoms: C_1  and  C_2
REMARK    2  A    between atoms: C_2  and  C_3
REMARK    3  A    between atoms: C_2  and  C_4
REMARK    4  A    between atoms: C_2  and  C_5
REMARK    5  A    between atoms: C_9  and  C_10
REMARK    6  A    between atoms: N_16  and  C_17
REMARK    7  A    between atoms: C_17  and  C_18
REMARK                            x       y       z     vdW  Elec       q    Type
REMARK                         _______ _______ _______ _____ _____    ______ ____
ROOT
ATOM      1  C   UNL     1      47.882   4.532  16.154  0.00  0.00    +0.000 A 
ATOM      2  N   UNL     1      47.116   3.981  15.222  0.00  0.00    +0.000 NA
ATOM      3  C   UNL     1      46.985   4.899  14.216  0.00  0.00    +0.000 A 
ATOM      4  C   UNL     1      46.265   4.848  13.016  0.00  0.00    +0.000 A 
ATOM      5  C   UNL     1      46.321   5.978  12.191  0.00  0.00    +0.000 A 
ATOM      6  C   UNL     1      47.102   7.064  12.600  0.00  0.00    +0.000 A 
ATOM      7  N   UNL     1      47.819   7.147  13.756  0.00  0.00    +0.000 NA
ATOM      8  C   UNL     1      47.708   6.041  14.511  0.00  0.00    +0.000 A 
ATOM      9  N   UNL     1      48.233   5.822  15.769  0.00  0.00    +0.000 N 
ENDROOT
BRANCH   5  10
ATOM     10  C   UNL     1      45.584   6.100  10.905  0.00  0.00    +0.000 C 
ATOM     11  N   UNL     1      44.443   6.851  10.868  0.00  0.00    +0.000 N 
ATOM     12  O   UNL     1      45.993   5.543   9.890  0.00  0.00    +0.000 OA
ATOM     13  H   UNL     1      44.044   7.354  11.644  0.00  0.00    +0.000 HD
ATOM     14  H   UNL     1      43.974   6.924   9.969  0.00  0.00    +0.000 HD
ENDBRANCH   5  10
BRANCH   1  16
ATOM     15  C   UNL     1      48.275   4.805  18.604  0.00  0.00    +0.000 C 
ATOM     16  C   UNL     1      48.308   3.798  17.426  0.00  0.00    +0.000 C 
ATOM     17  C   UNL     1      49.740   3.251  17.358  0.00  0.00    +0.000 C 
ATOM     18  C   UNL     1      47.329   2.661  17.771  0.00  0.00    +0.000 C 
ENDBRANCH   1  16
BRANCH   9  19
ATOM     19  C   UNL     1      49.028   6.816  16.473  0.00  0.00    +0.000 C 
BRANCH  19  20
ATOM     20  C   UNL     1      50.500   6.803  16.130  0.00  0.00    +0.000 A 
ATOM     21  C   UNL     1      50.991   7.699  15.161  0.00  0.00    +0.000 A 
ATOM     22  C   UNL     1      52.362   7.838  14.941  0.00  0.00    +0.000 A 
ATOM     23  C   UNL     1      53.264   7.086  15.692  0.00  0.00    +0.000 A 
ATOM     24  C   UNL     1      52.790   6.168  16.623  0.00  0.00    +0.000 A 
ATOM     25 CL   UNL     1      53.900   5.244  17.559  0.00  0.00    +0.000 Cl
ATOM     26  C   UNL     1      51.423   6.018  16.836  0.00  0.00    +0.000 A 
ENDBRANCH  19  20
ENDBRANCH   9  19
TORSDOF 4
ENDMDL
MODEL 7
REMARK VINA RESULT:    -5.347      3.153      4.672
REMARK INTER + INTRA:          -7.514
REMARK INTER:                  -8.072
REMARK INTRA:                   0.558
REMARK UNBOUND:                -0.917
REMARK  Name = 
REMARK  7 active torsions:
REMARK  status: ('A' for Active; 'I' for Inactive)
REMARK    1  A    between atoms: C_1  and  C_2
REMARK    2  A    between atoms: C_2  and  C_3
REMARK    3  A    between atoms: C_2  and  C_4
REMARK    4  A    between atoms: C_2  and  C_5
REMARK    5  A    between atoms: C_9  and  C_10
REMARK    6  A    between atoms: N_16  and  C_17
REMARK    7  A    between atoms: C_17  and  C_18
REMARK                            x       y       z     vdW  Elec       q    Type
REMARK                         _______ _______ _______ _____ _____    ______ ____
ROOT
ATOM      1  C   UNL     1      47.432   4.650  15.259  0.00  0.00    +0.000 A 
ATOM      2  N   UNL     1      46.772   3.654  14.683  0.00  0.00    +0.000 NA
ATOM      3  C   UNL     1      46.290   4.128  13.493  0.00  0.00    +0.000 A 
ATOM      4  C   UNL     1      45.506   3.510  12.510  0.00  0.00    +0.000 A 
ATOM      5  C   UNL     1      45.158   4.282  11.396  0.00  0.00    +0.000 A 
ATOM      6  C   UNL     1      45.629   5.597  11.322  0.00  0.00    +0.000 A 
ATOM      7  N   UNL     1      46.396   6.228  12.254  0.00  0.00    +0.000 NA
ATOM      8  C   UNL     1      46.679   5.442  13.306  0.00  0.00    +0.000 A 
ATOM      9  N   UNL     1      47.359   5.785  14.458  0.00  0.00    +0.000 N 
ENDROOT
BRANCH   5  10
ATOM     10  C   UNL     1      44.301   3.790  10.285  0.00  0.00    +0.000 C 
ATOM     11  N   UNL     1      44.158   4.566   9.169  0.00  0.00    +0.000 N 
ATOM     12  O   UNL     1      43.734   2.703  10.361  0.00  0.00    +0.000 OA
ATOM     13  H   UNL     1      44.596   5.460   9.013  0.00  0.00    +0.000 HD
ATOM     14  H   UNL     1      43.576   4.191   8.424  0.00  0.00    +0.000 HD
ENDBRANCH   5  10
BRANCH   1  16
ATOM     15  C   UNL     1      48.569   3.018  16.767  0.00  0.00    +0.000 C 
ATOM     16  C   UNL     1      48.167   4.504  16.592  0.00  0.00    +0.000 C 
ATOM     17  C   UNL     1      47.299   4.868  17.805  0.00  0.00    +0.000 C 
ATOM     18  C   UNL     1      49.463   5.333  16.610  0.00  0.00    +0.000 C 
ENDBRANCH   1  16
BRANCH   9  19
ATOM     19  C   UNL     1      47.897   7.117  14.686  0.00  0.00    +0.000 C 
BRANCH  19  20
ATOM     20  C   UNL     1      48.400   7.814  13.442  0.00  0.00    +0.000 A 
ATOM     21  C   UNL     1      47.815   9.033  13.050  0.00  0.00    +0.000 A 
ATOM     22  C   UNL     1      48.363   9.791  12.013  0.00  0.00    +0.000 A 
ATOM     23  C   UNL     1      49.507   9.343  11.357  0.00  0.00    +0.000 A 
ATOM     24  C   UNL     1      50.071   8.120  11.708  0.00  0.00    +0.000 A 
ATOM     25 CL   UNL     1      51.489   7.567  10.908  0.00  0.00    +0.000 Cl
ATOM     26  C   UNL     1      49.520   7.356  12.733  0.00  0.00    +0.000 A 
ENDBRANCH  19  20
ENDBRANCH   9  19
TORSDOF 4
ENDMDL
MODEL 8
REMARK VINA RESULT:    -5.341      4.321      6.483
REMARK INTER + INTRA:          -7.507
REMARK INTER:                  -6.605
REMARK INTRA:                  -0.902
REMARK UNBOUND:                -0.917
REMARK  Name = 
REMARK  7 active torsions:
REMARK  status: ('A' for Active; 'I' for Inactive)
REMARK    1  A    between atoms: C_1  and  C_2
REMARK    2  A    between atoms: C_2  and  C_3
REMARK    3  A    between atoms: C_2  and  C_4
REMARK    4  A    between atoms: C_2  and  C_5
REMARK    5  A    between atoms: C_9  and  C_10
REMARK    6  A    between atoms: N_16  and  C_17
REMARK    7  A    between atoms: C_17  and  C_18
REMARK                            x       y       z     vdW  Elec       q    Type
REMARK                         _______ _______ _______ _____ _____    ______ ____
ROOT
ATOM      1  C   UNL     1      47.618   8.770  12.385  0.00  0.00    +0.000 A 
ATOM      2  N   UNL     1      46.311   8.572  12.284  0.00  0.00    +0.000 NA
ATOM      3  C   UNL     1      46.078   7.261  12.597  0.00  0.00    +0.000 A 
ATOM      4  C   UNL     1      44.889   6.520  12.621  0.00  0.00    +0.000 A 
ATOM      5  C   UNL     1      44.987   5.169  12.974  0.00  0.00    +0.000 A 
ATOM      6  C   UNL     1      46.247   4.655  13.300  0.00  0.00    +0.000 A 
ATOM      7  N   UNL     1      47.421   5.345  13.294  0.00  0.00    +0.000 NA
ATOM      8  C   UNL     1      47.263   6.629  12.929  0.00  0.00    +0.000 A 
ATOM      9  N   UNL     1      48.245   7.580  12.739  0.00  0.00    +0.000 N 
ENDROOT
BRANCH   5  10
ATOM     10  C   UNL     1      43.829   4.238  13.009  0.00  0.00    +0.000 C 
ATOM     11  N   UNL     1      44.036   2.918  12.722  0.00  0.00    +0.000 N 
ATOM     12  O   UNL     1      42.705   4.641  13.296  0.00  0.00    +0.000 OA
ATOM     13  H   UNL     1      44.922   2.497  12.494  0.00  0.00    +0.000 HD
ATOM     14  H   UNL     1      43.223   2.308  12.770  0.00  0.00    +0.000 HD
ENDBRANCH   5  10
BRANCH   1  16
ATOM     15  C   UNL     1      47.261  11.051  11.436  0.00  0.00    +0.000 C 
ATOM     16  C   UNL     1      48.276  10.132  12.162  0.00  0.00    +0.000 C 
ATOM     17  C   UNL     1      49.522  10.062  11.267  0.00  0.00    +0.000 C 
ATOM     18  C   UNL     1      48.630  10.808  13.498  0.00  0.00    +0.000 C 
ENDBRANCH   1  16
BRANCH   9  19
ATOM     19  C   UNL     1      49.659   7.299  12.933  0.00  0.00    +0.000 C 
BRANCH  19  20
ATOM     20  C   UNL     1      50.204   7.714  14.282  0.00  0.00    +0.000 A 
ATOM     21  C   UNL     1      51.373   8.496  14.343  0.00  0.00    +0.000 A 
ATOM     22  C   UNL     1      51.809   9.042  15.552  0.00  0.00    +0.000 A 
ATOM     23  C   UNL     1      51.077   8.818  16.717  0.00  0.00    +0.000 A 
ATOM     24  C   UNL     1      49.943   8.014  16.676  0.00  0.00    +0.000 A 
ATOM     25 CL   UNL     1      49.032   7.743  18.110  0.00  0.00    +0.000 Cl
ATOM     26  C   UNL     1      49.513   7.458  15.475  0.00  0.00    +0.000 A 
ENDBRANCH  19  20
ENDBRANCH   9  19
TORSDOF 4
ENDMDL
MODEL 9
REMARK VINA RESULT:    -5.034      3.747      6.273
REMARK INTER + INTRA:          -7.128
REMARK INTER:                  -6.395
REMARK INTRA:                  -0.733
REMARK UNBOUND:                -0.917
REMARK  Name = 
REMARK  7 active torsions:
REMARK  status: ('A' for Active; 'I' for Inactive)
REMARK    1  A    between atoms: C_1  and  C_2
REMARK    2  A    between atoms: C_2  and  C_3
REMARK    3  A    between atoms: C_2  and  C_4
REMARK    4  A    between atoms: C_2  and  C_5
REMARK    5  A    between atoms: C_9  and  C_10
REMARK    6  A    between atoms: N_16  and  C_17
REMARK    7  A    between atoms: C_17  and  C_18
REMARK                            x       y       z     vdW  Elec       q    Type
REMARK                         _______ _______ _______ _____ _____    ______ ____
ROOT
ATOM      1  C   UNL     1      47.304   9.046  12.370  0.00  0.00    +0.000 A 
ATOM      2  N   UNL     1      46.184   8.492  11.925  0.00  0.00    +0.000 NA
ATOM      3  C   UNL     1      46.204   7.180  12.311  0.00  0.00    +0.000 A 
ATOM      4  C   UNL     1      45.292   6.142  12.083  0.00  0.00    +0.000 A 
ATOM      5  C   UNL     1      45.613   4.884  12.606  0.00  0.00    +0.000 A 
ATOM      6  C   UNL     1      46.799   4.749  13.336  0.00  0.00    +0.000 A 
ATOM      7  N   UNL     1      47.706   5.735  13.582  0.00  0.00    +0.000 NA
ATOM      8  C   UNL     1      47.350   6.911  13.039  0.00  0.00    +0.000 A 
ATOM      9  N   UNL     1      48.071   8.089  13.026  0.00  0.00    +0.000 N 
ENDROOT
BRANCH   5  10
ATOM     10  C   UNL     1      44.773   3.672  12.419  0.00  0.00    +0.000 C 
ATOM     11  N   UNL     1      45.028   2.850  11.357  0.00  0.00    +0.000 N 
ATOM     12  O   UNL     1      43.869   3.405  13.207  0.00  0.00    +0.000 OA
ATOM     13  H   UNL     1      45.756   2.981  10.673  0.00  0.00    +0.000 HD
ATOM     14  H   UNL     1      44.443   2.023  11.270  0.00  0.00    +0.000 HD
ENDBRANCH   5  10
BRANCH   1  16
ATOM     15  C   UNL     1      48.660  10.657  11.029  0.00  0.00    +0.000 C 
ATOM     16  C   UNL     1      47.634  10.527  12.184  0.00  0.00    +0.000 C 
ATOM     17  C   UNL     1      48.286  11.161  13.421  0.00  0.00    +0.000 C 
ATOM     18  C   UNL     1      46.387  11.333  11.780  0.00  0.00    +0.000 C 
ENDBRANCH   1  16
BRANCH   9  19
ATOM     19  C   UNL     1      49.380   8.215  13.646  0.00  0.00    +0.000 C 
BRANCH  19  20
ATOM     20  C   UNL     1      50.539   8.219  12.675  0.00  0.00    +0.000 A 
ATOM     21  C   UNL     1      50.450   7.462  11.490  0.00  0.00    +0.000 A 
ATOM     22  C   UNL     1      51.419   7.576  10.492  0.00  0.00    +0.000 A 
ATOM     23  C   UNL     1      52.489   8.452  10.661  0.00  0.00    +0.000 A 
ATOM     24  C   UNL     1      52.610   9.175  11.843  0.00  0.00    +0.000 A 
ATOM     25 CL   UNL     1      53.924  10.265  12.052  0.00  0.00    +0.000 Cl
ATOM     26  C   UNL     1      51.652   9.055  12.846  0.00  0.00    +0.000 A 
ENDBRANCH  19  20
ENDBRANCH   9  19
TORSDOF 4
ENDMDL
