MODEL 1
REMARK VINA RESULT:    -8.262      0.000      0.000
REMARK INTER + INTRA:         -11.346
REMARK INTER:                 -10.676
REMARK INTRA:                  -0.670
REMARK UNBOUND:                -0.670
REMARK  Name = 
REMARK  5 active torsions:
REMARK  status: ('A' for Active; 'I' for Inactive)
REMARK    1  A    between atoms: C_2  and  C_20
REMARK    2  A    between atoms: N_3  and  C_4
REMARK    3  A    between atoms: C_4  and  C_5
REMARK    4  A    between atoms: C_8  and  C_9
REMARK    5  A    between atoms: C_9  and  N_10
REMARK                            x       y       z     vdW  Elec       q    Type
REMARK                         _______ _______ _______ _____ _____    ______ ____
ROOT
ATOM      1  C   UNL     1      47.174   7.756  13.399  0.00  0.00    +0.000 C 
ENDROOT
BRANCH   1   2
ATOM      2  C   UNL     1      46.266   6.745  12.745  0.00  0.00    +0.000 A 
ATOM      3  C   UNL     1      46.478   5.371  12.929  0.00  0.00    +0.000 A 
ATOM      4  C   UNL     1      45.656   4.428  12.300  0.00  0.00    +0.000 A 
ATOM      5  C   UNL     1      44.616   4.836  11.454  0.00  0.00    +0.000 A 
ATOM      6  C   UNL     1      44.402   6.209  11.273  0.00  0.00    +0.000 A 
ATOM      7  C   UNL     1      45.224   7.153  11.901  0.00  0.00    +0.000 A 
BRANCH   5   8
ATOM      8  C   UNL     1      43.763   3.823  10.731  0.00  0.00    +0.000 C 
BRANCH   8   9
ATOM      9  N   UNL     1      44.531   2.976   9.845  0.00  0.00    +0.000 N 
ATOM     10  C   UNL     1      45.049   3.521   8.697  0.00  0.00    +0.000 C 
ATOM     11  O   UNL     1      44.819   4.678   8.357  0.00  0.00    +0.000 OA
ATOM     12  N   UNL     1      45.839   2.681   7.950  0.00  0.00    +0.000 N 
ATOM     13  C   UNL     1      46.086   1.265   8.137  0.00  0.00    +0.000 C 
ATOM     14  C   UNL     1      47.361   1.023   7.348  0.00  0.00    +0.000 C 
ATOM     15  C   UNL     1      47.222   1.962   6.155  0.00  0.00    +0.000 C 
ATOM     16  C   UNL     1      46.406   3.137   6.689  0.00  0.00    +0.000 C 
ATOM     17  H   UNL     1      45.095   2.274  10.290  0.00  0.00    +0.000 HD
ENDBRANCH   8   9
ENDBRANCH   5   8
ENDBRANCH   1   2
BRANCH   1  20
ATOM     18  O   UNL     1      49.794   7.027  14.029  0.00  0.00    +0.000 OA
ATOM     19  C   UNL     1      48.949   7.013  14.923  0.00  0.00    +0.000 C 
ATOM     20  N   UNL     1      47.628   7.294  14.685  0.00  0.00    +0.000 N 
ATOM     21  H   UNL     1      47.016   7.480  15.471  0.00  0.00    +0.000 HD
BRANCH  19  22
ATOM     22  C   UNL     1      49.296   6.639  16.300  0.00  0.00    +0.000 A 
ATOM     23  C   UNL     1      50.044   7.499  17.090  0.00  0.00    +0.000 A 
ATOM     24  S   UNL     1      50.388   6.876  18.641  0.00  0.00    +0.000 S 
ATOM     25  C   UNL     1      49.502   5.457  18.329  0.00  0.00    +0.000 A 
ATOM     26  N   UNL     1      49.378   4.485  19.273  0.00  0.00    +0.000 NA
ATOM     27  C   UNL     1      48.652   3.480  18.910  0.00  0.00    +0.000 A 
ATOM     28  N   UNL     1      48.038   3.360  17.691  0.00  0.00    +0.000 N 
ATOM     29  C   UNL     1      48.159   4.300  16.698  0.00  0.00    +0.000 A 
ATOM     30  O   UNL     1      47.636   4.137  15.600  0.00  0.00    +0.000 OA
ATOM     31  C   UNL     1      48.962   5.454  17.054  0.00  0.00    +0.000 A 
ATOM     32  H   UNL     1      47.491   2.542  17.464  0.00  0.00    +0.000 HD
ENDBRANCH  19  22
ENDBRANCH   1  20
TORSDOF 5
ENDMDL
MODEL 2
REMARK VINA RESULT:    -8.180      0.927      1.223
REMARK INTER + INTRA:         -11.240
REMARK INTER:                 -10.468
REMARK INTRA:                  -0.772
REMARK UNBOUND:                -0.670
REMARK  Name = 
REMARK  5 active torsions:
REMARK  status: ('A' for Active; 'I' for Inactive)
REMARK    1  A    between atoms: C_2  and  C_20
REMARK    2  A    between atoms: N_3  and  C_4
REMARK    3  A    between atoms: C_4  and  C_5
REMARK    4  A    between atoms: C_8  and  C_9
REMARK    5  A    between atoms: C_9  and  N_10
REMARK                            x       y       z     vdW  Elec       q    Type
REMARK                         _______ _______ _______ _____ _____    ______ ____
ROOT
ATOM      1  C   UNL     1      47.435   8.475  13.902  0.00  0.00    +0.000 C 
ENDROOT
BRANCH   1   2
ATOM      2  C   UNL     1      46.563   7.632  13.006  0.00  0.00    +0.000 A 
ATOM      3  C   UNL     1      46.812   6.260  12.855  0.00  0.00    +0.000 A 
ATOM      4  C   UNL     1      46.024   5.478  12.001  0.00  0.00    +0.000 A 
ATOM      5  C   UNL     1      44.983   6.055  11.260  0.00  0.00    +0.000 A 
ATOM      6  C   UNL     1      44.734   7.425  11.413  0.00  0.00    +0.000 A 
ATOM      7  C   UNL     1      45.522   8.207  12.267  0.00  0.00    +0.000 A 
BRANCH   5   8
ATOM      8  C   UNL     1      44.168   5.228  10.297  0.00  0.00    +0.000 C 
BRANCH   8   9
ATOM      9  N   UNL     1      44.955   4.707   9.202  0.00  0.00    +0.000 N 
ATOM     10  C   UNL     1      45.274   3.371   9.195  0.00  0.00    +0.000 C 
ATOM     11  O   UNL     1      44.982   2.623  10.124  0.00  0.00    +0.000 OA
ATOM     12  N   UNL     1      45.947   2.931   8.082  0.00  0.00    +0.000 N 
ATOM     13  C   UNL     1      46.485   3.707   6.982  0.00  0.00    +0.000 C 
ATOM     14  C   UNL     1      46.658   2.677   5.878  0.00  0.00    +0.000 C 
ATOM     15  C   UNL     1      47.067   1.417   6.632  0.00  0.00    +0.000 C 
ATOM     16  C   UNL     1      46.375   1.543   7.987  0.00  0.00    +0.000 C 
ATOM     17  H   UNL     1      44.782   5.120   8.302  0.00  0.00    +0.000 HD
ENDBRANCH   8   9
ENDBRANCH   5   8
ENDBRANCH   1   2
BRANCH   1  20
ATOM     18  O   UNL     1      49.882   7.152  14.138  0.00  0.00    +0.000 OA
ATOM     19  C   UNL     1      49.122   7.158  15.105  0.00  0.00    +0.000 C 
ATOM     20  N   UNL     1      47.876   7.729  15.053  0.00  0.00    +0.000 N 
ATOM     21  H   UNL     1      47.377   7.900  15.918  0.00  0.00    +0.000 HD
BRANCH  19  22
ATOM     22  C   UNL     1      49.484   6.504  16.369  0.00  0.00    +0.000 A 
ATOM     23  C   UNL     1      50.482   7.036  17.171  0.00  0.00    +0.000 A 
ATOM     24  S   UNL     1      50.795   6.115  18.574  0.00  0.00    +0.000 S 
ATOM     25  C   UNL     1      49.569   5.001  18.184  0.00  0.00    +0.000 A 
ATOM     26  N   UNL     1      49.295   3.947  18.998  0.00  0.00    +0.000 NA
ATOM     27  C   UNL     1      48.319   3.202  18.595  0.00  0.00    +0.000 A 
ATOM     28  N   UNL     1      47.594   3.418  17.452  0.00  0.00    +0.000 N 
ATOM     29  C   UNL     1      47.854   4.450  16.585  0.00  0.00    +0.000 A 
ATOM     30  O   UNL     1      47.215   4.585  15.546  0.00  0.00    +0.000 OA
ATOM     31  C   UNL     1      48.939   5.321  16.994  0.00  0.00    +0.000 A 
ATOM     32  H   UNL     1      46.848   2.791  17.186  0.00  0.00    +0.000 HD
ENDBRANCH  19  22
ENDBRANCH   1  20
TORSDOF 5
ENDMDL
MODEL 3
REMARK VINA RESULT:    -7.670      4.677      9.344
REMARK INTER + INTRA:         -10.582
REMARK INTER:                  -9.845
REMARK INTRA:                  -0.737
REMARK UNBOUND:                -0.670
REMARK  Name = 
REMARK  5 active torsions:
REMARK  status: ('A' for Active; 'I' for Inactive)
REMARK    1  A    between atoms: C_2  and  C_20
REMARK    2  A    between atoms: N_3  and  C_4
REMARK    3  A    between atoms: C_4  and  C_5
REMARK    4  A    between atoms: C_8  and  C_9
REMARK    5  A    between atoms: C_9  and  N_10
REMARK                            x       y       z     vdW  Elec       q    Type
REMARK                         _______ _______ _______ _____ _____    ______ ____
ROOT
ATOM      1  C   UNL     1      47.151   3.545  16.918  0.00  0.00    +0.000 C 
ENDROOT
BRANCH   1   2
ATOM      2  C   UNL     1      48.632   3.458  17.189  0.00  0.00    +0.000 A 
ATOM      3  C   UNL     1      49.319   2.247  17.020  0.00  0.00    +0.000 A 
ATOM      4  C   UNL     1      50.688   2.154  17.299  0.00  0.00    +0.000 A 
ATOM      5  C   UNL     1      51.398   3.265  17.774  0.00  0.00    +0.000 A 
ATOM      6  C   UNL     1      50.712   4.476  17.940  0.00  0.00    +0.000 A 
ATOM      7  C   UNL     1      49.343   4.569  17.662  0.00  0.00    +0.000 A 
BRANCH   5   8
ATOM      8  C   UNL     1      52.861   3.156  18.129  0.00  0.00    +0.000 C 
BRANCH   8   9
ATOM      9  N   UNL     1      53.497   2.003  17.531  0.00  0.00    +0.000 N 
ATOM     10  C   UNL     1      54.142   1.108  18.348  0.00  0.00    +0.000 C 
ATOM     11  O   UNL     1      54.265   1.292  19.556  0.00  0.00    +0.000 OA
ATOM     12  N   UNL     1      54.646  -0.006  17.722  0.00  0.00    +0.000 N 
ATOM     13  C   UNL     1      54.709  -0.297  16.303  0.00  0.00    +0.000 C 
ATOM     14  C   UNL     1      54.898  -1.804  16.261  0.00  0.00    +0.000 C 
ATOM     15  C   UNL     1      55.775  -2.083  17.476  0.00  0.00    +0.000 C 
ATOM     16  C   UNL     1      55.388  -1.001  18.481  0.00  0.00    +0.000 C 
ATOM     17  H   UNL     1      53.030   1.609  16.733  0.00  0.00    +0.000 HD
ENDBRANCH   8   9
ENDBRANCH   5   8
ENDBRANCH   1   2
BRANCH   1  20
ATOM     18  O   UNL     1      47.172   3.020  14.176  0.00  0.00    +0.000 OA
ATOM     19  C   UNL     1      46.841   4.141  14.557  0.00  0.00    +0.000 C 
ATOM     20  N   UNL     1      46.866   4.502  15.880  0.00  0.00    +0.000 N 
ATOM     21  H   UNL     1      46.389   5.349  16.168  0.00  0.00    +0.000 HD
BRANCH  19  22
ATOM     22  C   UNL     1      46.447   5.189  13.606  0.00  0.00    +0.000 A 
ATOM     23  C   UNL     1      47.349   6.177  13.242  0.00  0.00    +0.000 A 
ATOM     24  S   UNL     1      46.700   7.332  12.166  0.00  0.00    +0.000 S 
ATOM     25  C   UNL     1      45.206   6.519  12.106  0.00  0.00    +0.000 A 
ATOM     26  N   UNL     1      44.186   6.982  11.336  0.00  0.00    +0.000 NA
ATOM     27  C   UNL     1      43.123   6.248  11.362  0.00  0.00    +0.000 A 
ATOM     28  N   UNL     1      42.990   5.094  12.088  0.00  0.00    +0.000 N 
ATOM     29  C   UNL     1      43.980   4.604  12.903  0.00  0.00    +0.000 A 
ATOM     30  O   UNL     1      43.809   3.594  13.577  0.00  0.00    +0.000 OA
ATOM     31  C   UNL     1      45.200   5.390  12.907  0.00  0.00    +0.000 A 
ATOM     32  H   UNL     1      42.126   4.569  12.074  0.00  0.00    +0.000 HD
ENDBRANCH  19  22
ENDBRANCH   1  20
TORSDOF 5
ENDMDL
MODEL 4
REMARK VINA RESULT:    -7.634      2.284      4.135
REMARK INTER + INTRA:         -10.535
REMARK INTER:                  -9.438
REMARK INTRA:                  -1.097
REMARK UNBOUND:                -0.670
REMARK  Name = 
REMARK  5 active torsions:
REMARK  status: ('A' for Active; 'I' for Inactive)
REMARK    1  A    between atoms: C_2  and  C_20
REMARK    2  A    between atoms: N_3  and  C_4
REMARK    3  A    between atoms: C_4  and  C_5
REMARK    4  A    between atoms: C_8  and  C_9
REMARK    5  A    between atoms: C_9  and  N_10
REMARK                            x       y       z     vdW  Elec       q    Type
REMARK                         _______ _______ _______ _____ _____    ______ ____
ROOT
ATOM      1  C   UNL     1      47.505   5.347  15.102  0.00  0.00    +0.000 C 
ENDROOT
BRANCH   1   2
ATOM      2  C   UNL     1      46.592   4.903  13.986  0.00  0.00    +0.000 A 
ATOM      3  C   UNL     1      46.545   3.557  13.596  0.00  0.00    +0.000 A 
ATOM      4  C   UNL     1      45.722   3.145  12.540  0.00  0.00    +0.000 A 
ATOM      5  C   UNL     1      44.942   4.074  11.836  0.00  0.00    +0.000 A 
ATOM      6  C   UNL     1      44.988   5.418  12.229  0.00  0.00    +0.000 A 
ATOM      7  C   UNL     1      45.811   5.831  13.283  0.00  0.00    +0.000 A 
BRANCH   5   8
ATOM      8  C   UNL     1      44.096   3.644  10.663  0.00  0.00    +0.000 C 
BRANCH   8   9
ATOM      9  N   UNL     1      44.841   2.881   9.686  0.00  0.00    +0.000 N 
ATOM     10  C   UNL     1      45.388   3.539   8.613  0.00  0.00    +0.000 C 
ATOM     11  O   UNL     1      45.202   4.736   8.413  0.00  0.00    +0.000 OA
ATOM     12  N   UNL     1      46.154   2.767   7.775  0.00  0.00    +0.000 N 
ATOM     13  C   UNL     1      46.349   1.330   7.792  0.00  0.00    +0.000 C 
ATOM     14  C   UNL     1      47.622   1.139   6.986  0.00  0.00    +0.000 C 
ATOM     15  C   UNL     1      47.526   2.217   5.913  0.00  0.00    +0.000 C 
ATOM     16  C   UNL     1      46.748   3.349   6.580  0.00  0.00    +0.000 C 
ATOM     17  H   UNL     1      45.376   2.111  10.047  0.00  0.00    +0.000 HD
ENDBRANCH   8   9
ENDBRANCH   5   8
ENDBRANCH   1   2
BRANCH   1  20
ATOM     18  O   UNL     1      50.052   6.350  15.652  0.00  0.00    +0.000 OA
ATOM     19  C   UNL     1      49.215   7.107  15.162  0.00  0.00    +0.000 C 
ATOM     20  N   UNL     1      47.924   6.713  14.921  0.00  0.00    +0.000 N 
ATOM     21  H   UNL     1      47.336   7.289  14.329  0.00  0.00    +0.000 HD
BRANCH  19  22
ATOM     22  C   UNL     1      49.536   8.506  14.851  0.00  0.00    +0.000 A 
ATOM     23  C   UNL     1      50.065   9.335  15.829  0.00  0.00    +0.000 A 
ATOM     24  S   UNL     1      50.329  10.936  15.298  0.00  0.00    +0.000 S 
ATOM     25  C   UNL     1      49.795  10.562  13.726  0.00  0.00    +0.000 A 
ATOM     26  N   UNL     1      49.783  11.505  12.746  0.00  0.00    +0.000 NA
ATOM     27  C   UNL     1      49.384  11.073  11.596  0.00  0.00    +0.000 A 
ATOM     28  N   UNL     1      48.998   9.784  11.338  0.00  0.00    +0.000 N 
ATOM     29  C   UNL     1      48.966   8.806  12.300  0.00  0.00    +0.000 A 
ATOM     30  O   UNL     1      48.569   7.673  12.045  0.00  0.00    +0.000 OA
ATOM     31  C   UNL     1      49.409   9.237  13.612  0.00  0.00    +0.000 A 
ATOM     32  H   UNL     1      48.686   9.510  10.417  0.00  0.00    +0.000 HD
ENDBRANCH  19  22
ENDBRANCH   1  20
TORSDOF 5
ENDMDL
MODEL 5
REMARK VINA RESULT:    -7.341      2.519      3.406
REMARK INTER + INTRA:         -10.156
REMARK INTER:                  -9.201
REMARK INTRA:                  -0.955
REMARK UNBOUND:                -0.670
REMARK  Name = 
REMARK  5 active torsions:
REMARK  status: ('A' for Active; 'I' for Inactive)
REMARK    1  A    between atoms: C_2  and  C_20
REMARK    2  A    between atoms: N_3  and  C_4
REMARK    3  A    between atoms: C_4  and  C_5
REMARK    4  A    between atoms: C_8  and  C_9
REMARK    5  A    between atoms: C_9  and  N_10
REMARK                            x       y       z     vdW  Elec       q    Type
REMARK                         _______ _______ _______ _____ _____    ______ ____
ROOT
ATOM      1  C   UNL     1      47.882   4.950  15.506  0.00  0.00    +0.000 C 
ENDROOT
BRANCH   1   2
ATOM      2  C   UNL     1      47.020   4.730  14.288  0.00  0.00    +0.000 A 
ATOM      3  C   UNL     1      46.407   5.815  13.644  0.00  0.00    +0.000 A 
ATOM      4  C   UNL     1      45.581   5.613  12.530  0.00  0.00    +0.000 A 
ATOM      5  C   UNL     1      45.332   4.321  12.049  0.00  0.00    +0.000 A 
ATOM      6  C   UNL     1      45.948   3.238  12.692  0.00  0.00    +0.000 A 
ATOM      7  C   UNL     1      46.772   3.439  13.805  0.00  0.00    +0.000 A 
BRANCH   5   8
ATOM      8  C   UNL     1      44.399   4.094  10.885  0.00  0.00    +0.000 C 
BRANCH   8   9
ATOM      9  N   UNL     1      44.964   3.225   9.877  0.00  0.00    +0.000 N 
ATOM     10  C   UNL     1      45.531   3.790   8.762  0.00  0.00    +0.000 C 
ATOM     11  O   UNL     1      45.506   5.000   8.554  0.00  0.00    +0.000 OA
ATOM     12  N   UNL     1      46.124   2.909   7.890  0.00  0.00    +0.000 N 
ATOM     13  C   UNL     1      46.112   1.460   7.919  0.00  0.00    +0.000 C 
ATOM     14  C   UNL     1      47.291   1.081   7.039  0.00  0.00    +0.000 C 
ATOM     15  C   UNL     1      47.283   2.155   5.957  0.00  0.00    +0.000 C 
ATOM     16  C   UNL     1      46.719   3.392   6.652  0.00  0.00    +0.000 C 
ATOM     17  H   UNL     1      45.405   2.388  10.216  0.00  0.00    +0.000 HD
ENDBRANCH   8   9
ENDBRANCH   5   8
ENDBRANCH   1   2
BRANCH   1  20
ATOM     18  O   UNL     1      50.187   6.474  15.908  0.00  0.00    +0.000 OA
ATOM     19  C   UNL     1      49.093   7.029  15.998  0.00  0.00    +0.000 C 
ATOM     20  N   UNL     1      47.912   6.341  15.880  0.00  0.00    +0.000 N 
ATOM     21  H   UNL     1      47.052   6.861  15.748  0.00  0.00    +0.000 HD
BRANCH  19  22
ATOM     22  C   UNL     1      48.983   8.462  16.295  0.00  0.00    +0.000 A 
ATOM     23  C   UNL     1      49.493   9.400  15.410  0.00  0.00    +0.000 A 
ATOM     24  S   UNL     1      49.314  11.012  15.943  0.00  0.00    +0.000 S 
ATOM     25  C   UNL     1      48.498  10.514  17.351  0.00  0.00    +0.000 A 
ATOM     26  N   UNL     1      48.044  11.422  18.257  0.00  0.00    +0.000 NA
ATOM     27  C   UNL     1      47.416  10.904  19.260  0.00  0.00    +0.000 A 
ATOM     28  N   UNL     1      47.201   9.562  19.438  0.00  0.00    +0.000 N 
ATOM     29  C   UNL     1      47.666   8.609  18.568  0.00  0.00    +0.000 A 
ATOM     30  O   UNL     1      47.497   7.413  18.784  0.00  0.00    +0.000 OA
ATOM     31  C   UNL     1      48.377   9.136  17.419  0.00  0.00    +0.000 A 
ATOM     32  H   UNL     1      46.710   9.220  20.252  0.00  0.00    +0.000 HD
ENDBRANCH  19  22
ENDBRANCH   1  20
TORSDOF 5
ENDMDL
MODEL 6
REMARK VINA RESULT:    -7.155      3.516      8.552
REMARK INTER + INTRA:          -9.916
REMARK INTER:                  -8.961
REMARK INTRA:                  -0.955
REMARK UNBOUND:                -0.670
REMARK  Name = 
REMARK  5 active torsions:
REMARK  status: ('A' for Active; 'I' for Inactive)
REMARK    1  A    between atoms: C_2  and  C_20
REMARK    2  A    between atoms: N_3  and  C_4
REMARK    3  A    between atoms: C_4  and  C_5
REMARK    4  A    between atoms: C_8  and  C_9
REMARK    5  A    between atoms: C_9  and  N_10
REMARK                            x       y       z     vdW  Elec       q    Type
REMARK                         _______ _______ _______ _____ _____    ______ ____
ROOT
ATOM      1  C   UNL     1      48.404   7.235  13.153  0.00  0.00    +0.000 C 
ENDROOT
BRANCH   1   2
ATOM      2  C   UNL     1      48.772   6.724  14.524  0.00  0.00    +0.000 A 
ATOM      3  C   UNL     1      49.974   7.114  15.131  0.00  0.00    +0.000 A 
ATOM      4  C   UNL     1      50.335   6.620  16.391  0.00  0.00    +0.000 A 
ATOM      5  C   UNL     1      49.511   5.707  17.064  0.00  0.00    +0.000 A 
ATOM      6  C   UNL     1      48.308   5.320  16.458  0.00  0.00    +0.000 A 
ATOM      7  C   UNL     1      47.948   5.813  15.198  0.00  0.00    +0.000 A 
BRANCH   5   8
ATOM      8  C   UNL     1      49.921   5.129  18.396  0.00  0.00    +0.000 C 
BRANCH   8   9
ATOM      9  N   UNL     1      51.122   4.329  18.312  0.00  0.00    +0.000 N 
ATOM     10  C   UNL     1      51.014   3.013  17.934  0.00  0.00    +0.000 C 
ATOM     11  O   UNL     1      49.929   2.473  17.742  0.00  0.00    +0.000 OA
ATOM     12  N   UNL     1      52.203   2.340  17.793  0.00  0.00    +0.000 N 
ATOM     13  C   UNL     1      53.543   2.789  18.119  0.00  0.00    +0.000 C 
ATOM     14  C   UNL     1      54.431   1.854  17.315  0.00  0.00    +0.000 C 
ATOM     15  C   UNL     1      53.680   0.529  17.358  0.00  0.00    +0.000 C 
ATOM     16  C   UNL     1      52.208   0.929  17.439  0.00  0.00    +0.000 C 
ATOM     17  H   UNL     1      51.948   4.808  17.997  0.00  0.00    +0.000 HD
ENDBRANCH   8   9
ENDBRANCH   5   8
ENDBRANCH   1   2
BRANCH   1  20
ATOM     18  O   UNL     1      46.064   7.825  11.749  0.00  0.00    +0.000 OA
ATOM     19  C   UNL     1      46.486   6.670  11.729  0.00  0.00    +0.000 C 
ATOM     20  N   UNL     1      47.590   6.281  12.443  0.00  0.00    +0.000 N 
ATOM     21  H   UNL     1      48.024   5.389  12.232  0.00  0.00    +0.000 HD
BRANCH  19  22
ATOM     22  C   UNL     1      45.796   5.615  10.975  0.00  0.00    +0.000 A 
ATOM     23  C   UNL     1      45.889   5.570   9.592  0.00  0.00    +0.000 A 
ATOM     24  S   UNL     1      44.985   4.305   8.888  0.00  0.00    +0.000 S 
ATOM     25  C   UNL     1      44.482   3.740  10.412  0.00  0.00    +0.000 A 
ATOM     26  N   UNL     1      43.682   2.646  10.526  0.00  0.00    +0.000 NA
ATOM     27  C   UNL     1      43.405   2.313  11.743  0.00  0.00    +0.000 A 
ATOM     28  N   UNL     1      43.858   2.974  12.855  0.00  0.00    +0.000 N 
ATOM     29  C   UNL     1      44.642   4.098  12.789  0.00  0.00    +0.000 A 
ATOM     30  O   UNL     1      44.989   4.693  13.804  0.00  0.00    +0.000 OA
ATOM     31  C   UNL     1      44.986   4.515  11.443  0.00  0.00    +0.000 A 
ATOM     32  H   UNL     1      43.597   2.668  13.782  0.00  0.00    +0.000 HD
ENDBRANCH  19  22
ENDBRANCH   1  20
TORSDOF 5
ENDMDL
MODEL 7
REMARK VINA RESULT:    -7.113      4.646      7.803
REMARK INTER + INTRA:          -9.862
REMARK INTER:                  -8.998
REMARK INTRA:                  -0.864
REMARK UNBOUND:                -0.670
REMARK  Name = 
REMARK  5 active torsions:
REMARK  status: ('A' for Active; 'I' for Inactive)
REMARK    1  A    between atoms: C_2  and  C_20
REMARK    2  A    between atoms: N_3  and  C_4
REMARK    3  A    between atoms: C_4  and  C_5
REMARK    4  A    between atoms: C_8  and  C_9
REMARK    5  A    between atoms: C_9  and  N_10
REMARK                            x       y       z     vdW  Elec       q    Type
REMARK                         _______ _______ _______ _____ _____    ______ ____
ROOT
ATOM      1  C   UNL     1      46.182   8.145  12.876  0.00  0.00    +0.000 C 
ENDROOT
BRANCH   1   2
ATOM      2  C   UNL     1      47.583   8.398  12.379  0.00  0.00    +0.000 A 
ATOM      3  C   UNL     1      48.549   7.382  12.420  0.00  0.00    +0.000 A 
ATOM      4  C   UNL     1      49.859   7.620  11.987  0.00  0.00    +0.000 A 
ATOM      5  C   UNL     1      50.240   8.887  11.524  0.00  0.00    +0.000 A 
ATOM      6  C   UNL     1      49.274   9.902  11.481  0.00  0.00    +0.000 A 
ATOM      7  C   UNL     1      47.964   9.664  11.914  0.00  0.00    +0.000 A 
BRANCH   5   8
ATOM      8  C   UNL     1      51.664   9.164  11.109  0.00  0.00    +0.000 C 
BRANCH   8   9
ATOM      9  N   UNL     1      52.092   8.347   9.995  0.00  0.00    +0.000 N 
ATOM     10  C   UNL     1      53.054   7.392  10.209  0.00  0.00    +0.000 C 
ATOM     11  O   UNL     1      53.620   7.261  11.291  0.00  0.00    +0.000 OA
ATOM     12  N   UNL     1      53.347   6.596   9.128  0.00  0.00    +0.000 N 
ATOM     13  C   UNL     1      52.879   6.717   7.761  0.00  0.00    +0.000 C 
ATOM     14  C   UNL     1      53.129   5.335   7.181  0.00  0.00    +0.000 C 
ATOM     15  C   UNL     1      54.421   4.896   7.861  0.00  0.00    +0.000 C 
ATOM     16  C   UNL     1      54.384   5.579   9.226  0.00  0.00    +0.000 C 
ATOM     17  H   UNL     1      51.379   8.108   9.328  0.00  0.00    +0.000 HD
ENDBRANCH   8   9
ENDBRANCH   5   8
ENDBRANCH   1   2
BRANCH   1  20
ATOM     18  O   UNL     1      44.022   7.488  11.234  0.00  0.00    +0.000 OA
ATOM     19  C   UNL     1      44.710   6.577  11.691  0.00  0.00    +0.000 C 
ATOM     20  N   UNL     1      45.748   6.809  12.557  0.00  0.00    +0.000 N 
ATOM     21  H   UNL     1      46.414   6.066  12.737  0.00  0.00    +0.000 HD
BRANCH  19  22
ATOM     22  C   UNL     1      44.427   5.171  11.378  0.00  0.00    +0.000 A 
ATOM     23  C   UNL     1      43.622   4.417  12.218  0.00  0.00    +0.000 A 
ATOM     24  S   UNL     1      43.444   2.794  11.719  0.00  0.00    +0.000 S 
ATOM     25  C   UNL     1      44.393   3.059  10.332  0.00  0.00    +0.000 A 
ATOM     26  N   UNL     1      44.628   2.058   9.441  0.00  0.00    +0.000 NA
ATOM     27  C   UNL     1      45.337   2.409   8.420  0.00  0.00    +0.000 A 
ATOM     28  N   UNL     1      45.830   3.670   8.209  0.00  0.00    +0.000 N 
ATOM     29  C   UNL     1      45.644   4.703   9.093  0.00  0.00    +0.000 A 
ATOM     30  O   UNL     1      46.142   5.808   8.896  0.00  0.00    +0.000 OA
ATOM     31  C   UNL     1      44.850   4.364  10.258  0.00  0.00    +0.000 A 
ATOM     32  H   UNL     1      46.388   3.879   7.393  0.00  0.00    +0.000 HD
ENDBRANCH  19  22
ENDBRANCH   1  20
TORSDOF 5
ENDMDL
MODEL 8
REMARK VINA RESULT:    -7.094      4.761      9.273
REMARK INTER + INTRA:          -9.837
REMARK INTER:                  -8.848
REMARK INTRA:                  -0.989
REMARK UNBOUND:                -0.670
REMARK  Name = 
REMARK  5 active torsions:
REMARK  status: ('A' for Active; 'I' for Inactive)
REMARK    1  A    between atoms: C_2  and  C_20
REMARK    2  A    between atoms: N_3  and  C_4
REMARK    3  A    between atoms: C_4  and  C_5
REMARK    4  A    between atoms: C_8  and  C_9
REMARK    5  A    between atoms: C_9  and  N_10
REMARK                            x       y       z     vdW  Elec       q    Type
REMARK                         _______ _______ _______ _____ _____    ______ ____
ROOT
ATOM      1  C   UNL     1      47.448   3.325  17.001  0.00  0.00    +0.000 C 
ENDROOT
BRANCH   1   2
ATOM      2  C   UNL     1      48.938   3.246  17.224  0.00  0.00    +0.000 A 
ATOM      3  C   UNL     1      49.628   2.045  17.007  0.00  0.00    +0.000 A 
ATOM      4  C   UNL     1      51.006   1.958  17.241  0.00  0.00    +0.000 A 
ATOM      5  C   UNL     1      51.722   3.065  17.720  0.00  0.00    +0.000 A 
ATOM      6  C   UNL     1      51.031   4.265  17.934  0.00  0.00    +0.000 A 
ATOM      7  C   UNL     1      49.653   4.352  17.701  0.00  0.00    +0.000 A 
BRANCH   5   8
ATOM      8  C   UNL     1      53.195   2.960  18.027  0.00  0.00    +0.000 C 
BRANCH   8   9
ATOM      9  N   UNL     1      53.809   1.792  17.435  0.00  0.00    +0.000 N 
ATOM     10  C   UNL     1      54.291   0.809  18.263  0.00  0.00    +0.000 C 
ATOM     11  O   UNL     1      54.291   0.923  19.486  0.00  0.00    +0.000 OA
ATOM     12  N   UNL     1      54.780  -0.308  17.631  0.00  0.00    +0.000 N 
ATOM     13  C   UNL     1      54.981  -0.531  16.212  0.00  0.00    +0.000 C 
ATOM     14  C   UNL     1      55.063  -2.044  16.103  0.00  0.00    +0.000 C 
ATOM     15  C   UNL     1      55.775  -2.453  17.388  0.00  0.00    +0.000 C 
ATOM     16  C   UNL     1      55.357  -1.395  18.407  0.00  0.00    +0.000 C 
ATOM     17  H   UNL     1      53.407   1.477  16.569  0.00  0.00    +0.000 HD
ENDBRANCH   8   9
ENDBRANCH   5   8
ENDBRANCH   1   2
BRANCH   1  20
ATOM     18  O   UNL     1      47.463   2.908  14.240  0.00  0.00    +0.000 OA
ATOM     19  C   UNL     1      47.098   4.002  14.667  0.00  0.00    +0.000 C 
ATOM     20  N   UNL     1      47.122   4.312  16.003  0.00  0.00    +0.000 N 
ATOM     21  H   UNL     1      46.620   5.131  16.327  0.00  0.00    +0.000 HD
BRANCH  19  22
ATOM     22  C   UNL     1      46.661   5.072  13.761  0.00  0.00    +0.000 A 
ATOM     23  C   UNL     1      45.479   4.944  13.048  0.00  0.00    +0.000 A 
ATOM     24  S   UNL     1      45.159   6.263  12.012  0.00  0.00    +0.000 S 
ATOM     25  C   UNL     1      46.564   7.076  12.523  0.00  0.00    +0.000 A 
ATOM     26  N   UNL     1      46.885   8.301  12.027  0.00  0.00    +0.000 NA
ATOM     27  C   UNL     1      47.960   8.813  12.527  0.00  0.00    +0.000 A 
ATOM     28  N   UNL     1      48.742   8.211  13.478  0.00  0.00    +0.000 N 
ATOM     29  C   UNL     1      48.474   6.965  13.986  0.00  0.00    +0.000 A 
ATOM     30  O   UNL     1      49.223   6.435  14.802  0.00  0.00    +0.000 OA
ATOM     31  C   UNL     1      47.273   6.345  13.460  0.00  0.00    +0.000 A 
ATOM     32  H   UNL     1      49.578   8.661  13.822  0.00  0.00    +0.000 HD
ENDBRANCH  19  22
ENDBRANCH   1  20
TORSDOF 5
ENDMDL
MODEL 9
REMARK VINA RESULT:    -6.982      3.875      9.694
REMARK INTER + INTRA:          -9.692
REMARK INTER:                  -8.928
REMARK INTRA:                  -0.764
REMARK UNBOUND:                -0.670
REMARK  Name = 
REMARK  5 active torsions:
REMARK  status: ('A' for Active; 'I' for Inactive)
REMARK    1  A    between atoms: C_2  and  C_20
REMARK    2  A    between atoms: N_3  and  C_4
REMARK    3  A    between atoms: C_4  and  C_5
REMARK    4  A    between atoms: C_8  and  C_9
REMARK    5  A    between atoms: C_9  and  N_10
REMARK                            x       y       z     vdW  Elec       q    Type
REMARK                         _______ _______ _______ _____ _____    ______ ____
ROOT
ATOM      1  C   UNL     1      47.178   3.399  16.836  0.00  0.00    +0.000 C 
ENDROOT
BRANCH   1   2
ATOM      2  C   UNL     1      48.651   3.417  17.161  0.00  0.00    +0.000 A 
ATOM      3  C   UNL     1      49.277   4.606  17.565  0.00  0.00    +0.000 A 
ATOM      4  C   UNL     1      50.650   4.635  17.840  0.00  0.00    +0.000 A 
ATOM      5  C   UNL     1      51.434   3.482  17.695  0.00  0.00    +0.000 A 
ATOM      6  C   UNL     1      50.806   2.294  17.294  0.00  0.00    +0.000 A 
ATOM      7  C   UNL     1      49.434   2.265  17.019  0.00  0.00    +0.000 A 
BRANCH   5   8
ATOM      8  C   UNL     1      52.922   3.522  17.935  0.00  0.00    +0.000 C 
BRANCH   8   9
ATOM      9  N   UNL     1      53.376   4.804  18.424  0.00  0.00    +0.000 N 
ATOM     10  C   UNL     1      54.267   5.522  17.666  0.00  0.00    +0.000 C 
ATOM     11  O   UNL     1      54.752   5.079  16.629  0.00  0.00    +0.000 OA
ATOM     12  N   UNL     1      54.586   6.768  18.150  0.00  0.00    +0.000 N 
ATOM     13  C   UNL     1      54.216   7.369  19.417  0.00  0.00    +0.000 C 
ATOM     14  C   UNL     1      54.427   8.854  19.175  0.00  0.00    +0.000 C 
ATOM     15  C   UNL     1      55.644   8.893  18.257  0.00  0.00    +0.000 C 
ATOM     16  C   UNL     1      55.555   7.599  17.452  0.00  0.00    +0.000 C 
ATOM     17  H   UNL     1      52.697   5.346  18.931  0.00  0.00    +0.000 HD
ENDBRANCH   8   9
ENDBRANCH   5   8
ENDBRANCH   1   2
BRANCH   1  20
ATOM     18  O   UNL     1      47.269   3.057  14.066  0.00  0.00    +0.000 OA
ATOM     19  C   UNL     1      46.863   4.129  14.513  0.00  0.00    +0.000 C 
ATOM     20  N   UNL     1      46.848   4.403  15.857  0.00  0.00    +0.000 N 
ATOM     21  H   UNL     1      46.315   5.198  16.191  0.00  0.00    +0.000 HD
BRANCH  19  22
ATOM     22  C   UNL     1      46.418   5.210  13.625  0.00  0.00    +0.000 A 
ATOM     23  C   UNL     1      47.254   6.283  13.356  0.00  0.00    +0.000 A 
ATOM     24  S   UNL     1      46.549   7.462  12.344  0.00  0.00    +0.000 S 
ATOM     25  C   UNL     1      45.120   6.552  12.185  0.00  0.00    +0.000 A 
ATOM     26  N   UNL     1      44.088   6.995  11.418  0.00  0.00    +0.000 NA
ATOM     27  C   UNL     1      43.081   6.188  11.363  0.00  0.00    +0.000 A 
ATOM     28  N   UNL     1      43.014   4.978  12.004  0.00  0.00    +0.000 N 
ATOM     29  C   UNL     1      44.017   4.504  12.812  0.00  0.00    +0.000 A 
ATOM     30  O   UNL     1      43.904   3.438  13.409  0.00  0.00    +0.000 OA
ATOM     31  C   UNL     1      45.176   5.371  12.906  0.00  0.00    +0.000 A 
ATOM     32  H   UNL     1      42.192   4.396  11.929  0.00  0.00    +0.000 HD
ENDBRANCH  19  22
ENDBRANCH   1  20
TORSDOF 5
ENDMDL
