MODEL 1
REMARK VINA RESULT:    -7.738      0.000      0.000
REMARK INTER + INTRA:         -11.514
REMARK INTER:                 -10.453
REMARK INTRA:                  -1.061
REMARK UNBOUND:                -1.061
REMARK  Name = 
REMARK  7 active torsions:
REMARK  status: ('A' for Active; 'I' for Inactive)
REMARK    1  A    between atoms: C_1  and  C_2
REMARK    2  A    between atoms: C_2  and  N_3
REMARK    3  A    between atoms: C_2  and  C_18
REMARK    4  A    between atoms: N_3  and  C_4
REMARK    5  A    between atoms: C_7  and  C_8
REMARK    6  A    between atoms: C_8  and  O_9
REMARK    7  A    between atoms: O_9  and  C_10
REMARK                            x       y       z     vdW  Elec       q    Type
REMARK                         _______ _______ _______ _____ _____    ______ ____
ROOT
ATOM      1  N   UNL     1      46.411   5.879  14.011  0.00  0.00    +0.000 N 
ATOM      2  H   UNL     1      46.611   6.871  13.873  0.00  0.00    +0.000 HD
ENDROOT
BRANCH   1   3
ATOM      3  C   UNL     1      45.824   5.414  12.829  0.00  0.00    +0.000 A 
ATOM      4  C   UNL     1      46.007   6.169  11.662  0.00  0.00    +0.000 A 
ATOM      5  C   UNL     1      45.523   5.732  10.423  0.00  0.00    +0.000 A 
ATOM      6  C   UNL     1      44.880   4.496  10.316  0.00  0.00    +0.000 A 
ATOM      7  C   UNL     1      44.744   3.710  11.467  0.00  0.00    +0.000 A 
ATOM      8  C   UNL     1      45.213   4.166  12.706  0.00  0.00    +0.000 A 
BRANCH   6   9
ATOM      9  C   UNL     1      44.373   4.005   8.985  0.00  0.00    +0.000 C 
BRANCH   9  10
ATOM     10  O   UNL     1      45.356   4.252   7.982  0.00  0.00    +0.000 OA
BRANCH  10  11
ATOM     11  C   UNL     1      46.116   3.178   7.598  0.00  0.00    +0.000 A 
ATOM     12  C   UNL     1      46.058   1.908   8.165  0.00  0.00    +0.000 A 
ATOM     13  C   UNL     1      46.898   0.925   7.660  0.00  0.00    +0.000 A 
ATOM     14  N   UNL     1      47.769   1.126   6.653  0.00  0.00    +0.000 NA
ATOM     15  C   UNL     1      47.805   2.365   6.118  0.00  0.00    +0.000 A 
ATOM     16  C   UNL     1      47.006   3.413   6.556  0.00  0.00    +0.000 A 
ENDBRANCH  10  11
ENDBRANCH   9  10
ENDBRANCH   6   9
ENDBRANCH   1   3
BRANCH   1  18
ATOM     17  C   UNL     1      47.186   4.185  15.649  0.00  0.00    +0.000 C 
ATOM     18  C   UNL     1      47.605   5.234  14.604  0.00  0.00    +0.000 C 
BRANCH  18  19
ATOM     19  C   UNL     1      48.514   6.243  15.296  0.00  0.00    +0.000 A 
ATOM     20  C   UNL     1      48.654   6.328  16.672  0.00  0.00    +0.000 A 
ATOM     21  S   UNL     1      49.804   7.485  17.163  0.00  0.00    +0.000 S 
ATOM     22  C   UNL     1      50.159   7.904  15.550  0.00  0.00    +0.000 A 
ATOM     23  N   UNL     1      51.102   8.837  15.256  0.00  0.00    +0.000 NA
ATOM     24  C   UNL     1      51.279   9.033  13.991  0.00  0.00    +0.000 A 
ATOM     25  N   UNL     1      50.591   8.388  12.993  0.00  0.00    +0.000 N 
ATOM     26  C   UNL     1      49.629   7.433  13.239  0.00  0.00    +0.000 A 
ATOM     27  O   UNL     1      49.038   6.861  12.331  0.00  0.00    +0.000 OA
ATOM     28  C   UNL     1      49.399   7.179  14.650  0.00  0.00    +0.000 A 
ATOM     29  H   UNL     1      50.782   8.592  12.023  0.00  0.00    +0.000 HD
ENDBRANCH  18  19
ENDBRANCH   1  18
TORSDOF 6
ENDMDL
MODEL 2
REMARK VINA RESULT:    -7.694      1.766      2.600
REMARK INTER + INTRA:         -11.455
REMARK INTER:                 -10.536
REMARK INTRA:                  -0.919
REMARK UNBOUND:                -1.061
REMARK  Name = 
REMARK  7 active torsions:
REMARK  status: ('A' for Active; 'I' for Inactive)
REMARK    1  A    between atoms: C_1  and  C_2
REMARK    2  A    between atoms: C_2  and  N_3
REMARK    3  A    between atoms: C_2  and  C_18
REMARK    4  A    between atoms: N_3  and  C_4
REMARK    5  A    between atoms: C_7  and  C_8
REMARK    6  A    between atoms: C_8  and  O_9
REMARK    7  A    between atoms: O_9  and  C_10
REMARK                            x       y       z     vdW  Elec       q    Type
REMARK                         _______ _______ _______ _____ _____    ______ ____
ROOT
ATOM      1  N   UNL     1      46.710   6.635  13.717  0.00  0.00    +0.000 N 
ATOM      2  H   UNL     1      45.936   7.206  14.062  0.00  0.00    +0.000 HD
ENDROOT
BRANCH   1   3
ATOM      3  C   UNL     1      46.193   5.813  12.711  0.00  0.00    +0.000 A 
ATOM      4  C   UNL     1      45.882   4.486  13.039  0.00  0.00    +0.000 A 
ATOM      5  C   UNL     1      45.285   3.622  12.113  0.00  0.00    +0.000 A 
ATOM      6  C   UNL     1      44.939   4.087  10.841  0.00  0.00    +0.000 A 
ATOM      7  C   UNL     1      45.193   5.426  10.525  0.00  0.00    +0.000 A 
ATOM      8  C   UNL     1      45.810   6.277  11.451  0.00  0.00    +0.000 A 
BRANCH   6   9
ATOM      9  C   UNL     1      44.276   3.173   9.842  0.00  0.00    +0.000 C 
BRANCH   9  10
ATOM     10  O   UNL     1      44.718   3.505   8.528  0.00  0.00    +0.000 OA
BRANCH  10  11
ATOM     11  C   UNL     1      45.737   2.742   8.019  0.00  0.00    +0.000 A 
ATOM     12  C   UNL     1      45.903   1.376   8.233  0.00  0.00    +0.000 A 
ATOM     13  C   UNL     1      46.992   0.748   7.643  0.00  0.00    +0.000 A 
ATOM     14  N   UNL     1      47.901   1.381   6.877  0.00  0.00    +0.000 NA
ATOM     15  C   UNL     1      47.716   2.704   6.682  0.00  0.00    +0.000 A 
ATOM     16  C   UNL     1      46.660   3.420   7.231  0.00  0.00    +0.000 A 
ENDBRANCH  10  11
ENDBRANCH   9  10
ENDBRANCH   6   9
ENDBRANCH   1   3
BRANCH   1  18
ATOM     17  C   UNL     1      49.022   6.730  12.822  0.00  0.00    +0.000 C 
ATOM     18  C   UNL     1      47.881   7.514  13.492  0.00  0.00    +0.000 C 
BRANCH  18  19
ATOM     19  C   UNL     1      48.418   8.093  14.796  0.00  0.00    +0.000 A 
ATOM     20  C   UNL     1      48.620   9.448  15.004  0.00  0.00    +0.000 A 
ATOM     21  S   UNL     1      49.142   9.817  16.584  0.00  0.00    +0.000 S 
ATOM     22  C   UNL     1      49.105   8.177  17.044  0.00  0.00    +0.000 A 
ATOM     23  N   UNL     1      49.419   7.794  18.308  0.00  0.00    +0.000 NA
ATOM     24  C   UNL     1      49.325   6.522  18.517  0.00  0.00    +0.000 A 
ATOM     25  N   UNL     1      48.953   5.598  17.572  0.00  0.00    +0.000 N 
ATOM     26  C   UNL     1      48.622   5.936  16.278  0.00  0.00    +0.000 A 
ATOM     27  O   UNL     1      48.280   5.094  15.456  0.00  0.00    +0.000 OA
ATOM     28  C   UNL     1      48.713   7.359  16.000  0.00  0.00    +0.000 A 
ATOM     29  H   UNL     1      48.900   4.617  17.806  0.00  0.00    +0.000 HD
ENDBRANCH  18  19
ENDBRANCH   1  18
TORSDOF 6
ENDMDL
MODEL 3
REMARK VINA RESULT:    -7.630      3.302      4.078
REMARK INTER + INTRA:         -11.368
REMARK INTER:                 -10.447
REMARK INTRA:                  -0.921
REMARK UNBOUND:                -1.061
REMARK  Name = 
REMARK  7 active torsions:
REMARK  status: ('A' for Active; 'I' for Inactive)
REMARK    1  A    between atoms: C_1  and  C_2
REMARK    2  A    between atoms: C_2  and  N_3
REMARK    3  A    between atoms: C_2  and  C_18
REMARK    4  A    between atoms: N_3  and  C_4
REMARK    5  A    between atoms: C_7  and  C_8
REMARK    6  A    between atoms: C_8  and  O_9
REMARK    7  A    between atoms: O_9  and  C_10
REMARK                            x       y       z     vdW  Elec       q    Type
REMARK                         _______ _______ _______ _____ _____    ______ ____
ROOT
ATOM      1  N   UNL     1      48.157   5.804  15.768  0.00  0.00    +0.000 N 
ATOM      2  H   UNL     1      49.105   6.106  15.533  0.00  0.00    +0.000 HD
ENDROOT
BRANCH   1   3
ATOM      3  C   UNL     1      47.424   5.801  14.577  0.00  0.00    +0.000 A 
ATOM      4  C   UNL     1      47.617   6.863  13.682  0.00  0.00    +0.000 A 
ATOM      5  C   UNL     1      46.984   6.894  12.433  0.00  0.00    +0.000 A 
ATOM      6  C   UNL     1      46.174   5.829  12.030  0.00  0.00    +0.000 A 
ATOM      7  C   UNL     1      46.022   4.738  12.894  0.00  0.00    +0.000 A 
ATOM      8  C   UNL     1      46.643   4.727  14.150  0.00  0.00    +0.000 A 
BRANCH   6   9
ATOM      9  C   UNL     1      45.504   5.840  10.680  0.00  0.00    +0.000 C 
BRANCH   9  10
ATOM     10  O   UNL     1      44.796   4.617  10.491  0.00  0.00    +0.000 OA
BRANCH  10  11
ATOM     11  C   UNL     1      45.274   3.784   9.512  0.00  0.00    +0.000 A 
ATOM     12  C   UNL     1      45.196   2.395   9.529  0.00  0.00    +0.000 A 
ATOM     13  C   UNL     1      45.730   1.695   8.456  0.00  0.00    +0.000 A 
ATOM     14  N   UNL     1      46.321   2.279   7.397  0.00  0.00    +0.000 NA
ATOM     15  C   UNL     1      46.381   3.628   7.402  0.00  0.00    +0.000 A 
ATOM     16  C   UNL     1      45.878   4.414   8.430  0.00  0.00    +0.000 A 
ENDBRANCH  10  11
ENDBRANCH   9  10
ENDBRANCH   6   9
ENDBRANCH   1   3
BRANCH   1  18
ATOM     17  C   UNL     1      47.205   4.693  17.771  0.00  0.00    +0.000 C 
ATOM     18  C   UNL     1      48.246   4.611  16.641  0.00  0.00    +0.000 C 
BRANCH  18  19
ATOM     19  C   UNL     1      49.621   4.475  17.284  0.00  0.00    +0.000 A 
ATOM     20  C   UNL     1      50.241   5.497  17.986  0.00  0.00    +0.000 A 
ATOM     21  S   UNL     1      51.731   5.037  18.672  0.00  0.00    +0.000 S 
ATOM     22  C   UNL     1      51.591   3.453  18.062  0.00  0.00    +0.000 A 
ATOM     23  N   UNL     1      52.541   2.515  18.316  0.00  0.00    +0.000 NA
ATOM     24  C   UNL     1      52.289   1.354  17.808  0.00  0.00    +0.000 A 
ATOM     25  N   UNL     1      51.179   1.048  17.060  0.00  0.00    +0.000 N 
ATOM     26  C   UNL     1      50.187   1.963  16.777  0.00  0.00    +0.000 A 
ATOM     27  O   UNL     1      49.198   1.662  16.119  0.00  0.00    +0.000 OA
ATOM     28  C   UNL     1      50.429   3.283  17.332  0.00  0.00    +0.000 A 
ATOM     29  H   UNL     1      51.046   0.117  16.693  0.00  0.00    +0.000 HD
ENDBRANCH  18  19
ENDBRANCH   1  18
TORSDOF 6
ENDMDL
MODEL 4
REMARK VINA RESULT:    -7.470      2.375      3.044
REMARK INTER + INTRA:         -11.152
REMARK INTER:                 -10.056
REMARK INTRA:                  -1.097
REMARK UNBOUND:                -1.061
REMARK  Name = 
REMARK  7 active torsions:
REMARK  status: ('A' for Active; 'I' for Inactive)
REMARK    1  A    between atoms: C_1  and  C_2
REMARK    2  A    between atoms: C_2  and  N_3
REMARK    3  A    between atoms: C_2  and  C_18
REMARK    4  A    between atoms: N_3  and  C_4
REMARK    5  A    between atoms: C_7  and  C_8
REMARK    6  A    between atoms: C_8  and  O_9
REMARK    7  A    between atoms: O_9  and  C_10
REMARK                            x       y       z     vdW  Elec       q    Type
REMARK                         _______ _______ _______ _____ _____    ______ ____
ROOT
ATOM      1  N   UNL     1      46.467   6.735  13.456  0.00  0.00    +0.000 N 
ATOM      2  H   UNL     1      45.755   7.465  13.523  0.00  0.00    +0.000 HD
ENDROOT
BRANCH   1   3
ATOM      3  C   UNL     1      46.010   5.806  12.516  0.00  0.00    +0.000 A 
ATOM      4  C   UNL     1      45.811   4.484  12.939  0.00  0.00    +0.000 A 
ATOM      5  C   UNL     1      45.278   3.513  12.082  0.00  0.00    +0.000 A 
ATOM      6  C   UNL     1      44.887   3.858  10.786  0.00  0.00    +0.000 A 
ATOM      7  C   UNL     1      45.030   5.188  10.375  0.00  0.00    +0.000 A 
ATOM      8  C   UNL     1      45.583   6.148  11.232  0.00  0.00    +0.000 A 
BRANCH   6   9
ATOM      9  C   UNL     1      44.293   2.827   9.861  0.00  0.00    +0.000 C 
BRANCH   9  10
ATOM     10  O   UNL     1      44.621   3.153   8.513  0.00  0.00    +0.000 OA
BRANCH  10  11
ATOM     11  C   UNL     1      45.724   2.528   7.988  0.00  0.00    +0.000 A 
ATOM     12  C   UNL     1      46.032   1.180   8.140  0.00  0.00    +0.000 A 
ATOM     13  C   UNL     1      47.190   0.701   7.543  0.00  0.00    +0.000 A 
ATOM     14  N   UNL     1      48.037   1.463   6.825  0.00  0.00    +0.000 NA
ATOM     15  C   UNL     1      47.713   2.767   6.690  0.00  0.00    +0.000 A 
ATOM     16  C   UNL     1      46.579   3.339   7.251  0.00  0.00    +0.000 A 
ENDBRANCH  10  11
ENDBRANCH   9  10
ENDBRANCH   6   9
ENDBRANCH   1   3
BRANCH   1  18
ATOM     17  C   UNL     1      48.369   7.673  14.743  0.00  0.00    +0.000 C 
ATOM     18  C   UNL     1      47.796   7.379  13.346  0.00  0.00    +0.000 C 
BRANCH  18  19
ATOM     19  C   UNL     1      47.729   8.698  12.584  0.00  0.00    +0.000 A 
ATOM     20  C   UNL     1      46.602   9.503  12.548  0.00  0.00    +0.000 A 
ATOM     21  S   UNL     1      46.840  10.960  11.696  0.00  0.00    +0.000 S 
ATOM     22  C   UNL     1      48.462  10.564  11.356  0.00  0.00    +0.000 A 
ATOM     23  N   UNL     1      49.264  11.417  10.666  0.00  0.00    +0.000 NA
ATOM     24  C   UNL     1      50.474  10.993  10.504  0.00  0.00    +0.000 A 
ATOM     25  N   UNL     1      50.953   9.791  10.960  0.00  0.00    +0.000 N 
ATOM     26  C   UNL     1      50.181   8.893  11.667  0.00  0.00    +0.000 A 
ATOM     27  O   UNL     1      50.634   7.831  12.077  0.00  0.00    +0.000 OA
ATOM     28  C   UNL     1      48.812   9.331  11.874  0.00  0.00    +0.000 A 
ATOM     29  H   UNL     1      51.912   9.524  10.797  0.00  0.00    +0.000 HD
ENDBRANCH  18  19
ENDBRANCH   1  18
TORSDOF 6
ENDMDL
MODEL 5
REMARK VINA RESULT:    -7.316      2.223      3.402
REMARK INTER + INTRA:         -10.944
REMARK INTER:                 -10.111
REMARK INTRA:                  -0.833
REMARK UNBOUND:                -1.061
REMARK  Name = 
REMARK  7 active torsions:
REMARK  status: ('A' for Active; 'I' for Inactive)
REMARK    1  A    between atoms: C_1  and  C_2
REMARK    2  A    between atoms: C_2  and  N_3
REMARK    3  A    between atoms: C_2  and  C_18
REMARK    4  A    between atoms: N_3  and  C_4
REMARK    5  A    between atoms: C_7  and  C_8
REMARK    6  A    between atoms: C_8  and  O_9
REMARK    7  A    between atoms: O_9  and  C_10
REMARK                            x       y       z     vdW  Elec       q    Type
REMARK                         _______ _______ _______ _____ _____    ______ ____
ROOT
ATOM      1  N   UNL     1      48.120   6.023  13.599  0.00  0.00    +0.000 N 
ATOM      2  H   UNL     1      48.624   5.162  13.820  0.00  0.00    +0.000 HD
ENDROOT
BRANCH   1   3
ATOM      3  C   UNL     1      47.004   5.657  12.839  0.00  0.00    +0.000 A 
ATOM      4  C   UNL     1      46.683   6.440  11.722  0.00  0.00    +0.000 A 
ATOM      5  C   UNL     1      45.633   6.095  10.862  0.00  0.00    +0.000 A 
ATOM      6  C   UNL     1      44.904   4.922  11.078  0.00  0.00    +0.000 A 
ATOM      7  C   UNL     1      45.256   4.105  12.159  0.00  0.00    +0.000 A 
ATOM      8  C   UNL     1      46.295   4.469  13.025  0.00  0.00    +0.000 A 
BRANCH   6   9
ATOM      9  C   UNL     1      43.786   4.528  10.148  0.00  0.00    +0.000 C 
BRANCH   9  10
ATOM     10  O   UNL     1      43.970   3.179   9.727  0.00  0.00    +0.000 OA
BRANCH  10  11
ATOM     11  C   UNL     1      44.970   2.959   8.814  0.00  0.00    +0.000 A 
ATOM     12  C   UNL     1      45.484   3.912   7.940  0.00  0.00    +0.000 A 
ATOM     13  C   UNL     1      46.499   3.528   7.075  0.00  0.00    +0.000 A 
ATOM     14  N   UNL     1      47.017   2.286   7.027  0.00  0.00    +0.000 NA
ATOM     15  C   UNL     1      46.503   1.381   7.887  0.00  0.00    +0.000 A 
ATOM     16  C   UNL     1      45.487   1.669   8.788  0.00  0.00    +0.000 A 
ENDBRANCH  10  11
ENDBRANCH   9  10
ENDBRANCH   6   9
ENDBRANCH   1   3
BRANCH   1  18
ATOM     17  C   UNL     1      48.393   8.293  14.561  0.00  0.00    +0.000 C 
ATOM     18  C   UNL     1      48.000   6.831  14.835  0.00  0.00    +0.000 C 
BRANCH  18  19
ATOM     19  C   UNL     1      48.901   6.308  15.948  0.00  0.00    +0.000 A 
ATOM     20  C   UNL     1      50.082   6.925  16.329  0.00  0.00    +0.000 A 
ATOM     21  S   UNL     1      50.837   6.173  17.659  0.00  0.00    +0.000 S 
ATOM     22  C   UNL     1      49.603   5.005  17.775  0.00  0.00    +0.000 A 
ATOM     23  N   UNL     1      49.623   4.054  18.746  0.00  0.00    +0.000 NA
ATOM     24  C   UNL     1      48.611   3.252  18.724  0.00  0.00    +0.000 A 
ATOM     25  N   UNL     1      47.585   3.307  17.814  0.00  0.00    +0.000 N 
ATOM     26  C   UNL     1      47.517   4.252  16.813  0.00  0.00    +0.000 A 
ATOM     27  O   UNL     1      46.583   4.290  16.021  0.00  0.00    +0.000 OA
ATOM     28  C   UNL     1      48.635   5.179  16.802  0.00  0.00    +0.000 A 
ATOM     29  H   UNL     1      46.824   2.645  17.857  0.00  0.00    +0.000 HD
ENDBRANCH  18  19
ENDBRANCH   1  18
TORSDOF 6
ENDMDL
MODEL 6
REMARK VINA RESULT:    -6.542      4.416      8.852
REMARK INTER + INTRA:          -9.898
REMARK INTER:                  -8.903
REMARK INTRA:                  -0.995
REMARK UNBOUND:                -1.061
REMARK  Name = 
REMARK  7 active torsions:
REMARK  status: ('A' for Active; 'I' for Inactive)
REMARK    1  A    between atoms: C_1  and  C_2
REMARK    2  A    between atoms: C_2  and  N_3
REMARK    3  A    between atoms: C_2  and  C_18
REMARK    4  A    between atoms: N_3  and  C_4
REMARK    5  A    between atoms: C_7  and  C_8
REMARK    6  A    between atoms: C_8  and  O_9
REMARK    7  A    between atoms: O_9  and  C_10
REMARK                            x       y       z     vdW  Elec       q    Type
REMARK                         _______ _______ _______ _____ _____    ______ ____
ROOT
ATOM      1  N   UNL     1      47.834   6.755  14.757  0.00  0.00    +0.000 N 
ATOM      2  H   UNL     1      46.876   6.716  15.110  0.00  0.00    +0.000 HD
ENDROOT
BRANCH   1   3
ATOM      3  C   UNL     1      48.665   6.298  15.786  0.00  0.00    +0.000 A 
ATOM      4  C   UNL     1      48.334   5.086  16.409  0.00  0.00    +0.000 A 
ATOM      5  C   UNL     1      49.158   4.518  17.389  0.00  0.00    +0.000 A 
ATOM      6  C   UNL     1      50.364   5.133  17.736  0.00  0.00    +0.000 A 
ATOM      7  C   UNL     1      50.728   6.313  17.078  0.00  0.00    +0.000 A 
ATOM      8  C   UNL     1      49.888   6.884  16.113  0.00  0.00    +0.000 A 
BRANCH   6   9
ATOM      9  C   UNL     1      51.269   4.521  18.774  0.00  0.00    +0.000 C 
BRANCH   9  10
ATOM     10  O   UNL     1      52.521   4.191  18.178  0.00  0.00    +0.000 OA
BRANCH  10  11
ATOM     11  C   UNL     1      52.908   2.878  18.266  0.00  0.00    +0.000 A 
ATOM     12  C   UNL     1      54.095   2.426  18.836  0.00  0.00    +0.000 A 
ATOM     13  C   UNL     1      54.338   1.060  18.847  0.00  0.00    +0.000 A 
ATOM     14  N   UNL     1      53.495   0.142  18.336  0.00  0.00    +0.000 NA
ATOM     15  C   UNL     1      52.350   0.605  17.793  0.00  0.00    +0.000 A 
ATOM     16  C   UNL     1      52.018   1.953  17.733  0.00  0.00    +0.000 A 
ENDBRANCH  10  11
ENDBRANCH   9  10
ENDBRANCH   6   9
ENDBRANCH   1   3
BRANCH   1  18
ATOM     17  C   UNL     1      48.770   6.989  12.472  0.00  0.00    +0.000 C 
ATOM     18  C   UNL     1      47.863   6.164  13.400  0.00  0.00    +0.000 C 
BRANCH  18  19
ATOM     19  C   UNL     1      46.475   6.114  12.770  0.00  0.00    +0.000 A 
ATOM     20  C   UNL     1      45.850   7.217  12.210  0.00  0.00    +0.000 A 
ATOM     21  S   UNL     1      44.345   6.852  11.500  0.00  0.00    +0.000 S 
ATOM     22  C   UNL     1      44.485   5.204  11.909  0.00  0.00    +0.000 A 
ATOM     23  N   UNL     1      43.525   4.308  11.559  0.00  0.00    +0.000 NA
ATOM     24  C   UNL     1      43.778   3.093  11.916  0.00  0.00    +0.000 A 
ATOM     25  N   UNL     1      44.899   2.693  12.601  0.00  0.00    +0.000 N 
ATOM     26  C   UNL     1      45.901   3.561  12.976  0.00  0.00    +0.000 A 
ATOM     27  O   UNL     1      46.900   3.178  13.574  0.00  0.00    +0.000 OA
ATOM     28  C   UNL     1      45.659   4.940  12.591  0.00  0.00    +0.000 A 
ATOM     29  H   UNL     1      45.031   1.723  12.848  0.00  0.00    +0.000 HD
ENDBRANCH  18  19
ENDBRANCH   1  18
TORSDOF 6
ENDMDL
MODEL 7
REMARK VINA RESULT:    -6.512      3.879      5.426
REMARK INTER + INTRA:          -9.858
REMARK INTER:                  -9.183
REMARK INTRA:                  -0.674
REMARK UNBOUND:                -1.061
REMARK  Name = 
REMARK  7 active torsions:
REMARK  status: ('A' for Active; 'I' for Inactive)
REMARK    1  A    between atoms: C_1  and  C_2
REMARK    2  A    between atoms: C_2  and  N_3
REMARK    3  A    between atoms: C_2  and  C_18
REMARK    4  A    between atoms: N_3  and  C_4
REMARK    5  A    between atoms: C_7  and  C_8
REMARK    6  A    between atoms: C_8  and  O_9
REMARK    7  A    between atoms: O_9  and  C_10
REMARK                            x       y       z     vdW  Elec       q    Type
REMARK                         _______ _______ _______ _____ _____    ______ ____
ROOT
ATOM      1  N   UNL     1      49.357   5.970  16.381  0.00  0.00    +0.000 N 
ATOM      2  H   UNL     1      50.299   6.009  15.988  0.00  0.00    +0.000 HD
ENDROOT
BRANCH   1   3
ATOM      3  C   UNL     1      48.469   6.260  15.341  0.00  0.00    +0.000 A 
ATOM      4  C   UNL     1      48.569   7.513  14.721  0.00  0.00    +0.000 A 
ATOM      5  C   UNL     1      47.773   7.851  13.618  0.00  0.00    +0.000 A 
ATOM      6  C   UNL     1      46.885   6.916  13.080  0.00  0.00    +0.000 A 
ATOM      7  C   UNL     1      46.821   5.643  13.658  0.00  0.00    +0.000 A 
ATOM      8  C   UNL     1      47.606   5.322  14.773  0.00  0.00    +0.000 A 
BRANCH   6   9
ATOM      9  C   UNL     1      46.039   7.260  11.882  0.00  0.00    +0.000 C 
BRANCH   9  10
ATOM     10  O   UNL     1      46.079   6.184  10.947  0.00  0.00    +0.000 OA
BRANCH  10  11
ATOM     11  C   UNL     1      45.065   5.264  11.036  0.00  0.00    +0.000 A 
ATOM     12  C   UNL     1      45.192   3.901  10.787  0.00  0.00    +0.000 A 
ATOM     13  C   UNL     1      44.065   3.102  10.923  0.00  0.00    +0.000 A 
ATOM     14  N   UNL     1      42.852   3.567  11.279  0.00  0.00    +0.000 NA
ATOM     15  C   UNL     1      42.756   4.892  11.518  0.00  0.00    +0.000 A 
ATOM     16  C   UNL     1      43.825   5.772  11.408  0.00  0.00    +0.000 A 
ENDBRANCH  10  11
ENDBRANCH   9  10
ENDBRANCH   6   9
ENDBRANCH   1   3
BRANCH   1  18
ATOM     17  C   UNL     1      48.255   4.961  18.361  0.00  0.00    +0.000 C 
ATOM     18  C   UNL     1      49.238   4.741  17.199  0.00  0.00    +0.000 C 
BRANCH  18  19
ATOM     19  C   UNL     1      50.576   4.320  17.796  0.00  0.00    +0.000 A 
ATOM     20  C   UNL     1      51.339   5.138  18.615  0.00  0.00    +0.000 A 
ATOM     21  S   UNL     1      52.743   4.377  19.209  0.00  0.00    +0.000 S 
ATOM     22  C   UNL     1      52.371   2.925  18.399  0.00  0.00    +0.000 A 
ATOM     23  N   UNL     1      53.170   1.832  18.512  0.00  0.00    +0.000 NA
ATOM     24  C   UNL     1      52.749   0.798  17.861  0.00  0.00    +0.000 A 
ATOM     25  N   UNL     1      51.609   0.761  17.098  0.00  0.00    +0.000 N 
ATOM     26  C   UNL     1      50.765   1.841  16.954  0.00  0.00    +0.000 A 
ATOM     27  O   UNL     1      49.744   1.779  16.280  0.00  0.00    +0.000 OA
ATOM     28  C   UNL     1      51.198   3.026  17.673  0.00  0.00    +0.000 A 
ATOM     29  H   UNL     1      51.340  -0.084  16.615  0.00  0.00    +0.000 HD
ENDBRANCH  18  19
ENDBRANCH   1  18
TORSDOF 6
ENDMDL
MODEL 8
REMARK VINA RESULT:    -6.145      3.996      7.354
REMARK INTER + INTRA:          -9.361
REMARK INTER:                  -8.381
REMARK INTRA:                  -0.980
REMARK UNBOUND:                -1.061
REMARK  Name = 
REMARK  7 active torsions:
REMARK  status: ('A' for Active; 'I' for Inactive)
REMARK    1  A    between atoms: C_1  and  C_2
REMARK    2  A    between atoms: C_2  and  N_3
REMARK    3  A    between atoms: C_2  and  C_18
REMARK    4  A    between atoms: N_3  and  C_4
REMARK    5  A    between atoms: C_7  and  C_8
REMARK    6  A    between atoms: C_8  and  O_9
REMARK    7  A    between atoms: O_9  and  C_10
REMARK                            x       y       z     vdW  Elec       q    Type
REMARK                         _______ _______ _______ _____ _____    ______ ____
ROOT
ATOM      1  N   UNL     1      46.564   7.654  12.389  0.00  0.00    +0.000 N 
ATOM      2  H   UNL     1      46.664   6.870  13.037  0.00  0.00    +0.000 HD
ENDROOT
BRANCH   1   3
ATOM      3  C   UNL     1      47.855   8.036  12.010  0.00  0.00    +0.000 A 
ATOM      4  C   UNL     1      48.098   9.397  11.779  0.00  0.00    +0.000 A 
ATOM      5  C   UNL     1      49.381   9.872  11.476  0.00  0.00    +0.000 A 
ATOM      6  C   UNL     1      50.466   8.992  11.445  0.00  0.00    +0.000 A 
ATOM      7  C   UNL     1      50.241   7.641  11.731  0.00  0.00    +0.000 A 
ATOM      8  C   UNL     1      48.951   7.172  12.012  0.00  0.00    +0.000 A 
BRANCH   6   9
ATOM      9  C   UNL     1      51.854   9.494  11.141  0.00  0.00    +0.000 C 
BRANCH   9  10
ATOM     10  O   UNL     1      52.658   8.413  10.673  0.00  0.00    +0.000 OA
BRANCH  10  11
ATOM     11  C   UNL     1      52.720   8.247   9.314  0.00  0.00    +0.000 A 
ATOM     12  C   UNL     1      52.619   7.030   8.647  0.00  0.00    +0.000 A 
ATOM     13  C   UNL     1      52.702   7.032   7.261  0.00  0.00    +0.000 A 
ATOM     14  N   UNL     1      52.876   8.143   6.521  0.00  0.00    +0.000 NA
ATOM     15  C   UNL     1      52.968   9.311   7.190  0.00  0.00    +0.000 A 
ATOM     16  C   UNL     1      52.899   9.410   8.574  0.00  0.00    +0.000 A 
ENDBRANCH  10  11
ENDBRANCH   9  10
ENDBRANCH   6   9
ENDBRANCH   1   3
BRANCH   1  18
ATOM     17  C   UNL     1      44.411   8.383  11.396  0.00  0.00    +0.000 C 
ATOM     18  C   UNL     1      45.519   7.316  11.396  0.00  0.00    +0.000 C 
BRANCH  18  19
ATOM     19  C   UNL     1      44.868   5.969  11.689  0.00  0.00    +0.000 A 
ATOM     20  C   UNL     1      44.164   5.698  12.852  0.00  0.00    +0.000 A 
ATOM     21  S   UNL     1      43.468   4.142  12.872  0.00  0.00    +0.000 S 
ATOM     22  C   UNL     1      44.077   3.785  11.321  0.00  0.00    +0.000 A 
ATOM     23  N   UNL     1      43.816   2.595  10.720  0.00  0.00    +0.000 NA
ATOM     24  C   UNL     1      44.323   2.476   9.537  0.00  0.00    +0.000 A 
ATOM     25  N   UNL     1      45.077   3.433   8.906  0.00  0.00    +0.000 N 
ATOM     26  C   UNL     1      45.367   4.656   9.472  0.00  0.00    +0.000 A 
ATOM     27  O   UNL     1      46.030   5.501   8.883  0.00  0.00    +0.000 OA
ATOM     28  C   UNL     1      44.813   4.835  10.802  0.00  0.00    +0.000 A 
ATOM     29  H   UNL     1      45.443   3.271   7.979  0.00  0.00    +0.000 HD
ENDBRANCH  18  19
ENDBRANCH   1  18
TORSDOF 6
ENDMDL
MODEL 9
REMARK VINA RESULT:    -6.123      3.419      7.583
REMARK INTER + INTRA:          -9.333
REMARK INTER:                  -8.275
REMARK INTRA:                  -1.058
REMARK UNBOUND:                -1.061
REMARK  Name = 
REMARK  7 active torsions:
REMARK  status: ('A' for Active; 'I' for Inactive)
REMARK    1  A    between atoms: C_1  and  C_2
REMARK    2  A    between atoms: C_2  and  N_3
REMARK    3  A    between atoms: C_2  and  C_18
REMARK    4  A    between atoms: N_3  and  C_4
REMARK    5  A    between atoms: C_7  and  C_8
REMARK    6  A    between atoms: C_8  and  O_9
REMARK    7  A    between atoms: O_9  and  C_10
REMARK                            x       y       z     vdW  Elec       q    Type
REMARK                         _______ _______ _______ _____ _____    ______ ____
ROOT
ATOM      1  N   UNL     1      46.745   6.511  12.842  0.00  0.00    +0.000 N 
ATOM      2  H   UNL     1      46.834   5.573  13.237  0.00  0.00    +0.000 HD
ENDROOT
BRANCH   1   3
ATOM      3  C   UNL     1      48.036   7.045  12.764  0.00  0.00    +0.000 A 
ATOM      4  C   UNL     1      48.409   7.697  11.581  0.00  0.00    +0.000 A 
ATOM      5  C   UNL     1      49.652   8.329  11.453  0.00  0.00    +0.000 A 
ATOM      6  C   UNL     1      50.537   8.363  12.533  0.00  0.00    +0.000 A 
ATOM      7  C   UNL     1      50.149   7.764  13.737  0.00  0.00    +0.000 A 
ATOM      8  C   UNL     1      48.912   7.116  13.848  0.00  0.00    +0.000 A 
BRANCH   6   9
ATOM      9  C   UNL     1      51.869   9.059  12.415  0.00  0.00    +0.000 C 
BRANCH   9  10
ATOM     10  O   UNL     1      52.401   8.846  11.109  0.00  0.00    +0.000 OA
BRANCH  10  11
ATOM     11  C   UNL     1      53.215   7.753  10.956  0.00  0.00    +0.000 A 
ATOM     12  C   UNL     1      54.360   7.492  11.702  0.00  0.00    +0.000 A 
ATOM     13  C   UNL     1      55.076   6.336  11.422  0.00  0.00    +0.000 A 
ATOM     14  N   UNL     1      54.730   5.451  10.468  0.00  0.00    +0.000 NA
ATOM     15  C   UNL     1      53.613   5.724   9.761  0.00  0.00    +0.000 A 
ATOM     16  C   UNL     1      52.833   6.855   9.966  0.00  0.00    +0.000 A 
ENDBRANCH  10  11
ENDBRANCH   9  10
ENDBRANCH   6   9
ENDBRANCH   1   3
BRANCH   1  18
ATOM     17  C   UNL     1      44.746   7.511  11.767  0.00  0.00    +0.000 C 
ATOM     18  C   UNL     1      45.849   6.444  11.665  0.00  0.00    +0.000 C 
BRANCH  18  19
ATOM     19  C   UNL     1      45.171   5.084  11.541  0.00  0.00    +0.000 A 
ATOM     20  C   UNL     1      44.482   4.476  12.579  0.00  0.00    +0.000 A 
ATOM     21  S   UNL     1      43.750   3.004  12.132  0.00  0.00    +0.000 S 
ATOM     22  C   UNL     1      44.321   3.137  10.533  0.00  0.00    +0.000 A 
ATOM     23  N   UNL     1      44.020   2.198   9.598  0.00  0.00    +0.000 NA
ATOM     24  C   UNL     1      44.503   2.443   8.425  0.00  0.00    +0.000 A 
ATOM     25  N   UNL     1      45.267   3.537   8.104  0.00  0.00    +0.000 N 
ATOM     26  C   UNL     1      45.598   4.517   9.014  0.00  0.00    +0.000 A 
ATOM     27  O   UNL     1      46.270   5.492   8.700  0.00  0.00    +0.000 OA
ATOM     28  C   UNL     1      45.072   4.283  10.347  0.00  0.00    +0.000 A 
ATOM     29  H   UNL     1      45.612   3.665   7.164  0.00  0.00    +0.000 HD
ENDBRANCH  18  19
ENDBRANCH   1  18
TORSDOF 6
ENDMDL
