MODEL 1
REMARK VINA RESULT:    -7.940      0.000      0.000
REMARK INTER + INTRA:         -11.635
REMARK INTER:                 -10.725
REMARK INTRA:                  -0.910
REMARK UNBOUND:                -0.910
REMARK  Name = 
REMARK  7 active torsions:
REMARK  status: ('A' for Active; 'I' for Inactive)
REMARK    1  A    between atoms: C_1  and  O_2
REMARK    2  A    between atoms: O_2  and  C_3
REMARK    3  A    between atoms: C_7  and  C_8
REMARK    4  A    between atoms: C_8  and  C_9
REMARK    5  A    between atoms: C_12  and  C_13
REMARK    6  A    between atoms: C_13  and  N_14
REMARK    7  A    between atoms: C_15  and  C_17
REMARK                            x       y       z     vdW  Elec       q    Type
REMARK                         _______ _______ _______ _____ _____    ______ ____
ROOT
ATOM      1  C   UNL     1      47.301   8.192  13.657  0.00  0.00    +0.000 C 
ENDROOT
BRANCH   1   5
ATOM      2  C   UNL     1      44.810   5.519  11.451  0.00  0.00    +0.000 A 
ATOM      3  C   UNL     1      44.500   6.876  11.443  0.00  0.00    +0.000 A 
ATOM      4  C   UNL     1      45.295   7.757  12.176  0.00  0.00    +0.000 A 
ATOM      5  C   UNL     1      46.380   7.272  12.908  0.00  0.00    +0.000 A 
ATOM      6  C   UNL     1      46.609   5.902  12.865  0.00  0.00    +0.000 A 
ATOM      7  N   UNL     1      45.851   5.022  12.168  0.00  0.00    +0.000 NA
BRANCH   2   8
ATOM      8  C   UNL     1      44.055   4.555  10.555  0.00  0.00    +0.000 C 
BRANCH   8  13
ATOM      9  C   UNL     1      45.809   1.942   8.370  0.00  0.00    +0.000 A 
ATOM     10  C   UNL     1      46.447   2.761   7.438  0.00  0.00    +0.000 A 
ATOM     11  C   UNL     1      46.373   4.149   7.557  0.00  0.00    +0.000 A 
ATOM     12  C   UNL     1      45.639   4.723   8.591  0.00  0.00    +0.000 A 
ATOM     13  C   UNL     1      44.950   3.919   9.510  0.00  0.00    +0.000 A 
ATOM     14  C   UNL     1      45.070   2.525   9.407  0.00  0.00    +0.000 A 
BRANCH   9  16
ATOM     15  C   UNL     1      46.834  -0.051   7.587  0.00  0.00    +0.000 C 
ATOM     16  O   UNL     1      45.822   0.573   8.370  0.00  0.00    +0.000 OA
ENDBRANCH   9  16
ENDBRANCH   8  13
ENDBRANCH   2   8
ENDBRANCH   1   5
BRANCH   1  17
ATOM     17  N   UNL     1      47.782   7.571  14.868  0.00  0.00    +0.000 N 
ATOM     18  C   UNL     1      49.048   7.050  14.961  0.00  0.00    +0.000 C 
ATOM     19  O   UNL     1      49.850   7.122  14.033  0.00  0.00    +0.000 OA
ATOM     20  H   UNL     1      47.083   7.285  15.545  0.00  0.00    +0.000 HD
BRANCH  18  21
ATOM     21  C   UNL     1      49.415   6.454  16.251  0.00  0.00    +0.000 A 
ATOM     22  C   UNL     1      50.430   7.019  17.011  0.00  0.00    +0.000 A 
ATOM     23  S   UNL     1      50.681   6.243  18.509  0.00  0.00    +0.000 S 
ATOM     24  C   UNL     1      49.477   5.089  18.175  0.00  0.00    +0.000 A 
ATOM     25  N   UNL     1      49.193   4.094  19.059  0.00  0.00    +0.000 NA
ATOM     26  C   UNL     1      48.281   3.272  18.665  0.00  0.00    +0.000 A 
ATOM     27  N   UNL     1      47.624   3.352  17.463  0.00  0.00    +0.000 N 
ATOM     28  C   UNL     1      47.863   4.352  16.553  0.00  0.00    +0.000 A 
ATOM     29  O   UNL     1      47.232   4.416  15.500  0.00  0.00    +0.000 OA
ATOM     30  C   UNL     1      48.883   5.302  16.944  0.00  0.00    +0.000 A 
ATOM     31  H   UNL     1      46.916   2.679  17.213  0.00  0.00    +0.000 HD
ENDBRANCH  18  21
ENDBRANCH   1  17
TORSDOF 6
ENDMDL
MODEL 2
REMARK VINA RESULT:    -7.902      1.136      1.693
REMARK INTER + INTRA:         -11.583
REMARK INTER:                 -10.712
REMARK INTRA:                  -0.871
REMARK UNBOUND:                -0.910
REMARK  Name = 
REMARK  7 active torsions:
REMARK  status: ('A' for Active; 'I' for Inactive)
REMARK    1  A    between atoms: C_1  and  O_2
REMARK    2  A    between atoms: O_2  and  C_3
REMARK    3  A    between atoms: C_7  and  C_8
REMARK    4  A    between atoms: C_8  and  C_9
REMARK    5  A    between atoms: C_12  and  C_13
REMARK    6  A    between atoms: C_13  and  N_14
REMARK    7  A    between atoms: C_15  and  C_17
REMARK                            x       y       z     vdW  Elec       q    Type
REMARK                         _______ _______ _______ _____ _____    ______ ____
ROOT
ATOM      1  C   UNL     1      47.332   8.523  13.531  0.00  0.00    +0.000 C 
ENDROOT
BRANCH   1   5
ATOM      2  C   UNL     1      44.733   5.990  11.285  0.00  0.00    +0.000 A 
ATOM      3  C   UNL     1      45.896   5.443  11.819  0.00  0.00    +0.000 A 
ATOM      4  C   UNL     1      46.763   6.265  12.539  0.00  0.00    +0.000 A 
ATOM      5  C   UNL     1      46.461   7.617  12.709  0.00  0.00    +0.000 A 
ATOM      6  C   UNL     1      45.283   8.078  12.133  0.00  0.00    +0.000 A 
ATOM      7  N   UNL     1      44.426   7.306  11.424  0.00  0.00    +0.000 NA
BRANCH   2   8
ATOM      8  C   UNL     1      43.700   5.098  10.621  0.00  0.00    +0.000 C 
BRANCH   8  13
ATOM      9  C   UNL     1      45.769   3.475   7.835  0.00  0.00    +0.000 A 
ATOM     10  C   UNL     1      45.663   2.127   8.177  0.00  0.00    +0.000 A 
ATOM     11  C   UNL     1      44.869   1.737   9.256  0.00  0.00    +0.000 A 
ATOM     12  C   UNL     1      44.200   2.695  10.014  0.00  0.00    +0.000 A 
ATOM     13  C   UNL     1      44.332   4.059   9.716  0.00  0.00    +0.000 A 
ATOM     14  C   UNL     1      45.096   4.435   8.601  0.00  0.00    +0.000 A 
BRANCH   9  16
ATOM     15  C   UNL     1      46.800   3.074   5.735  0.00  0.00    +0.000 C 
ATOM     16  O   UNL     1      46.500   3.978   6.793  0.00  0.00    +0.000 OA
ENDBRANCH   9  16
ENDBRANCH   8  13
ENDBRANCH   2   8
ENDBRANCH   1   5
BRANCH   1  17
ATOM     17  N   UNL     1      47.667   7.912  14.795  0.00  0.00    +0.000 N 
ATOM     18  C   UNL     1      48.838   7.221  14.977  0.00  0.00    +0.000 C 
ATOM     19  O   UNL     1      49.680   7.123  14.086  0.00  0.00    +0.000 OA
ATOM     20  H   UNL     1      46.906   7.769  15.451  0.00  0.00    +0.000 HD
BRANCH  18  21
ATOM     21  C   UNL     1      49.062   6.655  16.313  0.00  0.00    +0.000 A 
ATOM     22  C   UNL     1      49.785   7.373  17.256  0.00  0.00    +0.000 A 
ATOM     23  S   UNL     1      49.892   6.600  18.773  0.00  0.00    +0.000 S 
ATOM     24  C   UNL     1      49.020   5.253  18.210  0.00  0.00    +0.000 A 
ATOM     25  N   UNL     1      48.771   4.189  19.021  0.00  0.00    +0.000 NA
ATOM     26  C   UNL     1      48.127   3.225  18.456  0.00  0.00    +0.000 A 
ATOM     27  N   UNL     1      47.708   3.226  17.150  0.00  0.00    +0.000 N 
ATOM     28  C   UNL     1      47.917   4.287  16.305  0.00  0.00    +0.000 A 
ATOM     29  O   UNL     1      47.498   4.272  15.150  0.00  0.00    +0.000 OA
ATOM     30  C   UNL     1      48.641   5.398  16.887  0.00  0.00    +0.000 A 
ATOM     31  H   UNL     1      47.204   2.441  16.766  0.00  0.00    +0.000 HD
ENDBRANCH  18  21
ENDBRANCH   1  17
TORSDOF 6
ENDMDL
MODEL 3
REMARK VINA RESULT:    -7.610      2.225      2.792
REMARK INTER + INTRA:         -11.189
REMARK INTER:                 -10.149
REMARK INTRA:                  -1.040
REMARK UNBOUND:                -0.910
REMARK  Name = 
REMARK  7 active torsions:
REMARK  status: ('A' for Active; 'I' for Inactive)
REMARK    1  A    between atoms: C_1  and  O_2
REMARK    2  A    between atoms: O_2  and  C_3
REMARK    3  A    between atoms: C_7  and  C_8
REMARK    4  A    between atoms: C_8  and  C_9
REMARK    5  A    between atoms: C_12  and  C_13
REMARK    6  A    between atoms: C_13  and  N_14
REMARK    7  A    between atoms: C_15  and  C_17
REMARK                            x       y       z     vdW  Elec       q    Type
REMARK                         _______ _______ _______ _____ _____    ______ ____
ROOT
ATOM      1  C   UNL     1      48.395   6.852  13.995  0.00  0.00    +0.000 C 
ENDROOT
BRANCH   1   5
ATOM      2  C   UNL     1      45.064   5.594  11.642  0.00  0.00    +0.000 A 
ATOM      3  C   UNL     1      45.597   6.861  11.416  0.00  0.00    +0.000 A 
ATOM      4  C   UNL     1      46.673   7.290  12.192  0.00  0.00    +0.000 A 
ATOM      5  C   UNL     1      47.197   6.456  13.182  0.00  0.00    +0.000 A 
ATOM      6  C   UNL     1      46.596   5.213  13.342  0.00  0.00    +0.000 A 
ATOM      7  N   UNL     1      45.546   4.771  12.609  0.00  0.00    +0.000 NA
BRANCH   2   8
ATOM      8  C   UNL     1      43.990   5.040  10.724  0.00  0.00    +0.000 C 
BRANCH   8  13
ATOM      9  C   UNL     1      45.885   3.471   7.788  0.00  0.00    +0.000 A 
ATOM     10  C   UNL     1      45.718   2.113   8.060  0.00  0.00    +0.000 A 
ATOM     11  C   UNL     1      44.937   1.705   9.141  0.00  0.00    +0.000 A 
ATOM     12  C   UNL     1      44.343   2.653   9.971  0.00  0.00    +0.000 A 
ATOM     13  C   UNL     1      44.538   4.023   9.744  0.00  0.00    +0.000 A 
ATOM     14  C   UNL     1      45.288   4.420   8.626  0.00  0.00    +0.000 A 
BRANCH   9  16
ATOM     15  C   UNL     1      46.921   3.104   5.683  0.00  0.00    +0.000 C 
ATOM     16  O   UNL     1      46.611   3.993   6.751  0.00  0.00    +0.000 OA
ENDBRANCH   9  16
ENDBRANCH   8  13
ENDBRANCH   2   8
ENDBRANCH   1   5
BRANCH   1  17
ATOM     17  N   UNL     1      48.188   6.571  15.396  0.00  0.00    +0.000 N 
ATOM     18  C   UNL     1      49.233   6.317  16.247  0.00  0.00    +0.000 C 
ATOM     19  O   UNL     1      50.402   6.357  15.869  0.00  0.00    +0.000 OA
ATOM     20  H   UNL     1      47.251   6.296  15.674  0.00  0.00    +0.000 HD
BRANCH  18  21
ATOM     21  C   UNL     1      48.886   6.055  17.649  0.00  0.00    +0.000 A 
ATOM     22  C   UNL     1      49.105   4.796  18.192  0.00  0.00    +0.000 A 
ATOM     23  S   UNL     1      48.709   4.684  19.847  0.00  0.00    +0.000 S 
ATOM     24  C   UNL     1      48.179   6.299  19.886  0.00  0.00    +0.000 A 
ATOM     25  N   UNL     1      47.680   6.847  21.028  0.00  0.00    +0.000 NA
ATOM     26  C   UNL     1      47.287   8.069  20.907  0.00  0.00    +0.000 A 
ATOM     27  N   UNL     1      47.345   8.798  19.746  0.00  0.00    +0.000 N 
ATOM     28  C   UNL     1      47.862   8.292  18.579  0.00  0.00    +0.000 A 
ATOM     29  O   UNL     1      47.934   8.982  17.564  0.00  0.00    +0.000 OA
ATOM     30  C   UNL     1      48.316   6.919  18.656  0.00  0.00    +0.000 A 
ATOM     31  H   UNL     1      47.025   9.753  19.716  0.00  0.00    +0.000 HD
ENDBRANCH  18  21
ENDBRANCH   1  17
TORSDOF 6
ENDMDL
MODEL 4
REMARK VINA RESULT:    -7.235      3.690      8.035
REMARK INTER + INTRA:         -10.682
REMARK INTER:                  -9.665
REMARK INTRA:                  -1.018
REMARK UNBOUND:                -0.910
REMARK  Name = 
REMARK  7 active torsions:
REMARK  status: ('A' for Active; 'I' for Inactive)
REMARK    1  A    between atoms: C_1  and  O_2
REMARK    2  A    between atoms: O_2  and  C_3
REMARK    3  A    between atoms: C_7  and  C_8
REMARK    4  A    between atoms: C_8  and  C_9
REMARK    5  A    between atoms: C_12  and  C_13
REMARK    6  A    between atoms: C_13  and  N_14
REMARK    7  A    between atoms: C_15  and  C_17
REMARK                            x       y       z     vdW  Elec       q    Type
REMARK                         _______ _______ _______ _____ _____    ______ ____
ROOT
ATOM      1  C   UNL     1      48.489   8.244  14.634  0.00  0.00    +0.000 C 
ENDROOT
BRANCH   1   5
ATOM      2  C   UNL     1      50.983   6.279  17.486  0.00  0.00    +0.000 A 
ATOM      3  C   UNL     1      49.672   6.582  17.845  0.00  0.00    +0.000 A 
ATOM      4  C   UNL     1      48.854   7.241  16.929  0.00  0.00    +0.000 A 
ATOM      5  C   UNL     1      49.354   7.593  15.674  0.00  0.00    +0.000 A 
ATOM      6  C   UNL     1      50.676   7.259  15.405  0.00  0.00    +0.000 A 
ATOM      7  N   UNL     1      51.497   6.625  16.277  0.00  0.00    +0.000 NA
BRANCH   2   8
ATOM      8  C   UNL     1      51.854   5.439  18.401  0.00  0.00    +0.000 C 
BRANCH   8  13
ATOM      9  C   UNL     1      50.642   2.089  16.991  0.00  0.00    +0.000 A 
ATOM     10  C   UNL     1      51.702   1.253  17.345  0.00  0.00    +0.000 A 
ATOM     11  C   UNL     1      52.766   1.750  18.097  0.00  0.00    +0.000 A 
ATOM     12  C   UNL     1      52.788   3.090  18.476  0.00  0.00    +0.000 A 
ATOM     13  C   UNL     1      51.757   3.958  18.090  0.00  0.00    +0.000 A 
ATOM     14  C   UNL     1      50.670   3.436  17.372  0.00  0.00    +0.000 A 
BRANCH   9  16
ATOM     15  C   UNL     1      48.341   2.444  16.525  0.00  0.00    +0.000 C 
ATOM     16  O   UNL     1      49.538   1.716  16.272  0.00  0.00    +0.000 OA
ENDBRANCH   9  16
ENDBRANCH   8  13
ENDBRANCH   2   8
ENDBRANCH   1   5
BRANCH   1  17
ATOM     17  N   UNL     1      47.449   7.348  14.189  0.00  0.00    +0.000 N 
ATOM     18  C   UNL     1      47.688   6.364  13.263  0.00  0.00    +0.000 C 
ATOM     19  O   UNL     1      48.808   6.169  12.797  0.00  0.00    +0.000 OA
ATOM     20  H   UNL     1      46.492   7.635  14.364  0.00  0.00    +0.000 HD
BRANCH  18  21
ATOM     21  C   UNL     1      46.546   5.515  12.903  0.00  0.00    +0.000 A 
ATOM     22  C   UNL     1      46.602   4.147  13.128  0.00  0.00    +0.000 A 
ATOM     23  S   UNL     1      45.167   3.323  12.715  0.00  0.00    +0.000 S 
ATOM     24  C   UNL     1      44.435   4.758  12.169  0.00  0.00    +0.000 A 
ATOM     25  N   UNL     1      43.176   4.751  11.652  0.00  0.00    +0.000 NA
ATOM     26  C   UNL     1      42.758   5.902  11.249  0.00  0.00    +0.000 A 
ATOM     27  N   UNL     1      43.485   7.064  11.313  0.00  0.00    +0.000 N 
ATOM     28  C   UNL     1      44.748   7.119  11.847  0.00  0.00    +0.000 A 
ATOM     29  O   UNL     1      45.359   8.182  11.923  0.00  0.00    +0.000 OA
ATOM     30  C   UNL     1      45.270   5.851  12.313  0.00  0.00    +0.000 A 
ATOM     31  H   UNL     1      43.100   7.936  10.984  0.00  0.00    +0.000 HD
ENDBRANCH  18  21
ENDBRANCH   1  17
TORSDOF 6
ENDMDL
MODEL 5
REMARK VINA RESULT:    -6.961      2.069      3.295
REMARK INTER + INTRA:         -10.312
REMARK INTER:                  -9.542
REMARK INTRA:                  -0.770
REMARK UNBOUND:                -0.910
REMARK  Name = 
REMARK  7 active torsions:
REMARK  status: ('A' for Active; 'I' for Inactive)
REMARK    1  A    between atoms: C_1  and  O_2
REMARK    2  A    between atoms: O_2  and  C_3
REMARK    3  A    between atoms: C_7  and  C_8
REMARK    4  A    between atoms: C_8  and  C_9
REMARK    5  A    between atoms: C_12  and  C_13
REMARK    6  A    between atoms: C_13  and  N_14
REMARK    7  A    between atoms: C_15  and  C_17
REMARK                            x       y       z     vdW  Elec       q    Type
REMARK                         _______ _______ _______ _____ _____    ______ ____
ROOT
ATOM      1  C   UNL     1      47.529   4.098  15.342  0.00  0.00    +0.000 C 
ENDROOT
BRANCH   1   5
ATOM      2  C   UNL     1      45.297   4.716  11.757  0.00  0.00    +0.000 A 
ATOM      3  C   UNL     1      45.900   5.815  12.363  0.00  0.00    +0.000 A 
ATOM      4  C   UNL     1      46.615   5.629  13.545  0.00  0.00    +0.000 A 
ATOM      5  C   UNL     1      46.714   4.355  14.107  0.00  0.00    +0.000 A 
ATOM      6  C   UNL     1      46.074   3.318  13.438  0.00  0.00    +0.000 A 
ATOM      7  N   UNL     1      45.367   3.470  12.293  0.00  0.00    +0.000 NA
BRANCH   2   8
ATOM      8  C   UNL     1      44.635   4.857  10.399  0.00  0.00    +0.000 C 
BRANCH   8  13
ATOM      9  C   UNL     1      45.988   1.997   8.239  0.00  0.00    +0.000 A 
ATOM     10  C   UNL     1      46.566   2.709   7.188  0.00  0.00    +0.000 A 
ATOM     11  C   UNL     1      46.584   4.104   7.212  0.00  0.00    +0.000 A 
ATOM     12  C   UNL     1      46.001   4.792   8.273  0.00  0.00    +0.000 A 
ATOM     13  C   UNL     1      45.373   4.097   9.315  0.00  0.00    +0.000 A 
ATOM     14  C   UNL     1      45.401   2.694   9.303  0.00  0.00    +0.000 A 
BRANCH   9  16
ATOM     15  C   UNL     1      46.784  -0.106   7.477  0.00  0.00    +0.000 C 
ATOM     16  O   UNL     1      45.923   0.633   8.338  0.00  0.00    +0.000 OA
ENDBRANCH   9  16
ENDBRANCH   8  13
ENDBRANCH   2   8
ENDBRANCH   1   5
BRANCH   1  17
ATOM     17  N   UNL     1      47.565   5.265  16.192  0.00  0.00    +0.000 N 
ATOM     18  C   UNL     1      48.693   5.619  16.886  0.00  0.00    +0.000 C 
ATOM     19  O   UNL     1      49.742   4.987  16.788  0.00  0.00    +0.000 OA
ATOM     20  H   UNL     1      46.671   5.651  16.477  0.00  0.00    +0.000 HD
BRANCH  18  21
ATOM     21  C   UNL     1      48.599   6.833  17.708  0.00  0.00    +0.000 A 
ATOM     22  C   UNL     1      48.606   6.733  19.093  0.00  0.00    +0.000 A 
ATOM     23  S   UNL     1      48.558   8.239  19.890  0.00  0.00    +0.000 S 
ATOM     24  C   UNL     1      48.473   9.080  18.414  0.00  0.00    +0.000 A 
ATOM     25  N   UNL     1      48.384  10.438  18.384  0.00  0.00    +0.000 NA
ATOM     26  C   UNL     1      48.295  10.941  17.199  0.00  0.00    +0.000 A 
ATOM     27  N   UNL     1      48.285  10.210  16.039  0.00  0.00    +0.000 N 
ATOM     28  C   UNL     1      48.395   8.842  16.023  0.00  0.00    +0.000 A 
ATOM     29  O   UNL     1      48.419   8.219  14.965  0.00  0.00    +0.000 OA
ATOM     30  C   UNL     1      48.495   8.222  17.329  0.00  0.00    +0.000 A 
ATOM     31  H   UNL     1      48.217  10.663  15.141  0.00  0.00    +0.000 HD
ENDBRANCH  18  21
ENDBRANCH   1  17
TORSDOF 6
ENDMDL
MODEL 6
REMARK VINA RESULT:    -6.954      2.658      4.409
REMARK INTER + INTRA:         -10.302
REMARK INTER:                  -9.170
REMARK INTRA:                  -1.132
REMARK UNBOUND:                -0.910
REMARK  Name = 
REMARK  7 active torsions:
REMARK  status: ('A' for Active; 'I' for Inactive)
REMARK    1  A    between atoms: C_1  and  O_2
REMARK    2  A    between atoms: O_2  and  C_3
REMARK    3  A    between atoms: C_7  and  C_8
REMARK    4  A    between atoms: C_8  and  C_9
REMARK    5  A    between atoms: C_12  and  C_13
REMARK    6  A    between atoms: C_13  and  N_14
REMARK    7  A    between atoms: C_15  and  C_17
REMARK                            x       y       z     vdW  Elec       q    Type
REMARK                         _______ _______ _______ _____ _____    ______ ____
ROOT
ATOM      1  C   UNL     1      47.559   5.669  14.686  0.00  0.00    +0.000 C 
ENDROOT
BRANCH   1   5
ATOM      2  C   UNL     1      44.775   5.006  11.520  0.00  0.00    +0.000 A 
ATOM      3  C   UNL     1      45.681   6.057  11.399  0.00  0.00    +0.000 A 
ATOM      4  C   UNL     1      46.583   6.295  12.436  0.00  0.00    +0.000 A 
ATOM      5  C   UNL     1      46.564   5.489  13.576  0.00  0.00    +0.000 A 
ATOM      6  C   UNL     1      45.619   4.470  13.613  0.00  0.00    +0.000 A 
ATOM      7  N   UNL     1      44.727   4.219  12.625  0.00  0.00    +0.000 NA
BRANCH   2   8
ATOM      8  C   UNL     1      43.879   4.630  10.355  0.00  0.00    +0.000 C 
BRANCH   8  13
ATOM      9  C   UNL     1      45.987   3.301   7.445  0.00  0.00    +0.000 A 
ATOM     10  C   UNL     1      45.987   1.933   7.721  0.00  0.00    +0.000 A 
ATOM     11  C   UNL     1      45.251   1.434   8.796  0.00  0.00    +0.000 A 
ATOM     12  C   UNL     1      44.534   2.303   9.615  0.00  0.00    +0.000 A 
ATOM     13  C   UNL     1      44.560   3.686   9.385  0.00  0.00    +0.000 A 
ATOM     14  C   UNL     1      45.267   4.170   8.274  0.00  0.00    +0.000 A 
BRANCH   9  16
ATOM     15  C   UNL     1      47.024   3.072   5.322  0.00  0.00    +0.000 C 
ATOM     16  O   UNL     1      46.654   3.906   6.414  0.00  0.00    +0.000 OA
ENDBRANCH   9  16
ENDBRANCH   8  13
ENDBRANCH   2   8
ENDBRANCH   1   5
BRANCH   1  17
ATOM     17  N   UNL     1      48.342   6.866  14.492  0.00  0.00    +0.000 N 
ATOM     18  C   UNL     1      49.542   7.058  15.129  0.00  0.00    +0.000 C 
ATOM     19  O   UNL     1      50.030   6.203  15.864  0.00  0.00    +0.000 OA
ATOM     20  H   UNL     1      47.862   7.668  14.098  0.00  0.00    +0.000 HD
BRANCH  18  21
ATOM     21  C   UNL     1      50.242   8.315  14.838  0.00  0.00    +0.000 A 
ATOM     22  C   UNL     1      50.623   9.151  15.879  0.00  0.00    +0.000 A 
ATOM     23  S   UNL     1      51.484  10.533  15.369  0.00  0.00    +0.000 S 
ATOM     24  C   UNL     1      51.331  10.092  13.733  0.00  0.00    +0.000 A 
ATOM     25  N   UNL     1      51.841  10.877  12.745  0.00  0.00    +0.000 NA
ATOM     26  C   UNL     1      51.626  10.438  11.551  0.00  0.00    +0.000 A 
ATOM     27  N   UNL     1      50.946   9.285  11.252  0.00  0.00    +0.000 N 
ATOM     28  C   UNL     1      50.437   8.454  12.219  0.00  0.00    +0.000 A 
ATOM     29  O   UNL     1      49.863   7.409  11.920  0.00  0.00    +0.000 OA
ATOM     30  C   UNL     1      50.646   8.900  13.581  0.00  0.00    +0.000 A 
ATOM     31  H   UNL     1      50.814   8.993  10.297  0.00  0.00    +0.000 HD
ENDBRANCH  18  21
ENDBRANCH   1  17
TORSDOF 6
ENDMDL
MODEL 7
REMARK VINA RESULT:    -6.900      3.627      8.775
REMARK INTER + INTRA:         -10.230
REMARK INTER:                  -9.108
REMARK INTRA:                  -1.122
REMARK UNBOUND:                -0.910
REMARK  Name = 
REMARK  7 active torsions:
REMARK  status: ('A' for Active; 'I' for Inactive)
REMARK    1  A    between atoms: C_1  and  O_2
REMARK    2  A    between atoms: O_2  and  C_3
REMARK    3  A    between atoms: C_7  and  C_8
REMARK    4  A    between atoms: C_8  and  C_9
REMARK    5  A    between atoms: C_12  and  C_13
REMARK    6  A    between atoms: C_13  and  N_14
REMARK    7  A    between atoms: C_15  and  C_17
REMARK                            x       y       z     vdW  Elec       q    Type
REMARK                         _______ _______ _______ _____ _____    ______ ____
ROOT
ATOM      1  C   UNL     1      47.223   3.401  16.788  0.00  0.00    +0.000 C 
ENDROOT
BRANCH   1   5
ATOM      2  C   UNL     1      51.057   4.538  18.279  0.00  0.00    +0.000 A 
ATOM      3  C   UNL     1      50.912   3.274  17.712  0.00  0.00    +0.000 A 
ATOM      4  C   UNL     1      49.660   2.884  17.239  0.00  0.00    +0.000 A 
ATOM      5  C   UNL     1      48.572   3.754  17.343  0.00  0.00    +0.000 A 
ATOM      6  C   UNL     1      48.808   4.991  17.931  0.00  0.00    +0.000 A 
ATOM      7  N   UNL     1      50.011   5.395  18.405  0.00  0.00    +0.000 NA
BRANCH   2   8
ATOM      8  C   UNL     1      52.430   5.049  18.672  0.00  0.00    +0.000 C 
BRANCH   8  13
ATOM      9  C   UNL     1      53.862   6.592  15.472  0.00  0.00    +0.000 A 
ATOM     10  C   UNL     1      55.073   5.908  15.366  0.00  0.00    +0.000 A 
ATOM     11  C   UNL     1      55.393   4.903  16.279  0.00  0.00    +0.000 A 
ATOM     12  C   UNL     1      54.516   4.597  17.317  0.00  0.00    +0.000 A 
ATOM     13  C   UNL     1      53.316   5.306  17.470  0.00  0.00    +0.000 A 
ATOM     14  C   UNL     1      52.985   6.283  16.519  0.00  0.00    +0.000 A 
BRANCH   9  16
ATOM     15  C   UNL     1      52.488   8.505  15.169  0.00  0.00    +0.000 C 
ATOM     16  O   UNL     1      53.430   7.583  14.631  0.00  0.00    +0.000 OA
ENDBRANCH   9  16
ENDBRANCH   8  13
ENDBRANCH   2   8
ENDBRANCH   1   5
BRANCH   1  17
ATOM     17  N   UNL     1      46.779   4.390  15.834  0.00  0.00    +0.000 N 
ATOM     18  C   UNL     1      46.817   4.160  14.482  0.00  0.00    +0.000 C 
ATOM     19  O   UNL     1      47.190   3.086  14.016  0.00  0.00    +0.000 OA
ATOM     20  H   UNL     1      46.703   5.345  16.168  0.00  0.00    +0.000 HD
BRANCH  18  21
ATOM     21  C   UNL     1      46.329   5.246  13.622  0.00  0.00    +0.000 A 
ATOM     22  C   UNL     1      47.127   6.359  13.394  0.00  0.00    +0.000 A 
ATOM     23  S   UNL     1      46.436   7.490  12.319  0.00  0.00    +0.000 S 
ATOM     24  C   UNL     1      45.022   6.558  12.161  0.00  0.00    +0.000 A 
ATOM     25  N   UNL     1      43.988   6.979  11.383  0.00  0.00    +0.000 NA
ATOM     26  C   UNL     1      42.967   6.191  11.379  0.00  0.00    +0.000 A 
ATOM     27  N   UNL     1      42.883   5.018  12.085  0.00  0.00    +0.000 N 
ATOM     28  C   UNL     1      43.910   4.546  12.863  0.00  0.00    +0.000 A 
ATOM     29  O   UNL     1      43.817   3.473  13.455  0.00  0.00    +0.000 OA
ATOM     30  C   UNL     1      45.083   5.395  12.907  0.00  0.00    +0.000 A 
ATOM     31  H   UNL     1      42.057   4.442  12.038  0.00  0.00    +0.000 HD
ENDBRANCH  18  21
ENDBRANCH   1  17
TORSDOF 6
ENDMDL
MODEL 8
REMARK VINA RESULT:    -6.847      4.218      9.274
REMARK INTER + INTRA:         -10.158
REMARK INTER:                  -9.390
REMARK INTRA:                  -0.769
REMARK UNBOUND:                -0.910
REMARK  Name = 
REMARK  7 active torsions:
REMARK  status: ('A' for Active; 'I' for Inactive)
REMARK    1  A    between atoms: C_1  and  O_2
REMARK    2  A    between atoms: O_2  and  C_3
REMARK    3  A    between atoms: C_7  and  C_8
REMARK    4  A    between atoms: C_8  and  C_9
REMARK    5  A    between atoms: C_12  and  C_13
REMARK    6  A    between atoms: C_13  and  N_14
REMARK    7  A    between atoms: C_15  and  C_17
REMARK                            x       y       z     vdW  Elec       q    Type
REMARK                         _______ _______ _______ _____ _____    ______ ____
ROOT
ATOM      1  C   UNL     1      47.262   3.599  16.853  0.00  0.00    +0.000 C 
ENDROOT
BRANCH   1   5
ATOM      2  C   UNL     1      51.422   4.214  17.580  0.00  0.00    +0.000 A 
ATOM      3  C   UNL     1      50.939   2.909  17.544  0.00  0.00    +0.000 A 
ATOM      4  C   UNL     1      49.578   2.696  17.327  0.00  0.00    +0.000 A 
ATOM      5  C   UNL     1      48.721   3.784  17.155  0.00  0.00    +0.000 A 
ATOM      6  C   UNL     1      49.289   5.051  17.215  0.00  0.00    +0.000 A 
ATOM      7  N   UNL     1      50.605   5.289  17.431  0.00  0.00    +0.000 NA
BRANCH   2   8
ATOM      8  C   UNL     1      52.913   4.477  17.671  0.00  0.00    +0.000 C 
BRANCH   8  13
ATOM      9  C   UNL     1      55.006   1.281  17.955  0.00  0.00    +0.000 A 
ATOM     10  C   UNL     1      55.250   1.245  19.328  0.00  0.00    +0.000 A 
ATOM     11  C   UNL     1      54.683   2.205  20.167  0.00  0.00    +0.000 A 
ATOM     12  C   UNL     1      53.891   3.218  19.634  0.00  0.00    +0.000 A 
ATOM     13  C   UNL     1      53.672   3.301  18.251  0.00  0.00    +0.000 A 
ATOM     14  C   UNL     1      54.211   2.304  17.423  0.00  0.00    +0.000 A 
BRANCH   9  16
ATOM     15  C   UNL     1      54.940  -0.922  17.072  0.00  0.00    +0.000 C 
ATOM     16  O   UNL     1      55.491   0.390  17.035  0.00  0.00    +0.000 OA
ENDBRANCH   9  16
ENDBRANCH   8  13
ENDBRANCH   2   8
ENDBRANCH   1   5
BRANCH   1  17
ATOM     17  N   UNL     1      46.821   4.525  15.837  0.00  0.00    +0.000 N 
ATOM     18  C   UNL     1      46.841   4.201  14.504  0.00  0.00    +0.000 C 
ATOM     19  O   UNL     1      47.194   3.092  14.111  0.00  0.00    +0.000 OA
ATOM     20  H   UNL     1      46.760   5.502  16.103  0.00  0.00    +0.000 HD
BRANCH  18  21
ATOM     21  C   UNL     1      46.358   5.230  13.575  0.00  0.00    +0.000 A 
ATOM     22  C   UNL     1      47.171   6.308  13.254  0.00  0.00    +0.000 A 
ATOM     23  S   UNL     1      46.483   7.371  12.111  0.00  0.00    +0.000 S 
ATOM     24  C   UNL     1      45.050   6.458  12.042  0.00  0.00    +0.000 A 
ATOM     25  N   UNL     1      44.011   6.840  11.251  0.00  0.00    +0.000 NA
ATOM     26  C   UNL     1      42.976   6.073  11.321  0.00  0.00    +0.000 A 
ATOM     27  N   UNL     1      42.883   4.956  12.111  0.00  0.00    +0.000 N 
ATOM     28  C   UNL     1      43.915   4.523  12.906  0.00  0.00    +0.000 A 
ATOM     29  O   UNL     1      43.813   3.497  13.576  0.00  0.00    +0.000 OA
ATOM     30  C   UNL     1      45.103   5.350  12.870  0.00  0.00    +0.000 A 
ATOM     31  H   UNL     1      42.046   4.394  12.118  0.00  0.00    +0.000 HD
ENDBRANCH  18  21
ENDBRANCH   1  17
TORSDOF 6
ENDMDL
MODEL 9
REMARK VINA RESULT:    -6.826      2.581      3.211
REMARK INTER + INTRA:         -10.130
REMARK INTER:                  -9.246
REMARK INTRA:                  -0.884
REMARK UNBOUND:                -0.910
REMARK  Name = 
REMARK  7 active torsions:
REMARK  status: ('A' for Active; 'I' for Inactive)
REMARK    1  A    between atoms: C_1  and  O_2
REMARK    2  A    between atoms: O_2  and  C_3
REMARK    3  A    between atoms: C_7  and  C_8
REMARK    4  A    between atoms: C_8  and  C_9
REMARK    5  A    between atoms: C_12  and  C_13
REMARK    6  A    between atoms: C_13  and  N_14
REMARK    7  A    between atoms: C_15  and  C_17
REMARK                            x       y       z     vdW  Elec       q    Type
REMARK                         _______ _______ _______ _____ _____    ______ ____
ROOT
ATOM      1  C   UNL     1      47.834   4.876  15.235  0.00  0.00    +0.000 C 
ENDROOT
BRANCH   1   5
ATOM      2  C   UNL     1      45.251   5.258  11.859  0.00  0.00    +0.000 A 
ATOM      3  C   UNL     1      46.259   6.202  12.035  0.00  0.00    +0.000 A 
ATOM      4  C   UNL     1      47.097   6.100  13.145  0.00  0.00    +0.000 A 
ATOM      5  C   UNL     1      46.914   5.063  14.063  0.00  0.00    +0.000 A 
ATOM      6  C   UNL     1      45.878   4.172  13.811  0.00  0.00    +0.000 A 
ATOM      7  N   UNL     1      45.045   4.250  12.746  0.00  0.00    +0.000 NA
BRANCH   2   8
ATOM      8  C   UNL     1      44.416   5.256  10.592  0.00  0.00    +0.000 C 
BRANCH   8  13
ATOM      9  C   UNL     1      46.058   3.489   7.616  0.00  0.00    +0.000 A 
ATOM     10  C   UNL     1      45.819   2.152   7.937  0.00  0.00    +0.000 A 
ATOM     11  C   UNL     1      45.069   1.825   9.067  0.00  0.00    +0.000 A 
ATOM     12  C   UNL     1      44.579   2.831   9.895  0.00  0.00    +0.000 A 
ATOM     13  C   UNL     1      44.849   4.179   9.618  0.00  0.00    +0.000 A 
ATOM     14  C   UNL     1      45.565   4.497   8.454  0.00  0.00    +0.000 A 
BRANCH   9  16
ATOM     15  C   UNL     1      46.918   3.015   5.454  0.00  0.00    +0.000 C 
ATOM     16  O   UNL     1      46.762   3.935   6.530  0.00  0.00    +0.000 OA
ENDBRANCH   9  16
ENDBRANCH   8  13
ENDBRANCH   2   8
ENDBRANCH   1   5
BRANCH   1  17
ATOM     17  N   UNL     1      47.907   6.076  16.034  0.00  0.00    +0.000 N 
ATOM     18  C   UNL     1      49.104   6.679  16.326  0.00  0.00    +0.000 C 
ATOM     19  O   UNL     1      50.170   6.253  15.888  0.00  0.00    +0.000 OA
ATOM     20  H   UNL     1      47.094   6.302  16.596  0.00  0.00    +0.000 HD
BRANCH  18  21
ATOM     21  C   UNL     1      49.039   7.899  17.141  0.00  0.00    +0.000 A 
ATOM     22  C   UNL     1      49.570   9.086  16.654  0.00  0.00    +0.000 A 
ATOM     23  S   UNL     1      49.349  10.417  17.698  0.00  0.00    +0.000 S 
ATOM     24  C   UNL     1      48.582   9.445  18.864  0.00  0.00    +0.000 A 
ATOM     25  N   UNL     1      48.151   9.971  20.042  0.00  0.00    +0.000 NA
ATOM     26  C   UNL     1      47.615   9.115  20.845  0.00  0.00    +0.000 A 
ATOM     27  N   UNL     1      47.471   7.777  20.579  0.00  0.00    +0.000 N 
ATOM     28  C   UNL     1      47.870   7.211  19.394  0.00  0.00    +0.000 A 
ATOM     29  O   UNL     1      47.695   6.015  19.171  0.00  0.00    +0.000 OA
ATOM     30  C   UNL     1      48.484   8.127  18.455  0.00  0.00    +0.000 A 
ATOM     31  H   UNL     1      47.039   7.159  21.247  0.00  0.00    +0.000 HD
ENDBRANCH  18  21
ENDBRANCH   1  17
TORSDOF 6
ENDMDL
