MODEL 1
REMARK VINA RESULT:    -8.255      0.000      0.000
REMARK INTER + INTRA:         -11.687
REMARK INTER:                 -10.909
REMARK INTRA:                  -0.777
REMARK UNBOUND:                -0.777
REMARK  Name = 
REMARK  6 active torsions:
REMARK  status: ('A' for Active; 'I' for Inactive)
REMARK    1  A    between atoms: N_1  and  C_2
REMARK    2  A    between atoms: C_2  and  C_3
REMARK    3  A    between atoms: C_6  and  O_7
REMARK    4  A    between atoms: O_7  and  C_8
REMARK    5  A    between atoms: C_8  and  C_9
REMARK    6  A    between atoms: C_14  and  C_15
REMARK                            x       y       z     vdW  Elec       q    Type
REMARK                         _______ _______ _______ _____ _____    ______ ____
ROOT
ATOM      1  C   UNL     1      43.499   4.718  10.989  0.00  0.00    +0.000 C 
ENDROOT
BRANCH   1   2
ATOM      2  C   UNL     1      44.767   5.172  11.669  0.00  0.00    +0.000 A 
ATOM      3  C   UNL     1      45.365   6.385  11.300  0.00  0.00    +0.000 A 
ATOM      4  C   UNL     1      46.496   6.847  11.968  0.00  0.00    +0.000 A 
ATOM      5  C   UNL     1      47.028   6.106  13.020  0.00  0.00    +0.000 A 
ATOM      6  F   UNL     1      48.110   6.597  13.645  0.00  0.00    +0.000 F 
ATOM      7  C   UNL     1      46.448   4.903  13.419  0.00  0.00    +0.000 A 
ATOM      8  C   UNL     1      45.314   4.435  12.732  0.00  0.00    +0.000 A 
BRANCH   7   9
ATOM      9  C   UNL     1      46.960   4.099  14.560  0.00  0.00    +0.000 C 
ATOM     10  N   UNL     1      46.754   4.570  15.824  0.00  0.00    +0.000 N 
ATOM     11  O   UNL     1      47.542   3.034  14.381  0.00  0.00    +0.000 OA
ATOM     12  H   UNL     1      46.279   5.444  16.015  0.00  0.00    +0.000 HD
ATOM     13  H   UNL     1      47.090   4.019  16.601  0.00  0.00    +0.000 HD
ENDBRANCH   7   9
ENDBRANCH   1   2
BRANCH   1  14
ATOM     14  O   UNL     1      43.672   4.760   9.570  0.00  0.00    +0.000 OA
BRANCH  14  18
ATOM     15  C   UNL     1      46.382   2.088   7.843  0.00  0.00    +0.000 A 
ATOM     16  C   UNL     1      46.421   3.464   7.575  0.00  0.00    +0.000 A 
ATOM     17  C   UNL     1      45.515   4.333   8.189  0.00  0.00    +0.000 A 
ATOM     18  C   UNL     1      44.551   3.838   9.069  0.00  0.00    +0.000 A 
ATOM     19  C   UNL     1      44.539   2.477   9.375  0.00  0.00    +0.000 A 
ATOM     20  C   UNL     1      45.438   1.607   8.758  0.00  0.00    +0.000 A 
BRANCH  15  21
ATOM     21  C   UNL     1      47.328   1.137   7.156  0.00  0.00    +0.000 C 
BRANCH  21  22
ATOM     22  N   UNL     1      48.331   1.849   6.377  0.00  0.00    +0.000 NA
ATOM     23  H   UNL     1      47.863   2.487   5.737  0.00  0.00    +0.000 HD
ATOM     24  H   UNL     1      48.832   1.176   5.798  0.00  0.00    +0.000 HD
ENDBRANCH  21  22
ENDBRANCH  15  21
ENDBRANCH  14  18
ENDBRANCH   1  14
TORSDOF 6
ENDMDL
MODEL 2
REMARK VINA RESULT:    -7.704      1.828      2.542
REMARK INTER + INTRA:         -10.958
REMARK INTER:                 -10.150
REMARK INTRA:                  -0.808
REMARK UNBOUND:                -0.777
REMARK  Name = 
REMARK  6 active torsions:
REMARK  status: ('A' for Active; 'I' for Inactive)
REMARK    1  A    between atoms: N_1  and  C_2
REMARK    2  A    between atoms: C_2  and  C_3
REMARK    3  A    between atoms: C_6  and  O_7
REMARK    4  A    between atoms: O_7  and  C_8
REMARK    5  A    between atoms: C_8  and  C_9
REMARK    6  A    between atoms: C_14  and  C_15
REMARK                            x       y       z     vdW  Elec       q    Type
REMARK                         _______ _______ _______ _____ _____    ______ ____
ROOT
ATOM      1  C   UNL     1      43.618   4.070  11.055  0.00  0.00    +0.000 C 
ENDROOT
BRANCH   1   2
ATOM      2  C   UNL     1      44.692   4.626  11.958  0.00  0.00    +0.000 A 
ATOM      3  C   UNL     1      45.485   3.757  12.722  0.00  0.00    +0.000 A 
ATOM      4  C   UNL     1      46.523   4.254  13.505  0.00  0.00    +0.000 A 
ATOM      5  C   UNL     1      46.786   5.622  13.518  0.00  0.00    +0.000 A 
ATOM      6  F   UNL     1      47.806   6.054  14.275  0.00  0.00    +0.000 F 
ATOM      7  C   UNL     1      46.024   6.508  12.758  0.00  0.00    +0.000 A 
ATOM      8  C   UNL     1      44.969   6.002  11.980  0.00  0.00    +0.000 A 
BRANCH   7   9
ATOM      9  C   UNL     1      46.294   7.970  12.713  0.00  0.00    +0.000 C 
ATOM     10  N   UNL     1      45.393   8.810  13.303  0.00  0.00    +0.000 N 
ATOM     11  O   UNL     1      47.301   8.417  12.176  0.00  0.00    +0.000 OA
ATOM     12  H   UNL     1      44.550   8.481  13.757  0.00  0.00    +0.000 HD
ATOM     13  H   UNL     1      45.582   9.802  13.284  0.00  0.00    +0.000 HD
ENDBRANCH   7   9
ENDBRANCH   1   2
BRANCH   1  14
ATOM     14  O   UNL     1      43.832   4.524   9.716  0.00  0.00    +0.000 OA
BRANCH  14  18
ATOM     15  C   UNL     1      46.552   2.089   7.682  0.00  0.00    +0.000 A 
ATOM     16  C   UNL     1      45.573   1.559   8.534  0.00  0.00    +0.000 A 
ATOM     17  C   UNL     1      44.663   2.401   9.180  0.00  0.00    +0.000 A 
ATOM     18  C   UNL     1      44.727   3.782   8.993  0.00  0.00    +0.000 A 
ATOM     19  C   UNL     1      45.669   4.310   8.108  0.00  0.00    +0.000 A 
ATOM     20  C   UNL     1      46.582   3.472   7.468  0.00  0.00    +0.000 A 
BRANCH  15  21
ATOM     21  C   UNL     1      47.564   1.195   7.012  0.00  0.00    +0.000 C 
BRANCH  21  22
ATOM     22  N   UNL     1      48.318   1.909   5.992  0.00  0.00    +0.000 NA
ATOM     23  H   UNL     1      48.008   1.602   5.073  0.00  0.00    +0.000 HD
ATOM     24  H   UNL     1      49.300   1.646   6.068  0.00  0.00    +0.000 HD
ENDBRANCH  21  22
ENDBRANCH  15  21
ENDBRANCH  14  18
ENDBRANCH   1  14
TORSDOF 6
ENDMDL
MODEL 3
REMARK VINA RESULT:    -7.316      2.471      3.557
REMARK INTER + INTRA:         -10.446
REMARK INTER:                  -9.676
REMARK INTRA:                  -0.769
REMARK UNBOUND:                -0.777
REMARK  Name = 
REMARK  6 active torsions:
REMARK  status: ('A' for Active; 'I' for Inactive)
REMARK    1  A    between atoms: N_1  and  C_2
REMARK    2  A    between atoms: C_2  and  C_3
REMARK    3  A    between atoms: C_6  and  O_7
REMARK    4  A    between atoms: O_7  and  C_8
REMARK    5  A    between atoms: C_8  and  C_9
REMARK    6  A    between atoms: C_14  and  C_15
REMARK                            x       y       z     vdW  Elec       q    Type
REMARK                         _______ _______ _______ _____ _____    ______ ____
ROOT
ATOM      1  C   UNL     1      44.168   4.543  11.405  0.00  0.00    +0.000 C 
ENDROOT
BRANCH   1   2
ATOM      2  C   UNL     1      44.888   5.849  11.631  0.00  0.00    +0.000 A 
ATOM      3  C   UNL     1      46.247   5.850  11.977  0.00  0.00    +0.000 A 
ATOM      4  C   UNL     1      46.939   7.049  12.120  0.00  0.00    +0.000 A 
ATOM      5  C   UNL     1      46.280   8.258  11.905  0.00  0.00    +0.000 A 
ATOM      6  F   UNL     1      46.990   9.388  12.040  0.00  0.00    +0.000 F 
ATOM      7  C   UNL     1      44.933   8.288  11.548  0.00  0.00    +0.000 A 
ATOM      8  C   UNL     1      44.236   7.075  11.417  0.00  0.00    +0.000 A 
BRANCH   7   9
ATOM      9  C   UNL     1      44.200   9.553  11.272  0.00  0.00    +0.000 C 
ATOM     10  N   UNL     1      43.750  10.282  12.334  0.00  0.00    +0.000 N 
ATOM     11  O   UNL     1      44.012   9.945  10.125  0.00  0.00    +0.000 OA
ATOM     12  H   UNL     1      43.884   9.994  13.296  0.00  0.00    +0.000 HD
ATOM     13  H   UNL     1      43.264  11.148  12.149  0.00  0.00    +0.000 HD
ENDBRANCH   7   9
ENDBRANCH   1   2
BRANCH   1  14
ATOM     14  O   UNL     1      43.777   4.440  10.033  0.00  0.00    +0.000 OA
BRANCH  14  18
ATOM     15  C   UNL     1      46.564   2.358   7.719  0.00  0.00    +0.000 A 
ATOM     16  C   UNL     1      45.697   1.703   8.606  0.00  0.00    +0.000 A 
ATOM     17  C   UNL     1      44.759   2.428   9.347  0.00  0.00    +0.000 A 
ATOM     18  C   UNL     1      44.685   3.817   9.221  0.00  0.00    +0.000 A 
ATOM     19  C   UNL     1      45.513   4.466   8.304  0.00  0.00    +0.000 A 
ATOM     20  C   UNL     1      46.454   3.745   7.569  0.00  0.00    +0.000 A 
BRANCH  15  21
ATOM     21  C   UNL     1      47.606   1.590   6.945  0.00  0.00    +0.000 C 
BRANCH  21  22
ATOM     22  N   UNL     1      48.524   2.483   6.252  0.00  0.00    +0.000 NA
ATOM     23  H   UNL     1      49.446   2.404   6.674  0.00  0.00    +0.000 HD
ATOM     24  H   UNL     1      48.220   3.444   6.403  0.00  0.00    +0.000 HD
ENDBRANCH  21  22
ENDBRANCH  15  21
ENDBRANCH  14  18
ENDBRANCH   1  14
TORSDOF 6
ENDMDL
MODEL 4
REMARK VINA RESULT:    -6.483      2.440      3.044
REMARK INTER + INTRA:          -9.345
REMARK INTER:                  -8.816
REMARK INTRA:                  -0.529
REMARK UNBOUND:                -0.777
REMARK  Name = 
REMARK  6 active torsions:
REMARK  status: ('A' for Active; 'I' for Inactive)
REMARK    1  A    between atoms: N_1  and  C_2
REMARK    2  A    between atoms: C_2  and  C_3
REMARK    3  A    between atoms: C_6  and  O_7
REMARK    4  A    between atoms: O_7  and  C_8
REMARK    5  A    between atoms: C_8  and  C_9
REMARK    6  A    between atoms: C_14  and  C_15
REMARK                            x       y       z     vdW  Elec       q    Type
REMARK                         _______ _______ _______ _____ _____    ______ ____
ROOT
ATOM      1  C   UNL     1      45.312   4.600  12.111  0.00  0.00    +0.000 C 
ENDROOT
BRANCH   1   2
ATOM      2  C   UNL     1      45.759   6.042  12.108  0.00  0.00    +0.000 A 
ATOM      3  C   UNL     1      44.827   7.066  12.329  0.00  0.00    +0.000 A 
ATOM      4  C   UNL     1      45.240   8.393  12.397  0.00  0.00    +0.000 A 
ATOM      5  C   UNL     1      46.591   8.706  12.260  0.00  0.00    +0.000 A 
ATOM      6  F   UNL     1      46.945   9.997  12.347  0.00  0.00    +0.000 F 
ATOM      7  C   UNL     1      47.542   7.708  12.053  0.00  0.00    +0.000 A 
ATOM      8  C   UNL     1      47.118   6.370  11.972  0.00  0.00    +0.000 A 
BRANCH   7   9
ATOM      9  C   UNL     1      48.998   7.992  11.938  0.00  0.00    +0.000 C 
ATOM     10  N   UNL     1      49.875   7.068  12.425  0.00  0.00    +0.000 N 
ATOM     11  O   UNL     1      49.407   9.021  11.410  0.00  0.00    +0.000 OA
ATOM     12  H   UNL     1      49.578   6.207  12.868  0.00  0.00    +0.000 HD
ATOM     13  H   UNL     1      50.864   7.254  12.336  0.00  0.00    +0.000 HD
ENDBRANCH   7   9
ENDBRANCH   1   2
BRANCH   1  14
ATOM     14  O   UNL     1      44.400   4.378  11.032  0.00  0.00    +0.000 OA
BRANCH  14  18
ATOM     15  C   UNL     1      46.205   2.753   7.631  0.00  0.00    +0.000 A 
ATOM     16  C   UNL     1      45.607   1.948   8.612  0.00  0.00    +0.000 A 
ATOM     17  C   UNL     1      44.991   2.526   9.726  0.00  0.00    +0.000 A 
ATOM     18  C   UNL     1      44.973   3.913   9.879  0.00  0.00    +0.000 A 
ATOM     19  C   UNL     1      45.524   4.719   8.882  0.00  0.00    +0.000 A 
ATOM     20  C   UNL     1      46.146   4.144   7.773  0.00  0.00    +0.000 A 
BRANCH  15  21
ATOM     21  C   UNL     1      46.907   2.139   6.448  0.00  0.00    +0.000 C 
BRANCH  21  22
ATOM     22  N   UNL     1      48.147   1.483   6.841  0.00  0.00    +0.000 NA
ATOM     23  H   UNL     1      48.531   0.990   6.039  0.00  0.00    +0.000 HD
ATOM     24  H   UNL     1      47.932   0.773   7.541  0.00  0.00    +0.000 HD
ENDBRANCH  21  22
ENDBRANCH  15  21
ENDBRANCH  14  18
ENDBRANCH   1  14
TORSDOF 6
ENDMDL
MODEL 5
REMARK VINA RESULT:    -6.347      3.340      7.688
REMARK INTER + INTRA:          -9.165
REMARK INTER:                  -8.646
REMARK INTRA:                  -0.519
REMARK UNBOUND:                -0.777
REMARK  Name = 
REMARK  6 active torsions:
REMARK  status: ('A' for Active; 'I' for Inactive)
REMARK    1  A    between atoms: N_1  and  C_2
REMARK    2  A    between atoms: C_2  and  C_3
REMARK    3  A    between atoms: C_6  and  O_7
REMARK    4  A    between atoms: O_7  and  C_8
REMARK    5  A    between atoms: C_8  and  C_9
REMARK    6  A    between atoms: C_14  and  C_15
REMARK                            x       y       z     vdW  Elec       q    Type
REMARK                         _______ _______ _______ _____ _____    ______ ____
ROOT
ATOM      1  C   UNL     1      47.301   4.974  14.016  0.00  0.00    +0.000 C 
ENDROOT
BRANCH   1   2
ATOM      2  C   UNL     1      46.078   5.081  13.138  0.00  0.00    +0.000 A 
ATOM      3  C   UNL     1      45.558   6.341  12.810  0.00  0.00    +0.000 A 
ATOM      4  C   UNL     1      44.473   6.454  11.946  0.00  0.00    +0.000 A 
ATOM      5  C   UNL     1      43.908   5.307  11.391  0.00  0.00    +0.000 A 
ATOM      6  F   UNL     1      42.873   5.465  10.552  0.00  0.00    +0.000 F 
ATOM      7  C   UNL     1      44.412   4.042  11.688  0.00  0.00    +0.000 A 
ATOM      8  C   UNL     1      45.500   3.933  12.571  0.00  0.00    +0.000 A 
BRANCH   7   9
ATOM      9  C   UNL     1      43.865   2.795  11.089  0.00  0.00    +0.000 C 
ATOM     10  N   UNL     1      44.468   2.299   9.970  0.00  0.00    +0.000 N 
ATOM     11  O   UNL     1      42.907   2.215  11.588  0.00  0.00    +0.000 OA
ATOM     12  H   UNL     1      45.260   2.748   9.526  0.00  0.00    +0.000 HD
ATOM     13  H   UNL     1      44.105   1.446   9.569  0.00  0.00    +0.000 HD
ENDBRANCH   7   9
ENDBRANCH   1   2
BRANCH   1  14
ATOM     14  O   UNL     1      47.223   3.785  14.807  0.00  0.00    +0.000 OA
BRANCH  14  18
ATOM     15  C   UNL     1      48.660   4.404  18.682  0.00  0.00    +0.000 A 
ATOM     16  C   UNL     1      48.496   5.459  17.772  0.00  0.00    +0.000 A 
ATOM     17  C   UNL     1      47.990   5.220  16.491  0.00  0.00    +0.000 A 
ATOM     18  C   UNL     1      47.652   3.924  16.099  0.00  0.00    +0.000 A 
ATOM     19  C   UNL     1      47.768   2.879  17.017  0.00  0.00    +0.000 A 
ATOM     20  C   UNL     1      48.279   3.114  18.293  0.00  0.00    +0.000 A 
BRANCH  15  21
ATOM     21  C   UNL     1      49.243   4.644  20.051  0.00  0.00    +0.000 C 
BRANCH  21  22
ATOM     22  N   UNL     1      48.384   4.113  21.100  0.00  0.00    +0.000 NA
ATOM     23  H   UNL     1      48.231   3.121  20.933  0.00  0.00    +0.000 HD
ATOM     24  H   UNL     1      47.470   4.561  21.030  0.00  0.00    +0.000 HD
ENDBRANCH  21  22
ENDBRANCH  15  21
ENDBRANCH  14  18
ENDBRANCH   1  14
TORSDOF 6
ENDMDL
MODEL 6
REMARK VINA RESULT:    -6.004      4.005      7.425
REMARK INTER + INTRA:          -8.712
REMARK INTER:                  -8.154
REMARK INTRA:                  -0.559
REMARK UNBOUND:                -0.777
REMARK  Name = 
REMARK  6 active torsions:
REMARK  status: ('A' for Active; 'I' for Inactive)
REMARK    1  A    between atoms: N_1  and  C_2
REMARK    2  A    between atoms: C_2  and  C_3
REMARK    3  A    between atoms: C_6  and  O_7
REMARK    4  A    between atoms: O_7  and  C_8
REMARK    5  A    between atoms: C_8  and  C_9
REMARK    6  A    between atoms: C_14  and  C_15
REMARK                            x       y       z     vdW  Elec       q    Type
REMARK                         _______ _______ _______ _____ _____    ______ ____
ROOT
ATOM      1  C   UNL     1      47.010   3.652  14.026  0.00  0.00    +0.000 C 
ENDROOT
BRANCH   1   2
ATOM      2  C   UNL     1      46.365   4.832  13.340  0.00  0.00    +0.000 A 
ATOM      3  C   UNL     1      47.038   6.060  13.277  0.00  0.00    +0.000 A 
ATOM      4  C   UNL     1      46.484   7.135  12.588  0.00  0.00    +0.000 A 
ATOM      5  C   UNL     1      45.258   6.984  11.944  0.00  0.00    +0.000 A 
ATOM      6  F   UNL     1      44.768   8.043  11.280  0.00  0.00    +0.000 F 
ATOM      7  C   UNL     1      44.571   5.771  11.978  0.00  0.00    +0.000 A 
ATOM      8  C   UNL     1      45.130   4.694  12.686  0.00  0.00    +0.000 A 
BRANCH   7   9
ATOM      9  C   UNL     1      43.279   5.556  11.273  0.00  0.00    +0.000 C 
ATOM     10  N   UNL     1      42.162   6.153  11.780  0.00  0.00    +0.000 N 
ATOM     11  O   UNL     1      43.213   4.873  10.257  0.00  0.00    +0.000 OA
ATOM     12  H   UNL     1      42.174   6.724  12.617  0.00  0.00    +0.000 HD
ATOM     13  H   UNL     1      41.286   6.018  11.295  0.00  0.00    +0.000 HD
ENDBRANCH   7   9
ENDBRANCH   1   2
BRANCH   1  14
ATOM     14  O   UNL     1      46.740   3.704  15.429  0.00  0.00    +0.000 OA
BRANCH  14  18
ATOM     15  C   UNL     1      50.178   3.980  17.788  0.00  0.00    +0.000 A 
ATOM     16  C   UNL     1      49.448   5.114  17.402  0.00  0.00    +0.000 A 
ATOM     17  C   UNL     1      48.288   4.984  16.633  0.00  0.00    +0.000 A 
ATOM     18  C   UNL     1      47.850   3.721  16.230  0.00  0.00    +0.000 A 
ATOM     19  C   UNL     1      48.547   2.588  16.651  0.00  0.00    +0.000 A 
ATOM     20  C   UNL     1      49.708   2.717  17.413  0.00  0.00    +0.000 A 
BRANCH  15  21
ATOM     21  C   UNL     1      51.452   4.112  18.583  0.00  0.00    +0.000 C 
BRANCH  21  22
ATOM     22  N   UNL     1      51.181   4.326  19.997  0.00  0.00    +0.000 NA
ATOM     23  H   UNL     1      51.638   5.184  20.297  0.00  0.00    +0.000 HD
ATOM     24  H   UNL     1      51.611   3.569  20.529  0.00  0.00    +0.000 HD
ENDBRANCH  21  22
ENDBRANCH  15  21
ENDBRANCH  14  18
ENDBRANCH   1  14
TORSDOF 6
ENDMDL
MODEL 7
REMARK VINA RESULT:    -5.950      3.429      6.020
REMARK INTER + INTRA:          -8.640
REMARK INTER:                  -8.010
REMARK INTRA:                  -0.630
REMARK UNBOUND:                -0.777
REMARK  Name = 
REMARK  6 active torsions:
REMARK  status: ('A' for Active; 'I' for Inactive)
REMARK    1  A    between atoms: N_1  and  C_2
REMARK    2  A    between atoms: C_2  and  C_3
REMARK    3  A    between atoms: C_6  and  O_7
REMARK    4  A    between atoms: O_7  and  C_8
REMARK    5  A    between atoms: C_8  and  C_9
REMARK    6  A    between atoms: C_14  and  C_15
REMARK                            x       y       z     vdW  Elec       q    Type
REMARK                         _______ _______ _______ _____ _____    ______ ____
ROOT
ATOM      1  C   UNL     1      44.822   7.427  11.620  0.00  0.00    +0.000 C 
ENDROOT
BRANCH   1   2
ATOM      2  C   UNL     1      44.428   5.970  11.610  0.00  0.00    +0.000 A 
ATOM      3  C   UNL     1      43.683   5.438  12.671  0.00  0.00    +0.000 A 
ATOM      4  C   UNL     1      43.255   4.114  12.640  0.00  0.00    +0.000 A 
ATOM      5  C   UNL     1      43.557   3.316  11.538  0.00  0.00    +0.000 A 
ATOM      6  F   UNL     1      43.112   2.050  11.544  0.00  0.00    +0.000 F 
ATOM      7  C   UNL     1      44.285   3.821  10.462  0.00  0.00    +0.000 A 
ATOM      8  C   UNL     1      44.725   5.155  10.506  0.00  0.00    +0.000 A 
BRANCH   7   9
ATOM      9  C   UNL     1      44.597   3.016   9.251  0.00  0.00    +0.000 C 
ATOM     10  N   UNL     1      44.293   3.544   8.030  0.00  0.00    +0.000 N 
ATOM     11  O   UNL     1      45.126   1.913   9.337  0.00  0.00    +0.000 OA
ATOM     12  H   UNL     1      43.856   4.451   7.916  0.00  0.00    +0.000 HD
ATOM     13  H   UNL     1      44.517   3.004   7.206  0.00  0.00    +0.000 HD
ENDBRANCH   7   9
ENDBRANCH   1   2
BRANCH   1  14
ATOM     14  O   UNL     1      45.619   7.702  12.775  0.00  0.00    +0.000 OA
BRANCH  14  18
ATOM     15  C   UNL     1      49.668   8.224  11.882  0.00  0.00    +0.000 A 
ATOM     16  C   UNL     1      48.739   9.268  11.760  0.00  0.00    +0.000 A 
ATOM     17  C   UNL     1      47.396   9.065  12.091  0.00  0.00    +0.000 A 
ATOM     18  C   UNL     1      46.962   7.815  12.536  0.00  0.00    +0.000 A 
ATOM     19  C   UNL     1      47.892   6.788  12.704  0.00  0.00    +0.000 A 
ATOM     20  C   UNL     1      49.231   6.987  12.368  0.00  0.00    +0.000 A 
BRANCH  15  21
ATOM     21  C   UNL     1      51.110   8.421  11.490  0.00  0.00    +0.000 C 
BRANCH  21  22
ATOM     22  N   UNL     1      51.673   7.215  10.898  0.00  0.00    +0.000 NA
ATOM     23  H   UNL     1      52.670   7.182  11.097  0.00  0.00    +0.000 HD
ATOM     24  H   UNL     1      51.582   7.276   9.885  0.00  0.00    +0.000 HD
ENDBRANCH  21  22
ENDBRANCH  15  21
ENDBRANCH  14  18
ENDBRANCH   1  14
TORSDOF 6
ENDMDL
MODEL 8
REMARK VINA RESULT:    -5.624      4.205      5.692
REMARK INTER + INTRA:          -8.210
REMARK INTER:                  -7.796
REMARK INTRA:                  -0.414
REMARK UNBOUND:                -0.777
REMARK  Name = 
REMARK  6 active torsions:
REMARK  status: ('A' for Active; 'I' for Inactive)
REMARK    1  A    between atoms: N_1  and  C_2
REMARK    2  A    between atoms: C_2  and  C_3
REMARK    3  A    between atoms: C_6  and  O_7
REMARK    4  A    between atoms: O_7  and  C_8
REMARK    5  A    between atoms: C_8  and  C_9
REMARK    6  A    between atoms: C_14  and  C_15
REMARK                            x       y       z     vdW  Elec       q    Type
REMARK                         _______ _______ _______ _____ _____    ______ ____
ROOT
ATOM      1  C   UNL     1      48.721   6.972  14.175  0.00  0.00    +0.000 C 
ENDROOT
BRANCH   1   2
ATOM      2  C   UNL     1      48.618   6.660  15.648  0.00  0.00    +0.000 A 
ATOM      3  C   UNL     1      48.813   7.675  16.595  0.00  0.00    +0.000 A 
ATOM      4  C   UNL     1      48.654   7.413  17.953  0.00  0.00    +0.000 A 
ATOM      5  C   UNL     1      48.283   6.137  18.373  0.00  0.00    +0.000 A 
ATOM      6  F   UNL     1      48.127   5.935  19.690  0.00  0.00    +0.000 F 
ATOM      7  C   UNL     1      48.070   5.111  17.453  0.00  0.00    +0.000 A 
ATOM      8  C   UNL     1      48.245   5.378  16.085  0.00  0.00    +0.000 A 
BRANCH   7   9
ATOM      9  C   UNL     1      47.637   3.746  17.854  0.00  0.00    +0.000 C 
ATOM     10  N   UNL     1      48.370   3.090  18.800  0.00  0.00    +0.000 N 
ATOM     11  O   UNL     1      46.643   3.222  17.364  0.00  0.00    +0.000 OA
ATOM     12  H   UNL     1      49.197   3.487  19.229  0.00  0.00    +0.000 HD
ATOM     13  H   UNL     1      48.070   2.168  19.082  0.00  0.00    +0.000 HD
ENDBRANCH   7   9
ENDBRANCH   1   2
BRANCH   1  14
ATOM     14  O   UNL     1      48.396   5.807  13.412  0.00  0.00    +0.000 OA
BRANCH  14  18
ATOM     15  C   UNL     1      44.566   5.571  11.756  0.00  0.00    +0.000 A 
ATOM     16  C   UNL     1      45.034   4.630  12.685  0.00  0.00    +0.000 A 
ATOM     17  C   UNL     1      46.312   4.753  13.238  0.00  0.00    +0.000 A 
ATOM     18  C   UNL     1      47.143   5.810  12.861  0.00  0.00    +0.000 A 
ATOM     19  C   UNL     1      46.663   6.774  11.974  0.00  0.00    +0.000 A 
ATOM     20  C   UNL     1      45.391   6.650  11.417  0.00  0.00    +0.000 A 
BRANCH  15  21
ATOM     21  C   UNL     1      43.206   5.426  11.124  0.00  0.00    +0.000 C 
BRANCH  21  22
ATOM     22  N   UNL     1      42.250   6.370  11.685  0.00  0.00    +0.000 NA
ATOM     23  H   UNL     1      41.617   5.872  12.306  0.00  0.00    +0.000 HD
ATOM     24  H   UNL     1      41.678   6.744  10.929  0.00  0.00    +0.000 HD
ENDBRANCH  21  22
ENDBRANCH  15  21
ENDBRANCH  14  18
ENDBRANCH   1  14
TORSDOF 6
ENDMDL
MODEL 9
REMARK VINA RESULT:    -5.310      2.833      4.136
REMARK INTER + INTRA:          -7.795
REMARK INTER:                  -7.312
REMARK INTRA:                  -0.483
REMARK UNBOUND:                -0.777
REMARK  Name = 
REMARK  6 active torsions:
REMARK  status: ('A' for Active; 'I' for Inactive)
REMARK    1  A    between atoms: N_1  and  C_2
REMARK    2  A    between atoms: C_2  and  C_3
REMARK    3  A    between atoms: C_6  and  O_7
REMARK    4  A    between atoms: O_7  and  C_8
REMARK    5  A    between atoms: C_8  and  C_9
REMARK    6  A    between atoms: C_14  and  C_15
REMARK                            x       y       z     vdW  Elec       q    Type
REMARK                         _______ _______ _______ _____ _____    ______ ____
ROOT
ATOM      1  C   UNL     1      46.726   4.216  14.088  0.00  0.00    +0.000 C 
ENDROOT
BRANCH   1   2
ATOM      2  C   UNL     1      47.532   4.968  15.119  0.00  0.00    +0.000 A 
ATOM      3  C   UNL     1      48.254   6.112  14.746  0.00  0.00    +0.000 A 
ATOM      4  C   UNL     1      48.944   6.852  15.701  0.00  0.00    +0.000 A 
ATOM      5  C   UNL     1      48.907   6.464  17.038  0.00  0.00    +0.000 A 
ATOM      6  F   UNL     1      49.575   7.217  17.926  0.00  0.00    +0.000 F 
ATOM      7  C   UNL     1      48.187   5.340  17.440  0.00  0.00    +0.000 A 
ATOM      8  C   UNL     1      47.502   4.588  16.470  0.00  0.00    +0.000 A 
BRANCH   7   9
ATOM      9  C   UNL     1      48.089   4.911  18.861  0.00  0.00    +0.000 C 
ATOM     10  N   UNL     1      47.164   5.522  19.656  0.00  0.00    +0.000 N 
ATOM     11  O   UNL     1      48.807   4.024  19.311  0.00  0.00    +0.000 OA
ATOM     12  H   UNL     1      46.553   6.259  19.324  0.00  0.00    +0.000 HD
ATOM     13  H   UNL     1      47.087   5.223  20.618  0.00  0.00    +0.000 HD
ENDBRANCH   7   9
ENDBRANCH   1   2
BRANCH   1  14
ATOM     14  O   UNL     1      45.784   5.099  13.476  0.00  0.00    +0.000 OA
BRANCH  14  18
ATOM     15  C   UNL     1      45.090   4.130   9.470  0.00  0.00    +0.000 A 
ATOM     16  C   UNL     1      44.780   3.245  10.514  0.00  0.00    +0.000 A 
ATOM     17  C   UNL     1      45.003   3.611  11.845  0.00  0.00    +0.000 A 
ATOM     18  C   UNL     1      45.548   4.860  12.149  0.00  0.00    +0.000 A 
ATOM     19  C   UNL     1      45.812   5.761  11.117  0.00  0.00    +0.000 A 
ATOM     20  C   UNL     1      45.597   5.395   9.788  0.00  0.00    +0.000 A 
BRANCH  15  21
ATOM     21  C   UNL     1      44.892   3.730   8.031  0.00  0.00    +0.000 C 
BRANCH  21  22
ATOM     22  N   UNL     1      46.080   3.997   7.233  0.00  0.00    +0.000 NA
ATOM     23  H   UNL     1      46.423   4.930   7.451  0.00  0.00    +0.000 HD
ATOM     24  H   UNL     1      45.815   4.010   6.248  0.00  0.00    +0.000 HD
ENDBRANCH  21  22
ENDBRANCH  15  21
ENDBRANCH  14  18
ENDBRANCH   1  14
TORSDOF 6
ENDMDL
