MODEL 1
REMARK VINA RESULT:    -8.285      0.000      0.000
REMARK INTER + INTRA:         -11.002
REMARK INTER:                 -10.464
REMARK INTRA:                  -0.538
REMARK UNBOUND:                -0.538
REMARK  Name = 
REMARK  5 active torsions:
REMARK  status: ('A' for Active; 'I' for Inactive)
REMARK    1  A    between atoms: C_2  and  C_5
REMARK    2  A    between atoms: N_3  and  O_4
REMARK    3  A    between atoms: N_9  and  C_10
REMARK    4  A    between atoms: C_10  and  C_11
REMARK    5  A    between atoms: C_11  and  C_12
REMARK                            x       y       z     vdW  Elec       q    Type
REMARK                         _______ _______ _______ _____ _____    ______ ____
ROOT
ATOM      1  C   UNL     1      46.108   2.591   7.962  0.00  0.00    +0.000 A 
ATOM      2  C   UNL     1      46.174   3.978   7.947  0.00  0.00    +0.000 A 
ATOM      3  C   UNL     1      45.294   4.712   8.747  0.00  0.00    +0.000 A 
ATOM      4  C   UNL     1      44.407   4.047   9.591  0.00  0.00    +0.000 A 
ATOM      5  N   UNL     1      43.486   4.804  10.334  0.00  0.00    +0.000 N 
ATOM      6  N   UNL     1      44.351   2.697   9.624  0.00  0.00    +0.000 NA
ATOM      7  C   UNL     1      45.192   2.000   8.817  0.00  0.00    +0.000 A 
ATOM      8  H   UNL     1      43.853   5.732  10.514  0.00  0.00    +0.000 HD
ENDROOT
BRANCH   1  10
ATOM      9  O   UNL     1      47.151   0.588   7.290  0.00  0.00    +0.000 OA
ATOM     10  C   UNL     1      47.013   1.795   7.111  0.00  0.00    +0.000 C 
ATOM     11  N   UNL     1      47.723   2.484   6.151  0.00  0.00    +0.000 N 
ATOM     12  H   UNL     1      47.929   3.475   6.232  0.00  0.00    +0.000 HD
BRANCH  11  13
ATOM     13  O   UNL     1      48.688   1.713   5.460  0.00  0.00    +0.000 OA
ATOM     14  H   UNL     1      48.551   0.814   5.837  0.00  0.00    +0.000 HD
ENDBRANCH  11  13
ENDBRANCH   1  10
BRANCH   5  15
ATOM     15  C   UNL     1      43.037   4.150  11.572  0.00  0.00    +0.000 C 
BRANCH  15  16
ATOM     16  C   UNL     1      43.267   5.096  12.757  0.00  0.00    +0.000 C 
BRANCH  16  17
ATOM     17  C   UNL     1      44.688   5.595  12.863  0.00  0.00    +0.000 A 
ATOM     18  C   UNL     1      45.711   4.760  13.336  0.00  0.00    +0.000 A 
ATOM     19  C   UNL     1      47.027   5.218  13.403  0.00  0.00    +0.000 A 
ATOM     20  C   UNL     1      47.334   6.519  13.006  0.00  0.00    +0.000 A 
ATOM     21  C   UNL     1      46.325   7.363  12.552  0.00  0.00    +0.000 A 
ATOM     22  C   UNL     1      45.008   6.905  12.483  0.00  0.00    +0.000 A 
ENDBRANCH  16  17
ENDBRANCH  15  16
ENDBRANCH   5  15
TORSDOF 5
ENDMDL
MODEL 2
REMARK VINA RESULT:    -7.370      3.833      6.695
REMARK INTER + INTRA:          -9.847
REMARK INTER:                  -9.430
REMARK INTRA:                  -0.417
REMARK UNBOUND:                -0.538
REMARK  Name = 
REMARK  5 active torsions:
REMARK  status: ('A' for Active; 'I' for Inactive)
REMARK    1  A    between atoms: C_2  and  C_5
REMARK    2  A    between atoms: N_3  and  O_4
REMARK    3  A    between atoms: N_9  and  C_10
REMARK    4  A    between atoms: C_10  and  C_11
REMARK    5  A    between atoms: C_11  and  C_12
REMARK                            x       y       z     vdW  Elec       q    Type
REMARK                         _______ _______ _______ _____ _____    ______ ____
ROOT
ATOM      1  C   UNL     1      46.929   6.111  13.119  0.00  0.00    +0.000 A 
ATOM      2  C   UNL     1      46.297   5.069  13.784  0.00  0.00    +0.000 A 
ATOM      3  C   UNL     1      45.318   4.328  13.118  0.00  0.00    +0.000 A 
ATOM      4  C   UNL     1      45.030   4.603  11.782  0.00  0.00    +0.000 A 
ATOM      5  N   UNL     1      43.995   3.891  11.153  0.00  0.00    +0.000 N 
ATOM      6  N   UNL     1      45.656   5.604  11.123  0.00  0.00    +0.000 NA
ATOM      7  C   UNL     1      46.582   6.334  11.796  0.00  0.00    +0.000 A 
ATOM      8  H   UNL     1      43.879   2.981  11.583  0.00  0.00    +0.000 HD
ENDROOT
BRANCH   1  10
ATOM      9  O   UNL     1      49.100   6.505  13.946  0.00  0.00    +0.000 OA
ATOM     10  C   UNL     1      47.952   6.920  13.808  0.00  0.00    +0.000 C 
ATOM     11  N   UNL     1      47.538   8.128  14.326  0.00  0.00    +0.000 N 
ATOM     12  H   UNL     1      46.570   8.313  14.572  0.00  0.00    +0.000 HD
BRANCH  11  13
ATOM     13  O   UNL     1      48.506   8.802  15.108  0.00  0.00    +0.000 OA
ATOM     14  H   UNL     1      48.597   8.211  15.889  0.00  0.00    +0.000 HD
ENDBRANCH  11  13
ENDBRANCH   1  10
BRANCH   5  15
ATOM     15  C   UNL     1      44.141   3.788   9.694  0.00  0.00    +0.000 C 
BRANCH  15  16
ATOM     16  C   UNL     1      44.658   2.389   9.335  0.00  0.00    +0.000 C 
BRANCH  16  17
ATOM     17  C   UNL     1      45.699   2.394   8.242  0.00  0.00    +0.000 A 
ATOM     18  C   UNL     1      46.467   1.251   7.974  0.00  0.00    +0.000 A 
ATOM     19  C   UNL     1      47.406   1.253   6.941  0.00  0.00    +0.000 A 
ATOM     20  C   UNL     1      47.594   2.399   6.172  0.00  0.00    +0.000 A 
ATOM     21  C   UNL     1      46.851   3.546   6.440  0.00  0.00    +0.000 A 
ATOM     22  C   UNL     1      45.910   3.545   7.471  0.00  0.00    +0.000 A 
ENDBRANCH  16  17
ENDBRANCH  15  16
ENDBRANCH   5  15
TORSDOF 5
ENDMDL
MODEL 3
REMARK VINA RESULT:    -7.228      3.884      6.798
REMARK INTER + INTRA:          -9.667
REMARK INTER:                  -9.260
REMARK INTRA:                  -0.407
REMARK UNBOUND:                -0.538
REMARK  Name = 
REMARK  5 active torsions:
REMARK  status: ('A' for Active; 'I' for Inactive)
REMARK    1  A    between atoms: C_2  and  C_5
REMARK    2  A    between atoms: N_3  and  O_4
REMARK    3  A    between atoms: N_9  and  C_10
REMARK    4  A    between atoms: C_10  and  C_11
REMARK    5  A    between atoms: C_11  and  C_12
REMARK                            x       y       z     vdW  Elec       q    Type
REMARK                         _______ _______ _______ _____ _____    ______ ____
ROOT
ATOM      1  C   UNL     1      46.840   4.762  14.110  0.00  0.00    +0.000 A 
ATOM      2  C   UNL     1      46.799   6.029  13.544  0.00  0.00    +0.000 A 
ATOM      3  C   UNL     1      46.274   6.185  12.258  0.00  0.00    +0.000 A 
ATOM      4  C   UNL     1      45.747   5.083  11.587  0.00  0.00    +0.000 A 
ATOM      5  N   UNL     1      45.287   5.251  10.270  0.00  0.00    +0.000 N 
ATOM      6  N   UNL     1      45.767   3.851  12.141  0.00  0.00    +0.000 NA
ATOM      7  C   UNL     1      46.309   3.712  13.378  0.00  0.00    +0.000 A 
ATOM      8  H   UNL     1      44.983   6.207  10.120  0.00  0.00    +0.000 HD
ENDROOT
BRANCH   1  10
ATOM      9  O   UNL     1      48.412   5.181  15.815  0.00  0.00    +0.000 OA
ATOM     10  C   UNL     1      47.409   4.569  15.458  0.00  0.00    +0.000 C 
ATOM     11  N   UNL     1      46.789   3.637  16.262  0.00  0.00    +0.000 N 
ATOM     12  H   UNL     1      46.242   2.868  15.884  0.00  0.00    +0.000 HD
BRANCH  11  13
ATOM     13  O   UNL     1      47.452   3.372  17.484  0.00  0.00    +0.000 OA
ATOM     14  H   UNL     1      46.996   2.560  17.801  0.00  0.00    +0.000 HD
ENDBRANCH  11  13
ENDBRANCH   1  10
BRANCH   5  15
ATOM     15  C   UNL     1      44.255   4.284   9.870  0.00  0.00    +0.000 C 
BRANCH  15  16
ATOM     16  C   UNL     1      44.323   4.069   8.353  0.00  0.00    +0.000 C 
BRANCH  16  17
ATOM     17  C   UNL     1      45.450   3.161   7.923  0.00  0.00    +0.000 A 
ATOM     18  C   UNL     1      46.486   3.637   7.106  0.00  0.00    +0.000 A 
ATOM     19  C   UNL     1      47.541   2.800   6.738  0.00  0.00    +0.000 A 
ATOM     20  C   UNL     1      47.567   1.477   7.174  0.00  0.00    +0.000 A 
ATOM     21  C   UNL     1      46.535   0.988   7.971  0.00  0.00    +0.000 A 
ATOM     22  C   UNL     1      45.480   1.824   8.342  0.00  0.00    +0.000 A 
ENDBRANCH  16  17
ENDBRANCH  15  16
ENDBRANCH   5  15
TORSDOF 5
ENDMDL
MODEL 4
REMARK VINA RESULT:    -7.088      3.891      6.818
REMARK INTER + INTRA:          -9.491
REMARK INTER:                  -9.757
REMARK INTRA:                   0.266
REMARK UNBOUND:                -0.538
REMARK  Name = 
REMARK  5 active torsions:
REMARK  status: ('A' for Active; 'I' for Inactive)
REMARK    1  A    between atoms: C_2  and  C_5
REMARK    2  A    between atoms: N_3  and  O_4
REMARK    3  A    between atoms: N_9  and  C_10
REMARK    4  A    between atoms: C_10  and  C_11
REMARK    5  A    between atoms: C_11  and  C_12
REMARK                            x       y       z     vdW  Elec       q    Type
REMARK                         _______ _______ _______ _____ _____    ______ ____
ROOT
ATOM      1  C   UNL     1      45.296   6.967  12.320  0.00  0.00    +0.000 A 
ATOM      2  C   UNL     1      46.164   6.021  12.850  0.00  0.00    +0.000 A 
ATOM      3  C   UNL     1      45.972   4.672  12.545  0.00  0.00    +0.000 A 
ATOM      4  C   UNL     1      44.954   4.297  11.670  0.00  0.00    +0.000 A 
ATOM      5  N   UNL     1      44.737   2.930  11.432  0.00  0.00    +0.000 N 
ATOM      6  N   UNL     1      44.118   5.215  11.136  0.00  0.00    +0.000 NA
ATOM      7  C   UNL     1      44.299   6.519  11.468  0.00  0.00    +0.000 A 
ATOM      8  H   UNL     1      45.595   2.407  11.560  0.00  0.00    +0.000 HD
ENDROOT
BRANCH   1  10
ATOM      9  O   UNL     1      46.332   8.767  13.433  0.00  0.00    +0.000 OA
ATOM     10  C   UNL     1      45.467   8.396  12.644  0.00  0.00    +0.000 C 
ATOM     11  N   UNL     1      44.577   9.272  12.061  0.00  0.00    +0.000 N 
ATOM     12  H   UNL     1      43.655   8.983  11.745  0.00  0.00    +0.000 HD
BRANCH  11  13
ATOM     13  O   UNL     1      44.677  10.609  12.514  0.00  0.00    +0.000 OA
ATOM     14  H   UNL     1      45.354  10.988  11.909  0.00  0.00    +0.000 HD
ENDBRANCH  11  13
ENDBRANCH   1  10
BRANCH   5  15
ATOM     15  C   UNL     1      44.116   2.642  10.131  0.00  0.00    +0.000 C 
BRANCH  15  16
ATOM     16  C   UNL     1      44.717   3.569   9.067  0.00  0.00    +0.000 C 
BRANCH  16  17
ATOM     17  C   UNL     1      45.674   2.872   8.131  0.00  0.00    +0.000 A 
ATOM     18  C   UNL     1      46.200   3.536   7.013  0.00  0.00    +0.000 A 
ATOM     19  C   UNL     1      47.107   2.895   6.168  0.00  0.00    +0.000 A 
ATOM     20  C   UNL     1      47.492   1.580   6.427  0.00  0.00    +0.000 A 
ATOM     21  C   UNL     1      46.962   0.904   7.523  0.00  0.00    +0.000 A 
ATOM     22  C   UNL     1      46.056   1.545   8.369  0.00  0.00    +0.000 A 
ENDBRANCH  16  17
ENDBRANCH  15  16
ENDBRANCH   5  15
TORSDOF 5
ENDMDL
MODEL 5
REMARK VINA RESULT:    -6.330      5.267      7.861
REMARK INTER + INTRA:          -8.533
REMARK INTER:                  -8.211
REMARK INTRA:                  -0.322
REMARK UNBOUND:                -0.538
REMARK  Name = 
REMARK  5 active torsions:
REMARK  status: ('A' for Active; 'I' for Inactive)
REMARK    1  A    between atoms: C_2  and  C_5
REMARK    2  A    between atoms: N_3  and  O_4
REMARK    3  A    between atoms: N_9  and  C_10
REMARK    4  A    between atoms: C_10  and  C_11
REMARK    5  A    between atoms: C_11  and  C_12
REMARK                            x       y       z     vdW  Elec       q    Type
REMARK                         _______ _______ _______ _____ _____    ______ ____
ROOT
ATOM      1  C   UNL     1      48.129   4.794  16.644  0.00  0.00    +0.000 A 
ATOM      2  C   UNL     1      48.467   5.909  15.890  0.00  0.00    +0.000 A 
ATOM      3  C   UNL     1      47.918   6.061  14.614  0.00  0.00    +0.000 A 
ATOM      4  C   UNL     1      46.999   5.128  14.139  0.00  0.00    +0.000 A 
ATOM      5  N   UNL     1      46.513   5.265  12.828  0.00  0.00    +0.000 N 
ATOM      6  N   UNL     1      46.652   4.050  14.877  0.00  0.00    +0.000 NA
ATOM      7  C   UNL     1      47.218   3.901  16.102  0.00  0.00    +0.000 A 
ATOM      8  H   UNL     1      46.534   6.237  12.542  0.00  0.00    +0.000 HD
ENDROOT
BRANCH   1  10
ATOM      9  O   UNL     1      49.850   4.983  18.243  0.00  0.00    +0.000 OA
ATOM     10  C   UNL     1      48.711   4.600  17.987  0.00  0.00    +0.000 C 
ATOM     11  N   UNL     1      47.935   3.928  18.905  0.00  0.00    +0.000 N 
ATOM     12  H   UNL     1      47.200   3.282  18.630  0.00  0.00    +0.000 HD
BRANCH  11  13
ATOM     13  O   UNL     1      48.585   3.631  20.127  0.00  0.00    +0.000 OA
ATOM     14  H   UNL     1      48.161   4.261  20.752  0.00  0.00    +0.000 HD
ENDBRANCH  11  13
ENDBRANCH   1  10
BRANCH   5  15
ATOM     15  C   UNL     1      45.187   4.666  12.618  0.00  0.00    +0.000 C 
BRANCH  15  16
ATOM     16  C   UNL     1      44.606   5.177  11.293  0.00  0.00    +0.000 C 
BRANCH  16  17
ATOM     17  C   UNL     1      44.985   4.329  10.102  0.00  0.00    +0.000 A 
ATOM     18  C   UNL     1      45.697   4.877   9.026  0.00  0.00    +0.000 A 
ATOM     19  C   UNL     1      46.070   4.080   7.942  0.00  0.00    +0.000 A 
ATOM     20  C   UNL     1      45.728   2.729   7.919  0.00  0.00    +0.000 A 
ATOM     21  C   UNL     1      45.006   2.178   8.974  0.00  0.00    +0.000 A 
ATOM     22  C   UNL     1      44.633   2.973  10.058  0.00  0.00    +0.000 A 
ENDBRANCH  16  17
ENDBRANCH  15  16
ENDBRANCH   5  15
TORSDOF 5
ENDMDL
MODEL 6
REMARK VINA RESULT:    -6.270      4.556      6.128
REMARK INTER + INTRA:          -8.457
REMARK INTER:                  -8.184
REMARK INTRA:                  -0.273
REMARK UNBOUND:                -0.538
REMARK  Name = 
REMARK  5 active torsions:
REMARK  status: ('A' for Active; 'I' for Inactive)
REMARK    1  A    between atoms: C_2  and  C_5
REMARK    2  A    between atoms: N_3  and  O_4
REMARK    3  A    between atoms: N_9  and  C_10
REMARK    4  A    between atoms: C_10  and  C_11
REMARK    5  A    between atoms: C_11  and  C_12
REMARK                            x       y       z     vdW  Elec       q    Type
REMARK                         _______ _______ _______ _____ _____    ______ ____
ROOT
ATOM      1  C   UNL     1      45.303   4.871  11.594  0.00  0.00    +0.000 A 
ATOM      2  C   UNL     1      46.117   5.958  11.882  0.00  0.00    +0.000 A 
ATOM      3  C   UNL     1      46.761   6.020  13.120  0.00  0.00    +0.000 A 
ATOM      4  C   UNL     1      46.627   4.968  14.024  0.00  0.00    +0.000 A 
ATOM      5  N   UNL     1      47.229   5.083  15.288  0.00  0.00    +0.000 N 
ATOM      6  N   UNL     1      45.851   3.898  13.742  0.00  0.00    +0.000 NA
ATOM      7  C   UNL     1      45.208   3.869  12.547  0.00  0.00    +0.000 A 
ATOM      8  H   UNL     1      48.037   5.692  15.242  0.00  0.00    +0.000 HD
ENDROOT
BRANCH   1  10
ATOM      9  O   UNL     1      43.368   4.802  10.250  0.00  0.00    +0.000 OA
ATOM     10  C   UNL     1      44.596   4.793  10.302  0.00  0.00    +0.000 C 
ATOM     11  N   UNL     1      45.380   4.657   9.177  0.00  0.00    +0.000 N 
ATOM     12  H   UNL     1      46.316   4.264   9.208  0.00  0.00    +0.000 HD
BRANCH  11  13
ATOM     13  O   UNL     1      44.662   4.434   7.977  0.00  0.00    +0.000 OA
ATOM     14  H   UNL     1      45.378   4.210   7.340  0.00  0.00    +0.000 HD
ENDBRANCH  11  13
ENDBRANCH   1  10
BRANCH   5  15
ATOM     15  C   UNL     1      47.556   3.793  15.913  0.00  0.00    +0.000 C 
BRANCH  15  16
ATOM     16  C   UNL     1      48.193   4.043  17.286  0.00  0.00    +0.000 C 
BRANCH  16  17
ATOM     17  C   UNL     1      49.589   3.483  17.414  0.00  0.00    +0.000 A 
ATOM     18  C   UNL     1      50.659   4.299  17.809  0.00  0.00    +0.000 A 
ATOM     19  C   UNL     1      51.941   3.767  17.955  0.00  0.00    +0.000 A 
ATOM     20  C   UNL     1      52.169   2.417  17.698  0.00  0.00    +0.000 A 
ATOM     21  C   UNL     1      51.118   1.600  17.288  0.00  0.00    +0.000 A 
ATOM     22  C   UNL     1      49.836   2.130  17.144  0.00  0.00    +0.000 A 
ENDBRANCH  16  17
ENDBRANCH  15  16
ENDBRANCH   5  15
TORSDOF 5
ENDMDL
MODEL 7
REMARK VINA RESULT:    -6.212      4.599      7.149
REMARK INTER + INTRA:          -8.384
REMARK INTER:                  -8.330
REMARK INTRA:                  -0.053
REMARK UNBOUND:                -0.538
REMARK  Name = 
REMARK  5 active torsions:
REMARK  status: ('A' for Active; 'I' for Inactive)
REMARK    1  A    between atoms: C_2  and  C_5
REMARK    2  A    between atoms: N_3  and  O_4
REMARK    3  A    between atoms: N_9  and  C_10
REMARK    4  A    between atoms: C_10  and  C_11
REMARK    5  A    between atoms: C_11  and  C_12
REMARK                            x       y       z     vdW  Elec       q    Type
REMARK                         _______ _______ _______ _____ _____    ______ ____
ROOT
ATOM      1  C   UNL     1      47.851   5.566  15.062  0.00  0.00    +0.000 A 
ATOM      2  C   UNL     1      47.931   6.415  13.967  0.00  0.00    +0.000 A 
ATOM      3  C   UNL     1      47.194   6.119  12.818  0.00  0.00    +0.000 A 
ATOM      4  C   UNL     1      46.346   5.013  12.805  0.00  0.00    +0.000 A 
ATOM      5  N   UNL     1      45.668   4.696  11.616  0.00  0.00    +0.000 N 
ATOM      6  N   UNL     1      46.250   4.193  13.875  0.00  0.00    +0.000 NA
ATOM      7  C   UNL     1      46.997   4.478  14.972  0.00  0.00    +0.000 A 
ATOM      8  H   UNL     1      45.522   5.529  11.058  0.00  0.00    +0.000 HD
ENDROOT
BRANCH   1  10
ATOM      9  O   UNL     1      49.857   5.973  16.230  0.00  0.00    +0.000 OA
ATOM     10  C   UNL     1      48.636   5.847  16.280  0.00  0.00    +0.000 C 
ATOM     11  N   UNL     1      47.936   5.905  17.465  0.00  0.00    +0.000 N 
ATOM     12  H   UNL     1      47.045   5.436  17.597  0.00  0.00    +0.000 HD
BRANCH  11  13
ATOM     13  O   UNL     1      48.741   6.025  18.624  0.00  0.00    +0.000 OA
ATOM     14  H   UNL     1      49.634   5.789  18.287  0.00  0.00    +0.000 HD
ENDBRANCH  11  13
ENDBRANCH   1  10
BRANCH   5  15
ATOM     15  C   UNL     1      44.414   3.956  11.824  0.00  0.00    +0.000 C 
BRANCH  15  16
ATOM     16  C   UNL     1      43.787   3.631  10.462  0.00  0.00    +0.000 C 
BRANCH  16  17
ATOM     17  C   UNL     1      44.802   3.296   9.396  0.00  0.00    +0.000 A 
ATOM     18  C   UNL     1      45.226   1.974   9.196  0.00  0.00    +0.000 A 
ATOM     19  C   UNL     1      46.142   1.668   8.188  0.00  0.00    +0.000 A 
ATOM     20  C   UNL     1      46.651   2.679   7.376  0.00  0.00    +0.000 A 
ATOM     21  C   UNL     1      46.251   3.998   7.577  0.00  0.00    +0.000 A 
ATOM     22  C   UNL     1      45.334   4.306   8.583  0.00  0.00    +0.000 A 
ENDBRANCH  16  17
ENDBRANCH  15  16
ENDBRANCH   5  15
TORSDOF 5
ENDMDL
MODEL 8
REMARK VINA RESULT:    -6.208      1.932      2.818
REMARK INTER + INTRA:          -8.379
REMARK INTER:                  -8.163
REMARK INTRA:                  -0.217
REMARK UNBOUND:                -0.538
REMARK  Name = 
REMARK  5 active torsions:
REMARK  status: ('A' for Active; 'I' for Inactive)
REMARK    1  A    between atoms: C_2  and  C_5
REMARK    2  A    between atoms: N_3  and  O_4
REMARK    3  A    between atoms: N_9  and  C_10
REMARK    4  A    between atoms: C_10  and  C_11
REMARK    5  A    between atoms: C_11  and  C_12
REMARK                            x       y       z     vdW  Elec       q    Type
REMARK                         _______ _______ _______ _____ _____    ______ ____
ROOT
ATOM      1  C   UNL     1      46.085   2.703   7.895  0.00  0.00    +0.000 A 
ATOM      2  C   UNL     1      45.247   1.871   8.624  0.00  0.00    +0.000 A 
ATOM      3  C   UNL     1      44.519   2.402   9.692  0.00  0.00    +0.000 A 
ATOM      4  C   UNL     1      44.597   3.764   9.975  0.00  0.00    +0.000 A 
ATOM      5  N   UNL     1      43.910   4.262  11.094  0.00  0.00    +0.000 N 
ATOM      6  N   UNL     1      45.397   4.583   9.256  0.00  0.00    +0.000 NA
ATOM      7  C   UNL     1      46.121   4.044   8.241  0.00  0.00    +0.000 A 
ATOM      8  H   UNL     1      43.103   3.685  11.300  0.00  0.00    +0.000 HD
ENDROOT
BRANCH   1  10
ATOM      9  O   UNL     1      47.111   0.958   6.687  0.00  0.00    +0.000 OA
ATOM     10  C   UNL     1      46.879   2.162   6.775  0.00  0.00    +0.000 C 
ATOM     11  N   UNL     1      47.384   3.077   5.877  0.00  0.00    +0.000 N 
ATOM     12  H   UNL     1      47.547   4.049   6.122  0.00  0.00    +0.000 HD
BRANCH  11  13
ATOM     13  O   UNL     1      48.263   2.535   4.909  0.00  0.00    +0.000 OA
ATOM     14  H   UNL     1      47.810   2.755   4.064  0.00  0.00    +0.000 HD
ENDBRANCH  11  13
ENDBRANCH   1  10
BRANCH   5  15
ATOM     15  C   UNL     1      43.548   5.683  10.989  0.00  0.00    +0.000 C 
BRANCH  15  16
ATOM     16  C   UNL     1      44.517   6.517  11.838  0.00  0.00    +0.000 C 
BRANCH  16  17
ATOM     17  C   UNL     1      44.358   8.006  11.647  0.00  0.00    +0.000 A 
ATOM     18  C   UNL     1      45.283   8.905  12.197  0.00  0.00    +0.000 A 
ATOM     19  C   UNL     1      45.146  10.279  11.990  0.00  0.00    +0.000 A 
ATOM     20  C   UNL     1      44.079  10.769  11.240  0.00  0.00    +0.000 A 
ATOM     21  C   UNL     1      43.144   9.887  10.704  0.00  0.00    +0.000 A 
ATOM     22  C   UNL     1      43.280   8.513  10.908  0.00  0.00    +0.000 A 
ENDBRANCH  16  17
ENDBRANCH  15  16
ENDBRANCH   5  15
TORSDOF 5
ENDMDL
MODEL 9
REMARK VINA RESULT:    -5.866      3.982      6.024
REMARK INTER + INTRA:          -7.947
REMARK INTER:                  -7.565
REMARK INTRA:                  -0.383
REMARK UNBOUND:                -0.538
REMARK  Name = 
REMARK  5 active torsions:
REMARK  status: ('A' for Active; 'I' for Inactive)
REMARK    1  A    between atoms: C_2  and  C_5
REMARK    2  A    between atoms: N_3  and  O_4
REMARK    3  A    between atoms: N_9  and  C_10
REMARK    4  A    between atoms: C_10  and  C_11
REMARK    5  A    between atoms: C_11  and  C_12
REMARK                            x       y       z     vdW  Elec       q    Type
REMARK                         _______ _______ _______ _____ _____    ______ ____
ROOT
ATOM      1  C   UNL     1      45.082   4.667  12.214  0.00  0.00    +0.000 A 
ATOM      2  C   UNL     1      44.994   6.021  11.918  0.00  0.00    +0.000 A 
ATOM      3  C   UNL     1      45.835   6.920  12.577  0.00  0.00    +0.000 A 
ATOM      4  C   UNL     1      46.788   6.445  13.477  0.00  0.00    +0.000 A 
ATOM      5  N   UNL     1      47.576   7.373  14.178  0.00  0.00    +0.000 N 
ATOM      6  N   UNL     1      46.891   5.127  13.755  0.00  0.00    +0.000 NA
ATOM      7  C   UNL     1      46.044   4.270  13.129  0.00  0.00    +0.000 A 
ATOM      8  H   UNL     1      47.677   8.228  13.644  0.00  0.00    +0.000 HD
ENDROOT
BRANCH   1  10
ATOM      9  O   UNL     1      43.718   3.937  10.436  0.00  0.00    +0.000 OA
ATOM     10  C   UNL     1      44.190   3.701  11.546  0.00  0.00    +0.000 C 
ATOM     11  N   UNL     1      43.878   2.558  12.251  0.00  0.00    +0.000 N 
ATOM     12  H   UNL     1      43.918   2.515  13.265  0.00  0.00    +0.000 HD
BRANCH  11  13
ATOM     13  O   UNL     1      42.904   1.732  11.641  0.00  0.00    +0.000 OA
ATOM     14  H   UNL     1      43.285   1.579  10.748  0.00  0.00    +0.000 HD
ENDBRANCH  11  13
ENDBRANCH   1  10
BRANCH   5  15
ATOM     15  C   UNL     1      48.880   6.845  14.607  0.00  0.00    +0.000 C 
BRANCH  15  16
ATOM     16  C   UNL     1      48.939   6.826  16.140  0.00  0.00    +0.000 C 
BRANCH  16  17
ATOM     17  C   UNL     1      49.111   5.442  16.719  0.00  0.00    +0.000 A 
ATOM     18  C   UNL     1      50.372   4.986  17.130  0.00  0.00    +0.000 A 
ATOM     19  C   UNL     1      50.519   3.717  17.692  0.00  0.00    +0.000 A 
ATOM     20  C   UNL     1      49.409   2.887  17.841  0.00  0.00    +0.000 A 
ATOM     21  C   UNL     1      48.155   3.322  17.420  0.00  0.00    +0.000 A 
ATOM     22  C   UNL     1      48.007   4.591  16.859  0.00  0.00    +0.000 A 
ENDBRANCH  16  17
ENDBRANCH  15  16
ENDBRANCH   5  15
TORSDOF 5
ENDMDL
