MODEL 1
REMARK VINA RESULT:    -8.961      0.000      0.000
REMARK INTER + INTRA:         -13.193
REMARK INTER:                 -12.104
REMARK INTRA:                  -1.089
REMARK UNBOUND:                -1.089
REMARK  Name = 
REMARK  7 active torsions:
REMARK  status: ('A' for Active; 'I' for Inactive)
REMARK    1  A    between atoms: C_1  and  C_2
REMARK    2  A    between atoms: C_4  and  C_5
REMARK    3  A    between atoms: C_10  and  N_11
REMARK    4  A    between atoms: N_11  and  C_12
REMARK    5  A    between atoms: C_12  and  C_13
REMARK    6  A    between atoms: C_18  and  C_19
REMARK    7  A    between atoms: C_23  and  C_24
REMARK                            x       y       z     vdW  Elec       q    Type
REMARK                         _______ _______ _______ _____ _____    ______ ____
ROOT
ATOM      1  C   UNL     1      45.148   5.468  11.943  0.00  0.00    +0.000 A 
ATOM      2  C   UNL     1      45.446   4.597  12.993  0.00  0.00    +0.000 A 
ATOM      3  C   UNL     1      46.612   4.776  13.722  0.00  0.00    +0.000 A 
ATOM      4  F   UNL     1      46.872   3.962  14.751  0.00  0.00    +0.000 F 
ATOM      5  C   UNL     1      47.505   5.798  13.414  0.00  0.00    +0.000 A 
ATOM      6  C   UNL     1      47.248   6.687  12.359  0.00  0.00    +0.000 A 
ATOM      7  C   UNL     1      46.052   6.500  11.636  0.00  0.00    +0.000 A 
ENDROOT
BRANCH   6   8
ATOM      8  C   UNL     1      48.188   7.774  12.016  0.00  0.00    +0.000 A 
ATOM      9  C   UNL     1      47.828   9.123  12.040  0.00  0.00    +0.000 A 
ATOM     10  N   UNL     1      48.656  10.156  11.750  0.00  0.00    +0.000 NA
ATOM     11  C   UNL     1      49.925   9.846  11.408  0.00  0.00    +0.000 A 
ATOM     12  C   UNL     1      50.405   8.551  11.338  0.00  0.00    +0.000 A 
ATOM     13  C   UNL     1      49.517   7.512  11.652  0.00  0.00    +0.000 A 
BRANCH  12  14
ATOM     14  C   UNL     1      51.819   8.266  10.949  0.00  0.00    +0.000 C 
ATOM     15  F   UNL     1      52.643   8.036  12.007  0.00  0.00    +0.000 F 
ATOM     16  F   UNL     1      51.928   7.171  10.148  0.00  0.00    +0.000 F 
ATOM     17  F   UNL     1      52.381   9.293  10.254  0.00  0.00    +0.000 F 
ENDBRANCH  12  14
ENDBRANCH   6   8
BRANCH   1  18
ATOM     18  C   UNL     1      43.826   5.364  11.229  0.00  0.00    +0.000 C 
BRANCH  18  19
ATOM     19  N   UNL     1      43.952   5.127   9.820  0.00  0.00    +0.000 N 
ATOM     20  H   UNL     1      43.476   5.732   9.158  0.00  0.00    +0.000 HD
BRANCH  19  27
ATOM     21  C   UNL     1      43.901   2.123  10.554  0.00  0.00    +0.000 C 
ATOM     22  C   UNL     1      44.737   2.798   9.506  0.00  0.00    +0.000 A 
ATOM     23  C   UNL     1      45.608   1.965   8.779  0.00  0.00    +0.000 A 
ATOM     24  C   UNL     1      46.445   2.477   7.793  0.00  0.00    +0.000 A 
ATOM     25  C   UNL     1      46.373   3.839   7.577  0.00  0.00    +0.000 A 
ATOM     26  N   UNL     1      45.549   4.677   8.263  0.00  0.00    +0.000 NA
ATOM     27  C   UNL     1      44.731   4.173   9.220  0.00  0.00    +0.000 A 
BRANCH  24  28
ATOM     28  C   UNL     1      47.332   1.544   7.067  0.00  0.00    +0.000 C 
ATOM     29  N   UNL     1      48.456   2.020   6.453  0.00  0.00    +0.000 N 
ATOM     30  O   UNL     1      47.075   0.344   6.997  0.00  0.00    +0.000 OA
ATOM     31  H   UNL     1      48.762   2.981   6.440  0.00  0.00    +0.000 HD
ATOM     32  H   UNL     1      49.026   1.341   5.968  0.00  0.00    +0.000 HD
ENDBRANCH  24  28
ENDBRANCH  19  27
ENDBRANCH  18  19
ENDBRANCH   1  18
TORSDOF 6
ENDMDL
MODEL 2
REMARK VINA RESULT:    -8.752      2.726      4.976
REMARK INTER + INTRA:         -12.911
REMARK INTER:                 -11.949
REMARK INTRA:                  -0.961
REMARK UNBOUND:                -1.089
REMARK  Name = 
REMARK  7 active torsions:
REMARK  status: ('A' for Active; 'I' for Inactive)
REMARK    1  A    between atoms: C_1  and  C_2
REMARK    2  A    between atoms: C_4  and  C_5
REMARK    3  A    between atoms: C_10  and  N_11
REMARK    4  A    between atoms: N_11  and  C_12
REMARK    5  A    between atoms: C_12  and  C_13
REMARK    6  A    between atoms: C_18  and  C_19
REMARK    7  A    between atoms: C_23  and  C_24
REMARK                            x       y       z     vdW  Elec       q    Type
REMARK                         _______ _______ _______ _____ _____    ______ ____
ROOT
ATOM      1  C   UNL     1      45.193   5.762  11.883  0.00  0.00    +0.000 A 
ATOM      2  C   UNL     1      46.024   6.737  11.328  0.00  0.00    +0.000 A 
ATOM      3  C   UNL     1      47.268   6.979  11.893  0.00  0.00    +0.000 A 
ATOM      4  F   UNL     1      48.076   7.887  11.333  0.00  0.00    +0.000 F 
ATOM      5  C   UNL     1      47.697   6.282  13.018  0.00  0.00    +0.000 A 
ATOM      6  C   UNL     1      46.886   5.302  13.612  0.00  0.00    +0.000 A 
ATOM      7  C   UNL     1      45.631   5.058  13.018  0.00  0.00    +0.000 A 
ENDROOT
BRANCH   6   8
ATOM      8  C   UNL     1      47.324   4.557  14.809  0.00  0.00    +0.000 A 
ATOM      9  C   UNL     1      47.605   3.189  14.790  0.00  0.00    +0.000 A 
ATOM     10  N   UNL     1      48.025   2.463  15.856  0.00  0.00    +0.000 NA
ATOM     11  C   UNL     1      48.176   3.124  17.024  0.00  0.00    +0.000 A 
ATOM     12  C   UNL     1      47.924   4.475  17.179  0.00  0.00    +0.000 A 
ATOM     13  C   UNL     1      47.497   5.189  16.050  0.00  0.00    +0.000 A 
BRANCH  12  14
ATOM     14  C   UNL     1      48.104   5.152  18.498  0.00  0.00    +0.000 C 
ATOM     15  F   UNL     1      46.937   5.539  19.080  0.00  0.00    +0.000 F 
ATOM     16  F   UNL     1      48.728   4.357  19.410  0.00  0.00    +0.000 F 
ATOM     17  F   UNL     1      48.866   6.276  18.403  0.00  0.00    +0.000 F 
ENDBRANCH  12  14
ENDBRANCH   6   8
BRANCH   1  18
ATOM     18  C   UNL     1      43.898   5.400  11.204  0.00  0.00    +0.000 C 
BRANCH  18  19
ATOM     19  N   UNL     1      44.032   5.168   9.796  0.00  0.00    +0.000 N 
ATOM     20  H   UNL     1      43.580   5.788   9.132  0.00  0.00    +0.000 HD
BRANCH  19  27
ATOM     21  C   UNL     1      43.953   2.173  10.569  0.00  0.00    +0.000 C 
ATOM     22  C   UNL     1      44.785   2.825   9.503  0.00  0.00    +0.000 A 
ATOM     23  C   UNL     1      45.637   1.972   8.776  0.00  0.00    +0.000 A 
ATOM     24  C   UNL     1      46.468   2.461   7.774  0.00  0.00    +0.000 A 
ATOM     25  C   UNL     1      46.411   3.821   7.541  0.00  0.00    +0.000 A 
ATOM     26  N   UNL     1      45.605   4.678   8.226  0.00  0.00    +0.000 NA
ATOM     27  C   UNL     1      44.793   4.196   9.199  0.00  0.00    +0.000 A 
BRANCH  24  28
ATOM     28  C   UNL     1      47.335   1.508   7.049  0.00  0.00    +0.000 C 
ATOM     29  N   UNL     1      48.422   1.970   6.363  0.00  0.00    +0.000 N 
ATOM     30  O   UNL     1      47.093   0.302   7.045  0.00  0.00    +0.000 OA
ATOM     31  H   UNL     1      48.712   2.933   6.293  0.00  0.00    +0.000 HD
ATOM     32  H   UNL     1      48.979   1.277   5.883  0.00  0.00    +0.000 HD
ENDBRANCH  24  28
ENDBRANCH  19  27
ENDBRANCH  18  19
ENDBRANCH   1  18
TORSDOF 6
ENDMDL
MODEL 3
REMARK VINA RESULT:    -8.320      2.547      4.947
REMARK INTER + INTRA:         -12.327
REMARK INTER:                 -11.553
REMARK INTRA:                  -0.775
REMARK UNBOUND:                -1.089
REMARK  Name = 
REMARK  7 active torsions:
REMARK  status: ('A' for Active; 'I' for Inactive)
REMARK    1  A    between atoms: C_1  and  C_2
REMARK    2  A    between atoms: C_4  and  C_5
REMARK    3  A    between atoms: C_10  and  N_11
REMARK    4  A    between atoms: N_11  and  C_12
REMARK    5  A    between atoms: C_12  and  C_13
REMARK    6  A    between atoms: C_18  and  C_19
REMARK    7  A    between atoms: C_23  and  C_24
REMARK                            x       y       z     vdW  Elec       q    Type
REMARK                         _______ _______ _______ _____ _____    ______ ____
ROOT
ATOM      1  C   UNL     1      46.011   6.302  12.011  0.00  0.00    +0.000 A 
ATOM      2  C   UNL     1      46.909   6.985  11.190  0.00  0.00    +0.000 A 
ATOM      3  C   UNL     1      48.173   7.296  11.666  0.00  0.00    +0.000 A 
ATOM      4  F   UNL     1      49.044   7.915  10.860  0.00  0.00    +0.000 F 
ATOM      5  C   UNL     1      48.560   6.959  12.959  0.00  0.00    +0.000 A 
ATOM      6  C   UNL     1      47.682   6.282  13.821  0.00  0.00    +0.000 A 
ATOM      7  C   UNL     1      46.405   5.961  13.317  0.00  0.00    +0.000 A 
ENDROOT
BRANCH   6   8
ATOM      8  C   UNL     1      48.075   5.921  15.198  0.00  0.00    +0.000 A 
ATOM      9  C   UNL     1      48.726   6.808  16.058  0.00  0.00    +0.000 A 
ATOM     10  N   UNL     1      49.093   6.530  17.334  0.00  0.00    +0.000 NA
ATOM     11  C   UNL     1      48.805   5.296  17.798  0.00  0.00    +0.000 A 
ATOM     12  C   UNL     1      48.172   4.323  17.046  0.00  0.00    +0.000 A 
ATOM     13  C   UNL     1      47.804   4.653  15.734  0.00  0.00    +0.000 A 
BRANCH  12  14
ATOM     14  C   UNL     1      47.882   2.970  17.612  0.00  0.00    +0.000 C 
ATOM     15  F   UNL     1      48.267   2.825  18.909  0.00  0.00    +0.000 F 
ATOM     16  F   UNL     1      46.555   2.667  17.581  0.00  0.00    +0.000 F 
ATOM     17  F   UNL     1      48.506   1.976  16.922  0.00  0.00    +0.000 F 
ENDBRANCH  12  14
ENDBRANCH   6   8
BRANCH   1  18
ATOM     18  C   UNL     1      44.684   5.845  11.464  0.00  0.00    +0.000 C 
BRANCH  18  19
ATOM     19  N   UNL     1      44.704   5.584  10.054  0.00  0.00    +0.000 N 
ATOM     20  H   UNL     1      44.394   6.296   9.401  0.00  0.00    +0.000 HD
BRANCH  19  27
ATOM     21  C   UNL     1      44.003   2.702  10.935  0.00  0.00    +0.000 C 
ATOM     22  C   UNL     1      44.880   3.125   9.793  0.00  0.00    +0.000 A 
ATOM     23  C   UNL     1      45.459   2.087   9.040  0.00  0.00    +0.000 A 
ATOM     24  C   UNL     1      46.303   2.353   7.967  0.00  0.00    +0.000 A 
ATOM     25  C   UNL     1      46.538   3.686   7.691  0.00  0.00    +0.000 A 
ATOM     26  N   UNL     1      46.003   4.717   8.399  0.00  0.00    +0.000 NA
ATOM     27  C   UNL     1      45.177   4.453   9.441  0.00  0.00    +0.000 A 
BRANCH  24  28
ATOM     28  C   UNL     1      46.873   1.214   7.219  0.00  0.00    +0.000 C 
ATOM     29  N   UNL     1      46.700  -0.057   7.689  0.00  0.00    +0.000 N 
ATOM     30  O   UNL     1      47.510   1.387   6.181  0.00  0.00    +0.000 OA
ATOM     31  H   UNL     1      46.204  -0.317   8.526  0.00  0.00    +0.000 HD
ATOM     32  H   UNL     1      47.113  -0.800   7.140  0.00  0.00    +0.000 HD
ENDBRANCH  24  28
ENDBRANCH  19  27
ENDBRANCH  18  19
ENDBRANCH   1  18
TORSDOF 6
ENDMDL
MODEL 4
REMARK VINA RESULT:    -8.061      4.409      7.627
REMARK INTER + INTRA:         -11.978
REMARK INTER:                 -11.119
REMARK INTRA:                  -0.859
REMARK UNBOUND:                -1.089
REMARK  Name = 
REMARK  7 active torsions:
REMARK  status: ('A' for Active; 'I' for Inactive)
REMARK    1  A    between atoms: C_1  and  C_2
REMARK    2  A    between atoms: C_4  and  C_5
REMARK    3  A    between atoms: C_10  and  N_11
REMARK    4  A    between atoms: N_11  and  C_12
REMARK    5  A    between atoms: C_12  and  C_13
REMARK    6  A    between atoms: C_18  and  C_19
REMARK    7  A    between atoms: C_23  and  C_24
REMARK                            x       y       z     vdW  Elec       q    Type
REMARK                         _______ _______ _______ _____ _____    ______ ____
ROOT
ATOM      1  C   UNL     1      45.420   6.586  11.558  0.00  0.00    +0.000 A 
ATOM      2  C   UNL     1      44.073   6.717  11.900  0.00  0.00    +0.000 A 
ATOM      3  C   UNL     1      43.149   5.808  11.408  0.00  0.00    +0.000 A 
ATOM      4  F   UNL     1      41.865   5.917  11.770  0.00  0.00    +0.000 F 
ATOM      5  C   UNL     1      43.534   4.775  10.559  0.00  0.00    +0.000 A 
ATOM      6  C   UNL     1      44.877   4.615  10.182  0.00  0.00    +0.000 A 
ATOM      7  C   UNL     1      45.807   5.539  10.702  0.00  0.00    +0.000 A 
ENDROOT
BRANCH   6   8
ATOM      8  C   UNL     1      45.303   3.528   9.278  0.00  0.00    +0.000 A 
ATOM      9  C   UNL     1      45.115   2.177   9.577  0.00  0.00    +0.000 A 
ATOM     10  N   UNL     1      45.473   1.143   8.776  0.00  0.00    +0.000 NA
ATOM     11  C   UNL     1      46.060   1.455   7.601  0.00  0.00    +0.000 A 
ATOM     12  C   UNL     1      46.312   2.751   7.190  0.00  0.00    +0.000 A 
ATOM     13  C   UNL     1      45.921   3.791   8.046  0.00  0.00    +0.000 A 
BRANCH  12  14
ATOM     14  C   UNL     1      46.970   3.037   5.880  0.00  0.00    +0.000 C 
ATOM     15  F   UNL     1      46.342   2.469   4.815  0.00  0.00    +0.000 F 
ATOM     16  F   UNL     1      47.031   4.370   5.608  0.00  0.00    +0.000 F 
ATOM     17  F   UNL     1      48.256   2.591   5.838  0.00  0.00    +0.000 F 
ENDBRANCH  12  14
ENDBRANCH   6   8
BRANCH   1  18
ATOM     18  C   UNL     1      46.450   7.486  12.187  0.00  0.00    +0.000 C 
BRANCH  18  19
ATOM     19  N   UNL     1      47.608   6.789  12.665  0.00  0.00    +0.000 N 
ATOM     20  H   UNL     1      48.460   6.779  12.113  0.00  0.00    +0.000 HD
BRANCH  19  27
ATOM     21  C   UNL     1      49.138   7.949  15.090  0.00  0.00    +0.000 C 
ATOM     22  C   UNL     1      48.408   6.641  15.006  0.00  0.00    +0.000 A 
ATOM     23  C   UNL     1      48.430   5.844  16.166  0.00  0.00    +0.000 A 
ATOM     24  C   UNL     1      47.802   4.604  16.206  0.00  0.00    +0.000 A 
ATOM     25  C   UNL     1      47.166   4.204  15.047  0.00  0.00    +0.000 A 
ATOM     26  N   UNL     1      47.128   4.942  13.905  0.00  0.00    +0.000 NA
ATOM     27  C   UNL     1      47.737   6.153  13.872  0.00  0.00    +0.000 A 
BRANCH  24  28
ATOM     28  C   UNL     1      47.864   3.822  17.459  0.00  0.00    +0.000 C 
ATOM     29  N   UNL     1      46.951   2.830  17.681  0.00  0.00    +0.000 N 
ATOM     30  O   UNL     1      48.719   4.051  18.312  0.00  0.00    +0.000 OA
ATOM     31  H   UNL     1      46.207   2.560  17.058  0.00  0.00    +0.000 HD
ATOM     32  H   UNL     1      47.037   2.329  18.555  0.00  0.00    +0.000 HD
ENDBRANCH  24  28
ENDBRANCH  19  27
ENDBRANCH  18  19
ENDBRANCH   1  18
TORSDOF 6
ENDMDL
MODEL 5
REMARK VINA RESULT:    -8.022      4.538      7.656
REMARK INTER + INTRA:         -11.925
REMARK INTER:                 -11.132
REMARK INTRA:                  -0.794
REMARK UNBOUND:                -1.089
REMARK  Name = 
REMARK  7 active torsions:
REMARK  status: ('A' for Active; 'I' for Inactive)
REMARK    1  A    between atoms: C_1  and  C_2
REMARK    2  A    between atoms: C_4  and  C_5
REMARK    3  A    between atoms: C_10  and  N_11
REMARK    4  A    between atoms: N_11  and  C_12
REMARK    5  A    between atoms: C_12  and  C_13
REMARK    6  A    between atoms: C_18  and  C_19
REMARK    7  A    between atoms: C_23  and  C_24
REMARK                            x       y       z     vdW  Elec       q    Type
REMARK                         _______ _______ _______ _____ _____    ______ ____
ROOT
ATOM      1  C   UNL     1      46.808   8.324  12.805  0.00  0.00    +0.000 A 
ATOM      2  C   UNL     1      45.985   9.437  12.619  0.00  0.00    +0.000 A 
ATOM      3  C   UNL     1      44.829   9.315  11.862  0.00  0.00    +0.000 A 
ATOM      4  F   UNL     1      44.025  10.375  11.720  0.00  0.00    +0.000 F 
ATOM      5  C   UNL     1      44.482   8.108  11.264  0.00  0.00    +0.000 A 
ATOM      6  C   UNL     1      45.288   6.969  11.417  0.00  0.00    +0.000 A 
ATOM      7  C   UNL     1      46.452   7.105  12.200  0.00  0.00    +0.000 A 
ENDROOT
BRANCH   6   8
ATOM      8  C   UNL     1      44.937   5.682  10.785  0.00  0.00    +0.000 A 
ATOM      9  C   UNL     1      43.905   4.865  11.251  0.00  0.00    +0.000 A 
ATOM     10  N   UNL     1      43.534   3.684  10.698  0.00  0.00    +0.000 NA
ATOM     11  C   UNL     1      44.225   3.273   9.614  0.00  0.00    +0.000 A 
ATOM     12  C   UNL     1      45.273   3.983   9.058  0.00  0.00    +0.000 A 
ATOM     13  C   UNL     1      45.621   5.202   9.657  0.00  0.00    +0.000 A 
BRANCH  12  14
ATOM     14  C   UNL     1      46.006   3.476   7.858  0.00  0.00    +0.000 C 
ATOM     15  F   UNL     1      47.025   4.283   7.457  0.00  0.00    +0.000 F 
ATOM     16  F   UNL     1      46.561   2.251   8.068  0.00  0.00    +0.000 F 
ATOM     17  F   UNL     1      45.192   3.334   6.777  0.00  0.00    +0.000 F 
ENDBRANCH  12  14
ENDBRANCH   6   8
BRANCH   1  18
ATOM     18  C   UNL     1      47.994   8.409  13.728  0.00  0.00    +0.000 C 
BRANCH  18  19
ATOM     19  N   UNL     1      48.670   7.157  13.912  0.00  0.00    +0.000 N 
ATOM     20  H   UNL     1      49.411   6.881  13.278  0.00  0.00    +0.000 HD
BRANCH  19  27
ATOM     21  C   UNL     1      49.961   7.408  16.712  0.00  0.00    +0.000 C 
ATOM     22  C   UNL     1      49.023   6.342  16.227  0.00  0.00    +0.000 A 
ATOM     23  C   UNL     1      48.700   5.333  17.153  0.00  0.00    +0.000 A 
ATOM     24  C   UNL     1      47.853   4.283  16.815  0.00  0.00    +0.000 A 
ATOM     25  C   UNL     1      47.356   4.289  15.526  0.00  0.00    +0.000 A 
ATOM     26  N   UNL     1      47.649   5.243  14.601  0.00  0.00    +0.000 NA
ATOM     27  C   UNL     1      48.472   6.268  14.936  0.00  0.00    +0.000 A 
BRANCH  24  28
ATOM     28  C   UNL     1      47.555   3.260  17.838  0.00  0.00    +0.000 C 
ATOM     29  N   UNL     1      48.315   3.197  18.972  0.00  0.00    +0.000 N 
ATOM     30  O   UNL     1      46.638   2.454  17.687  0.00  0.00    +0.000 OA
ATOM     31  H   UNL     1      49.091   3.799  19.199  0.00  0.00    +0.000 HD
ATOM     32  H   UNL     1      48.071   2.477  19.638  0.00  0.00    +0.000 HD
ENDBRANCH  24  28
ENDBRANCH  19  27
ENDBRANCH  18  19
ENDBRANCH   1  18
TORSDOF 6
ENDMDL
MODEL 6
REMARK VINA RESULT:    -7.798      5.207      8.143
REMARK INTER + INTRA:         -11.623
REMARK INTER:                 -10.577
REMARK INTRA:                  -1.046
REMARK UNBOUND:                -1.089
REMARK  Name = 
REMARK  7 active torsions:
REMARK  status: ('A' for Active; 'I' for Inactive)
REMARK    1  A    between atoms: C_1  and  C_2
REMARK    2  A    between atoms: C_4  and  C_5
REMARK    3  A    between atoms: C_10  and  N_11
REMARK    4  A    between atoms: N_11  and  C_12
REMARK    5  A    between atoms: C_12  and  C_13
REMARK    6  A    between atoms: C_18  and  C_19
REMARK    7  A    between atoms: C_23  and  C_24
REMARK                            x       y       z     vdW  Elec       q    Type
REMARK                         _______ _______ _______ _____ _____    ______ ____
ROOT
ATOM      1  C   UNL     1      48.529   7.044  14.578  0.00  0.00    +0.000 A 
ATOM      2  C   UNL     1      49.071   7.932  13.647  0.00  0.00    +0.000 A 
ATOM      3  C   UNL     1      48.601   7.928  12.343  0.00  0.00    +0.000 A 
ATOM      4  F   UNL     1      49.097   8.808  11.465  0.00  0.00    +0.000 F 
ATOM      5  C   UNL     1      47.611   7.039  11.935  0.00  0.00    +0.000 A 
ATOM      6  C   UNL     1      47.049   6.122  12.838  0.00  0.00    +0.000 A 
ATOM      7  C   UNL     1      47.527   6.148  14.164  0.00  0.00    +0.000 A 
ENDROOT
BRANCH   6   8
ATOM      8  C   UNL     1      46.001   5.169  12.420  0.00  0.00    +0.000 A 
ATOM      9  C   UNL     1      45.116   4.572  13.321  0.00  0.00    +0.000 A 
ATOM     10  N   UNL     1      44.129   3.705  12.987  0.00  0.00    +0.000 NA
ATOM     11  C   UNL     1      44.003   3.397  11.679  0.00  0.00    +0.000 A 
ATOM     12  C   UNL     1      44.820   3.911  10.688  0.00  0.00    +0.000 A 
ATOM     13  C   UNL     1      45.824   4.809  11.075  0.00  0.00    +0.000 A 
BRANCH  12  14
ATOM     14  C   UNL     1      44.636   3.530   9.255  0.00  0.00    +0.000 C 
ATOM     15  F   UNL     1      44.108   2.288   9.081  0.00  0.00    +0.000 F 
ATOM     16  F   UNL     1      43.807   4.383   8.592  0.00  0.00    +0.000 F 
ATOM     17  F   UNL     1      45.808   3.539   8.563  0.00  0.00    +0.000 F 
ENDBRANCH  12  14
ENDBRANCH   6   8
BRANCH   1  18
ATOM     18  C   UNL     1      48.937   7.126  16.025  0.00  0.00    +0.000 C 
BRANCH  18  19
ATOM     19  N   UNL     1      48.551   5.981  16.798  0.00  0.00    +0.000 N 
ATOM     20  H   UNL     1      47.618   5.924  17.192  0.00  0.00    +0.000 HD
BRANCH  19  27
ATOM     21  C   UNL     1      47.395   3.122  17.045  0.00  0.00    +0.000 C 
ATOM     22  C   UNL     1      48.834   3.541  17.134  0.00  0.00    +0.000 A 
ATOM     23  C   UNL     1      49.765   2.512  17.366  0.00  0.00    +0.000 A 
ATOM     24  C   UNL     1      51.125   2.778  17.483  0.00  0.00    +0.000 A 
ATOM     25  C   UNL     1      51.501   4.101  17.363  0.00  0.00    +0.000 A 
ATOM     26  N   UNL     1      50.631   5.125  17.144  0.00  0.00    +0.000 NA
ATOM     27  C   UNL     1      49.306   4.860  17.026  0.00  0.00    +0.000 A 
BRANCH  24  28
ATOM     28  C   UNL     1      52.047   1.648  17.724  0.00  0.00    +0.000 C 
ATOM     29  N   UNL     1      51.542   0.430  18.083  0.00  0.00    +0.000 N 
ATOM     30  O   UNL     1      53.264   1.784  17.615  0.00  0.00    +0.000 OA
ATOM     31  H   UNL     1      50.568   0.206  18.207  0.00  0.00    +0.000 HD
ATOM     32  H   UNL     1      52.216  -0.307  18.239  0.00  0.00    +0.000 HD
ENDBRANCH  24  28
ENDBRANCH  19  27
ENDBRANCH  18  19
ENDBRANCH   1  18
TORSDOF 6
ENDMDL
MODEL 7
REMARK VINA RESULT:    -7.793      2.226      3.040
REMARK INTER + INTRA:         -11.616
REMARK INTER:                 -10.586
REMARK INTRA:                  -1.030
REMARK UNBOUND:                -1.089
REMARK  Name = 
REMARK  7 active torsions:
REMARK  status: ('A' for Active; 'I' for Inactive)
REMARK    1  A    between atoms: C_1  and  C_2
REMARK    2  A    between atoms: C_4  and  C_5
REMARK    3  A    between atoms: C_10  and  N_11
REMARK    4  A    between atoms: N_11  and  C_12
REMARK    5  A    between atoms: C_12  and  C_13
REMARK    6  A    between atoms: C_18  and  C_19
REMARK    7  A    between atoms: C_23  and  C_24
REMARK                            x       y       z     vdW  Elec       q    Type
REMARK                         _______ _______ _______ _____ _____    ______ ____
ROOT
ATOM      1  C   UNL     1      44.136   3.664  11.977  0.00  0.00    +0.000 A 
ATOM      2  C   UNL     1      43.043   4.513  11.793  0.00  0.00    +0.000 A 
ATOM      3  C   UNL     1      43.195   5.878  11.985  0.00  0.00    +0.000 A 
ATOM      4  F   UNL     1      42.154   6.691  11.769  0.00  0.00    +0.000 F 
ATOM      5  C   UNL     1      44.414   6.419  12.381  0.00  0.00    +0.000 A 
ATOM      6  C   UNL     1      45.534   5.598  12.589  0.00  0.00    +0.000 A 
ATOM      7  C   UNL     1      45.367   4.214  12.375  0.00  0.00    +0.000 A 
ENDROOT
BRANCH   6   8
ATOM      8  C   UNL     1      46.834   6.155  13.014  0.00  0.00    +0.000 A 
ATOM      9  C   UNL     1      47.436   5.832  14.231  0.00  0.00    +0.000 A 
ATOM     10  N   UNL     1      48.633   6.304  14.660  0.00  0.00    +0.000 NA
ATOM     11  C   UNL     1      49.284   7.155  13.838  0.00  0.00    +0.000 A 
ATOM     12  C   UNL     1      48.793   7.562  12.611  0.00  0.00    +0.000 A 
ATOM     13  C   UNL     1      47.555   7.046  12.203  0.00  0.00    +0.000 A 
BRANCH  12  14
ATOM     14  C   UNL     1      49.557   8.511  11.745  0.00  0.00    +0.000 C 
ATOM     15  F   UNL     1      48.771   9.412  11.094  0.00  0.00    +0.000 F 
ATOM     16  F   UNL     1      50.460   9.246  12.450  0.00  0.00    +0.000 F 
ATOM     17  F   UNL     1      50.272   7.871  10.780  0.00  0.00    +0.000 F 
ENDBRANCH  12  14
ENDBRANCH   6   8
BRANCH   1  18
ATOM     18  C   UNL     1      44.018   2.200  11.646  0.00  0.00    +0.000 C 
BRANCH  18  19
ATOM     19  N   UNL     1      43.790   1.941  10.254  0.00  0.00    +0.000 N 
ATOM     20  H   UNL     1      42.879   1.628   9.937  0.00  0.00    +0.000 HD
BRANCH  19  27
ATOM     21  C   UNL     1      44.172   4.628   8.770  0.00  0.00    +0.000 C 
ATOM     22  C   UNL     1      44.903   3.339   8.536  0.00  0.00    +0.000 A 
ATOM     23  C   UNL     1      45.870   3.353   7.514  0.00  0.00    +0.000 A 
ATOM     24  C   UNL     1      46.603   2.214   7.193  0.00  0.00    +0.000 A 
ATOM     25  C   UNL     1      46.321   1.080   7.929  0.00  0.00    +0.000 A 
ATOM     26  N   UNL     1      45.390   1.025   8.920  0.00  0.00    +0.000 NA
ATOM     27  C   UNL     1      44.682   2.139   9.233  0.00  0.00    +0.000 A 
BRANCH  24  28
ATOM     28  C   UNL     1      47.604   2.301   6.110  0.00  0.00    +0.000 C 
ATOM     29  N   UNL     1      47.559   3.346   5.231  0.00  0.00    +0.000 N 
ATOM     30  O   UNL     1      48.477   1.445   5.978  0.00  0.00    +0.000 OA
ATOM     31  H   UNL     1      46.888   4.098   5.239  0.00  0.00    +0.000 HD
ATOM     32  H   UNL     1      48.265   3.356   4.508  0.00  0.00    +0.000 HD
ENDBRANCH  24  28
ENDBRANCH  19  27
ENDBRANCH  18  19
ENDBRANCH   1  18
TORSDOF 6
ENDMDL
MODEL 8
REMARK VINA RESULT:    -7.464      4.951      8.046
REMARK INTER + INTRA:         -11.171
REMARK INTER:                 -10.359
REMARK INTRA:                  -0.812
REMARK UNBOUND:                -1.089
REMARK  Name = 
REMARK  7 active torsions:
REMARK  status: ('A' for Active; 'I' for Inactive)
REMARK    1  A    between atoms: C_1  and  C_2
REMARK    2  A    between atoms: C_4  and  C_5
REMARK    3  A    between atoms: C_10  and  N_11
REMARK    4  A    between atoms: N_11  and  C_12
REMARK    5  A    between atoms: C_12  and  C_13
REMARK    6  A    between atoms: C_18  and  C_19
REMARK    7  A    between atoms: C_23  and  C_24
REMARK                            x       y       z     vdW  Elec       q    Type
REMARK                         _______ _______ _______ _____ _____    ______ ____
ROOT
ATOM      1  C   UNL     1      47.157   7.606  13.320  0.00  0.00    +0.000 A 
ATOM      2  C   UNL     1      46.461   8.812  13.212  0.00  0.00    +0.000 A 
ATOM      3  C   UNL     1      45.335   8.883  12.406  0.00  0.00    +0.000 A 
ATOM      4  F   UNL     1      44.650  10.031  12.338  0.00  0.00    +0.000 F 
ATOM      5  C   UNL     1      44.894   7.780  11.683  0.00  0.00    +0.000 A 
ATOM      6  C   UNL     1      45.572   6.553  11.754  0.00  0.00    +0.000 A 
ATOM      7  C   UNL     1      46.707   6.492  12.589  0.00  0.00    +0.000 A 
ENDROOT
BRANCH   6   8
ATOM      8  C   UNL     1      45.120   5.373  10.990  0.00  0.00    +0.000 A 
ATOM      9  C   UNL     1      44.059   4.564  11.400  0.00  0.00    +0.000 A 
ATOM     10  N   UNL     1      43.597   3.482  10.727  0.00  0.00    +0.000 NA
ATOM     11  C   UNL     1      44.221   3.167   9.572  0.00  0.00    +0.000 A 
ATOM     12  C   UNL     1      45.290   3.880   9.060  0.00  0.00    +0.000 A 
ATOM     13  C   UNL     1      45.733   4.996   9.784  0.00  0.00    +0.000 A 
BRANCH  12  14
ATOM     14  C   UNL     1      45.946   3.482   7.778  0.00  0.00    +0.000 C 
ATOM     15  F   UNL     1      45.080   3.349   6.737  0.00  0.00    +0.000 F 
ATOM     16  F   UNL     1      46.880   4.385   7.370  0.00  0.00    +0.000 F 
ATOM     17  F   UNL     1      46.598   2.292   7.878  0.00  0.00    +0.000 F 
ENDBRANCH  12  14
ENDBRANCH   6   8
BRANCH   1  18
ATOM     18  C   UNL     1      48.302   7.479  14.289  0.00  0.00    +0.000 C 
BRANCH  18  19
ATOM     19  N   UNL     1      47.985   6.708  15.456  0.00  0.00    +0.000 N 
ATOM     20  H   UNL     1      47.032   6.675  15.800  0.00  0.00    +0.000 HD
BRANCH  19  27
ATOM     21  C   UNL     1      47.175   4.062  16.838  0.00  0.00    +0.000 C 
ATOM     22  C   UNL     1      48.533   4.698  16.799  0.00  0.00    +0.000 A 
ATOM     23  C   UNL     1      49.557   4.013  17.480  0.00  0.00    +0.000 A 
ATOM     24  C   UNL     1      50.855   4.511  17.527  0.00  0.00    +0.000 A 
ATOM     25  C   UNL     1      51.074   5.709  16.877  0.00  0.00    +0.000 A 
ATOM     26  N   UNL     1      50.109   6.404  16.213  0.00  0.00    +0.000 NA
ATOM     27  C   UNL     1      48.847   5.912  16.165  0.00  0.00    +0.000 A 
BRANCH  24  28
ATOM     28  C   UNL     1      51.880   3.738  18.258  0.00  0.00    +0.000 C 
ATOM     29  N   UNL     1      52.758   4.387  19.079  0.00  0.00    +0.000 N 
ATOM     30  O   UNL     1      51.965   2.517  18.137  0.00  0.00    +0.000 OA
ATOM     31  H   UNL     1      52.786   5.380  19.250  0.00  0.00    +0.000 HD
ATOM     32  H   UNL     1      53.441   3.811  19.553  0.00  0.00    +0.000 HD
ENDBRANCH  24  28
ENDBRANCH  19  27
ENDBRANCH  18  19
ENDBRANCH   1  18
TORSDOF 6
ENDMDL
MODEL 9
REMARK VINA RESULT:    -7.300      4.933      8.057
REMARK INTER + INTRA:         -10.950
REMARK INTER:                  -9.933
REMARK INTRA:                  -1.017
REMARK UNBOUND:                -1.089
REMARK  Name = 
REMARK  7 active torsions:
REMARK  status: ('A' for Active; 'I' for Inactive)
REMARK    1  A    between atoms: C_1  and  C_2
REMARK    2  A    between atoms: C_4  and  C_5
REMARK    3  A    between atoms: C_10  and  N_11
REMARK    4  A    between atoms: N_11  and  C_12
REMARK    5  A    between atoms: C_12  and  C_13
REMARK    6  A    between atoms: C_18  and  C_19
REMARK    7  A    between atoms: C_23  and  C_24
REMARK                            x       y       z     vdW  Elec       q    Type
REMARK                         _______ _______ _______ _____ _____    ______ ____
ROOT
ATOM      1  C   UNL     1      48.736   7.342  14.429  0.00  0.00    +0.000 A 
ATOM      2  C   UNL     1      49.744   7.729  13.544  0.00  0.00    +0.000 A 
ATOM      3  C   UNL     1      49.497   7.728  12.180  0.00  0.00    +0.000 A 
ATOM      4  F   UNL     1      50.455   8.138  11.340  0.00  0.00    +0.000 F 
ATOM      5  C   UNL     1      48.267   7.326  11.670  0.00  0.00    +0.000 A 
ATOM      6  C   UNL     1      47.231   6.917  12.525  0.00  0.00    +0.000 A 
ATOM      7  C   UNL     1      47.493   6.938  13.910  0.00  0.00    +0.000 A 
ENDROOT
BRANCH   6   8
ATOM      8  C   UNL     1      45.920   6.483  12.000  0.00  0.00    +0.000 A 
ATOM      9  C   UNL     1      44.829   7.346  11.878  0.00  0.00    +0.000 A 
ATOM     10  N   UNL     1      43.613   7.000  11.388  0.00  0.00    +0.000 NA
ATOM     11  C   UNL     1      43.453   5.719  10.995  0.00  0.00    +0.000 A 
ATOM     12  C   UNL     1      44.450   4.763  11.072  0.00  0.00    +0.000 A 
ATOM     13  C   UNL     1      45.695   5.164  11.579  0.00  0.00    +0.000 A 
BRANCH  12  14
ATOM     14  C   UNL     1      44.215   3.357  10.626  0.00  0.00    +0.000 C 
ATOM     15  F   UNL     1      45.316   2.563  10.713  0.00  0.00    +0.000 F 
ATOM     16  F   UNL     1      43.249   2.735  11.357  0.00  0.00    +0.000 F 
ATOM     17  F   UNL     1      43.803   3.287   9.331  0.00  0.00    +0.000 F 
ENDBRANCH  12  14
ENDBRANCH   6   8
BRANCH   1  18
ATOM     18  C   UNL     1      48.948   7.462  15.915  0.00  0.00    +0.000 C 
BRANCH  18  19
ATOM     19  N   UNL     1      48.487   6.323  16.655  0.00  0.00    +0.000 N 
ATOM     20  H   UNL     1      47.525   6.280  16.974  0.00  0.00    +0.000 HD
BRANCH  19  27
ATOM     21  C   UNL     1      47.240   3.528  17.104  0.00  0.00    +0.000 C 
ATOM     22  C   UNL     1      48.692   3.902  17.145  0.00  0.00    +0.000 A 
ATOM     23  C   UNL     1      49.592   2.859  17.431  0.00  0.00    +0.000 A 
ATOM     24  C   UNL     1      50.962   3.084  17.511  0.00  0.00    +0.000 A 
ATOM     25  C   UNL     1      51.381   4.383  17.300  0.00  0.00    +0.000 A 
ATOM     26  N   UNL     1      50.542   5.420  17.028  0.00  0.00    +0.000 NA
ATOM     27  C   UNL     1      49.207   5.194  16.945  0.00  0.00    +0.000 A 
BRANCH  24  28
ATOM     28  C   UNL     1      51.849   1.941  17.812  0.00  0.00    +0.000 C 
ATOM     29  N   UNL     1      51.364   0.667  17.720  0.00  0.00    +0.000 N 
ATOM     30  O   UNL     1      53.018   2.113  18.152  0.00  0.00    +0.000 OA
ATOM     31  H   UNL     1      50.426   0.409  17.457  0.00  0.00    +0.000 HD
ATOM     32  H   UNL     1      52.011  -0.077  17.939  0.00  0.00    +0.000 HD
ENDBRANCH  24  28
ENDBRANCH  19  27
ENDBRANCH  18  19
ENDBRANCH   1  18
TORSDOF 6
ENDMDL
