MODEL 1
REMARK VINA RESULT:    -7.699      0.000      0.000
REMARK INTER + INTRA:         -10.041
REMARK INTER:                  -9.499
REMARK INTRA:                  -0.542
REMARK UNBOUND:                -0.542
REMARK  Name = 
REMARK  5 active torsions:
REMARK  status: ('A' for Active; 'I' for Inactive)
REMARK    1  A    between atoms: C_1  and  O_2
REMARK    2  A    between atoms: O_2  and  C_3
REMARK    3  A    between atoms: C_7  and  C_8
REMARK    4  A    between atoms: C_8  and  N_9
REMARK    5  A    between atoms: C_14  and  C_15
REMARK                            x       y       z     vdW  Elec       q    Type
REMARK                         _______ _______ _______ _____ _____    ______ ____
ROOT
ATOM      1  N   UNL     1      44.957   5.361  11.090  0.00  0.00    +0.000 N 
ATOM      2  C   UNL     1      45.015   6.734  11.127  0.00  0.00    +0.000 A 
ATOM      3  C   UNL     1      45.679   7.105  12.273  0.00  0.00    +0.000 A 
ATOM      4  C   UNL     1      46.044   5.919  12.962  0.00  0.00    +0.000 A 
ATOM      5  C   UNL     1      46.699   5.671  14.175  0.00  0.00    +0.000 A 
ATOM      6  C   UNL     1      46.875   4.339  14.521  0.00  0.00    +0.000 A 
ATOM      7  N   UNL     1      46.476   3.278  13.763  0.00  0.00    +0.000 NA
ATOM      8  C   UNL     1      45.845   3.521  12.591  0.00  0.00    +0.000 A 
ATOM      9  C   UNL     1      45.609   4.834  12.192  0.00  0.00    +0.000 A 
ENDROOT
BRANCH   6  10
ATOM     10  C   UNL     1      47.527   4.012  15.832  0.00  0.00    +0.000 C 
ATOM     11  N   UNL     1      47.165   4.811  16.884  0.00  0.00    +0.000 N 
ATOM     12  O   UNL     1      48.336   3.103  15.966  0.00  0.00    +0.000 OA
ATOM     13  H   UNL     1      46.505   5.566  16.731  0.00  0.00    +0.000 HD
ATOM     14  H   UNL     1      47.584   4.664  17.789  0.00  0.00    +0.000 HD
ENDBRANCH   6  10
BRANCH   1  15
ATOM     15  C   UNL     1      44.201   4.608  10.091  0.00  0.00    +0.000 C 
BRANCH  15  20
ATOM     16  C   UNL     1      46.000   1.810   8.214  0.00  0.00    +0.000 A 
ATOM     17  C   UNL     1      46.706   2.535   7.257  0.00  0.00    +0.000 A 
ATOM     18  C   UNL     1      46.633   3.930   7.240  0.00  0.00    +0.000 A 
ATOM     19  C   UNL     1      45.841   4.606   8.167  0.00  0.00    +0.000 A 
ATOM     20  C   UNL     1      45.106   3.893   9.123  0.00  0.00    +0.000 A 
ATOM     21  C   UNL     1      45.209   2.491   9.144  0.00  0.00    +0.000 A 
BRANCH  16  23
ATOM     22  C   UNL     1      46.767  -0.289   7.407  0.00  0.00    +0.000 C 
ATOM     23  O   UNL     1      45.993   0.448   8.346  0.00  0.00    +0.000 OA
ENDBRANCH  16  23
ENDBRANCH  15  20
ENDBRANCH   1  15
TORSDOF 4
ENDMDL
MODEL 2
REMARK VINA RESULT:    -7.610      2.316      6.534
REMARK INTER + INTRA:          -9.932
REMARK INTER:                  -9.421
REMARK INTRA:                  -0.510
REMARK UNBOUND:                -0.542
REMARK  Name = 
REMARK  5 active torsions:
REMARK  status: ('A' for Active; 'I' for Inactive)
REMARK    1  A    between atoms: C_1  and  O_2
REMARK    2  A    between atoms: O_2  and  C_3
REMARK    3  A    between atoms: C_7  and  C_8
REMARK    4  A    between atoms: C_8  and  N_9
REMARK    5  A    between atoms: C_14  and  C_15
REMARK                            x       y       z     vdW  Elec       q    Type
REMARK                         _______ _______ _______ _____ _____    ______ ____
ROOT
ATOM      1  N   UNL     1      44.032   4.356  10.615  0.00  0.00    +0.000 N 
ATOM      2  C   UNL     1      43.549   3.193  11.167  0.00  0.00    +0.000 A 
ATOM      3  C   UNL     1      44.093   2.133  10.482  0.00  0.00    +0.000 A 
ATOM      4  C   UNL     1      44.943   2.661   9.475  0.00  0.00    +0.000 A 
ATOM      5  C   UNL     1      45.727   2.079   8.472  0.00  0.00    +0.000 A 
ATOM      6  C   UNL     1      46.437   2.950   7.658  0.00  0.00    +0.000 A 
ATOM      7  N   UNL     1      46.434   4.308   7.782  0.00  0.00    +0.000 NA
ATOM      8  C   UNL     1      45.676   4.868   8.754  0.00  0.00    +0.000 A 
ATOM      9  C   UNL     1      44.915   4.056   9.592  0.00  0.00    +0.000 A 
ENDROOT
BRANCH   6  10
ATOM     10  C   UNL     1      47.256   2.387   6.535  0.00  0.00    +0.000 C 
ATOM     11  N   UNL     1      47.201   3.087   5.359  0.00  0.00    +0.000 N 
ATOM     12  O   UNL     1      47.924   1.367   6.643  0.00  0.00    +0.000 OA
ATOM     13  H   UNL     1      46.622   3.919   5.301  0.00  0.00    +0.000 HD
ATOM     14  H   UNL     1      47.707   2.751   4.554  0.00  0.00    +0.000 HD
ENDBRANCH   6  10
BRANCH   1  15
ATOM     15  C   UNL     1      43.564   5.689  10.990  0.00  0.00    +0.000 C 
BRANCH  15  20
ATOM     16  C   UNL     1      46.527   6.508  13.257  0.00  0.00    +0.000 A 
ATOM     17  C   UNL     1      46.658   7.879  13.048  0.00  0.00    +0.000 A 
ATOM     18  C   UNL     1      45.766   8.548  12.206  0.00  0.00    +0.000 A 
ATOM     19  C   UNL     1      44.752   7.847  11.554  0.00  0.00    +0.000 A 
ATOM     20  C   UNL     1      44.618   6.465  11.734  0.00  0.00    +0.000 A 
ATOM     21  C   UNL     1      45.506   5.810  12.603  0.00  0.00    +0.000 A 
BRANCH  16  23
ATOM     22  C   UNL     1      46.806   4.470  14.445  0.00  0.00    +0.000 C 
ATOM     23  O   UNL     1      47.323   5.738  14.060  0.00  0.00    +0.000 OA
ENDBRANCH  16  23
ENDBRANCH  15  20
ENDBRANCH   1  15
TORSDOF 4
ENDMDL
MODEL 3
REMARK VINA RESULT:    -7.483      1.259      1.792
REMARK INTER + INTRA:          -9.775
REMARK INTER:                  -9.261
REMARK INTRA:                  -0.514
REMARK UNBOUND:                -0.542
REMARK  Name = 
REMARK  5 active torsions:
REMARK  status: ('A' for Active; 'I' for Inactive)
REMARK    1  A    between atoms: C_1  and  O_2
REMARK    2  A    between atoms: O_2  and  C_3
REMARK    3  A    between atoms: C_7  and  C_8
REMARK    4  A    between atoms: C_8  and  N_9
REMARK    5  A    between atoms: C_14  and  C_15
REMARK                            x       y       z     vdW  Elec       q    Type
REMARK                         _______ _______ _______ _____ _____    ______ ____
ROOT
ATOM      1  N   UNL     1      44.695   5.360  11.109  0.00  0.00    +0.000 N 
ATOM      2  C   UNL     1      44.831   6.722  10.977  0.00  0.00    +0.000 A 
ATOM      3  C   UNL     1      45.629   7.176  12.001  0.00  0.00    +0.000 A 
ATOM      4  C   UNL     1      46.000   6.054  12.787  0.00  0.00    +0.000 A 
ATOM      5  C   UNL     1      46.763   5.903  13.952  0.00  0.00    +0.000 A 
ATOM      6  C   UNL     1      46.902   4.610  14.435  0.00  0.00    +0.000 A 
ATOM      7  N   UNL     1      46.370   3.499  13.852  0.00  0.00    +0.000 NA
ATOM      8  C   UNL     1      45.634   3.648  12.726  0.00  0.00    +0.000 A 
ATOM      9  C   UNL     1      45.429   4.920  12.197  0.00  0.00    +0.000 A 
ENDROOT
BRANCH   6  10
ATOM     10  C   UNL     1      47.668   4.391  15.707  0.00  0.00    +0.000 C 
ATOM     11  N   UNL     1      47.295   3.294  16.436  0.00  0.00    +0.000 N 
ATOM     12  O   UNL     1      48.560   5.140  16.085  0.00  0.00    +0.000 OA
ATOM     13  H   UNL     1      46.539   2.706  16.101  0.00  0.00    +0.000 HD
ATOM     14  H   UNL     1      47.750   3.101  17.315  0.00  0.00    +0.000 HD
ENDBRANCH   6  10
BRANCH   1  15
ATOM     15  C   UNL     1      43.800   4.550  10.286  0.00  0.00    +0.000 C 
BRANCH  15  20
ATOM     16  C   UNL     1      46.032   3.299   7.449  0.00  0.00    +0.000 A 
ATOM     17  C   UNL     1      46.072   1.933   7.717  0.00  0.00    +0.000 A 
ATOM     18  C   UNL     1      45.348   1.408   8.791  0.00  0.00    +0.000 A 
ATOM     19  C   UNL     1      44.596   2.247   9.611  0.00  0.00    +0.000 A 
ATOM     20  C   UNL     1      44.561   3.626   9.371  0.00  0.00    +0.000 A 
ATOM     21  C   UNL     1      45.274   4.137   8.273  0.00  0.00    +0.000 A 
BRANCH  16  23
ATOM     22  C   UNL     1      47.108   3.129   5.338  0.00  0.00    +0.000 C 
ATOM     23  O   UNL     1      46.683   3.938   6.428  0.00  0.00    +0.000 OA
ENDBRANCH  16  23
ENDBRANCH  15  20
ENDBRANCH   1  15
TORSDOF 4
ENDMDL
MODEL 4
REMARK VINA RESULT:    -7.437      1.939      2.447
REMARK INTER + INTRA:          -9.718
REMARK INTER:                  -9.142
REMARK INTRA:                  -0.576
REMARK UNBOUND:                -0.542
REMARK  Name = 
REMARK  5 active torsions:
REMARK  status: ('A' for Active; 'I' for Inactive)
REMARK    1  A    between atoms: C_1  and  O_2
REMARK    2  A    between atoms: O_2  and  C_3
REMARK    3  A    between atoms: C_7  and  C_8
REMARK    4  A    between atoms: C_8  and  N_9
REMARK    5  A    between atoms: C_14  and  C_15
REMARK                            x       y       z     vdW  Elec       q    Type
REMARK                         _______ _______ _______ _____ _____    ______ ____
ROOT
ATOM      1  N   UNL     1      44.374   3.973  10.294  0.00  0.00    +0.000 N 
ATOM      2  C   UNL     1      43.770   3.070  11.138  0.00  0.00    +0.000 A 
ATOM      3  C   UNL     1      44.226   3.303  12.413  0.00  0.00    +0.000 A 
ATOM      4  C   UNL     1      45.140   4.388  12.353  0.00  0.00    +0.000 A 
ATOM      5  C   UNL     1      45.926   5.040  13.310  0.00  0.00    +0.000 A 
ATOM      6  C   UNL     1      46.715   6.087  12.853  0.00  0.00    +0.000 A 
ATOM      7  N   UNL     1      46.757   6.523  11.562  0.00  0.00    +0.000 NA
ATOM      8  C   UNL     1      45.994   5.891  10.639  0.00  0.00    +0.000 A 
ATOM      9  C   UNL     1      45.198   4.814  11.021  0.00  0.00    +0.000 A 
ENDROOT
BRANCH   6  10
ATOM     10  C   UNL     1      47.616   6.792  13.823  0.00  0.00    +0.000 C 
ATOM     11  N   UNL     1      47.224   8.055  14.177  0.00  0.00    +0.000 N 
ATOM     12  O   UNL     1      48.641   6.290  14.266  0.00  0.00    +0.000 OA
ATOM     13  H   UNL     1      46.377   8.446  13.775  0.00  0.00    +0.000 HD
ATOM     14  H   UNL     1      47.796   8.597  14.806  0.00  0.00    +0.000 HD
ENDBRANCH   6  10
BRANCH   1  15
ATOM     15  C   UNL     1      44.242   3.937   8.839  0.00  0.00    +0.000 C 
BRANCH  15  20
ATOM     16  C   UNL     1      46.765   1.280   7.757  0.00  0.00    +0.000 A 
ATOM     17  C   UNL     1      47.572   2.010   6.887  0.00  0.00    +0.000 A 
ATOM     18  C   UNL     1      47.326   3.370   6.677  0.00  0.00    +0.000 A 
ATOM     19  C   UNL     1      46.263   4.001   7.322  0.00  0.00    +0.000 A 
ATOM     20  C   UNL     1      45.428   3.279   8.183  0.00  0.00    +0.000 A 
ATOM     21  C   UNL     1      45.702   1.919   8.404  0.00  0.00    +0.000 A 
BRANCH  16  23
ATOM     22  C   UNL     1      46.404  -0.974   7.101  0.00  0.00    +0.000 C 
ATOM     23  O   UNL     1      46.903  -0.048   8.058  0.00  0.00    +0.000 OA
ENDBRANCH  16  23
ENDBRANCH  15  20
ENDBRANCH   1  15
TORSDOF 4
ENDMDL
MODEL 5
REMARK VINA RESULT:    -7.392      3.023      6.994
REMARK INTER + INTRA:          -9.663
REMARK INTER:                  -9.212
REMARK INTRA:                  -0.451
REMARK UNBOUND:                -0.542
REMARK  Name = 
REMARK  5 active torsions:
REMARK  status: ('A' for Active; 'I' for Inactive)
REMARK    1  A    between atoms: C_1  and  O_2
REMARK    2  A    between atoms: O_2  and  C_3
REMARK    3  A    between atoms: C_7  and  C_8
REMARK    4  A    between atoms: C_8  and  N_9
REMARK    5  A    between atoms: C_14  and  C_15
REMARK                            x       y       z     vdW  Elec       q    Type
REMARK                         _______ _______ _______ _____ _____    ______ ____
ROOT
ATOM      1  N   UNL     1      44.046   4.382  10.569  0.00  0.00    +0.000 N 
ATOM      2  C   UNL     1      43.552   3.231  11.139  0.00  0.00    +0.000 A 
ATOM      3  C   UNL     1      44.091   2.156  10.473  0.00  0.00    +0.000 A 
ATOM      4  C   UNL     1      44.950   2.662   9.462  0.00  0.00    +0.000 A 
ATOM      5  C   UNL     1      45.733   2.057   8.471  0.00  0.00    +0.000 A 
ATOM      6  C   UNL     1      46.452   2.910   7.646  0.00  0.00    +0.000 A 
ATOM      7  N   UNL     1      46.459   4.270   7.748  0.00  0.00    +0.000 NA
ATOM      8  C   UNL     1      45.701   4.851   8.707  0.00  0.00    +0.000 A 
ATOM      9  C   UNL     1      44.932   4.058   9.555  0.00  0.00    +0.000 A 
ENDROOT
BRANCH   6  10
ATOM     10  C   UNL     1      47.272   2.323   6.535  0.00  0.00    +0.000 C 
ATOM     11  N   UNL     1      47.226   3.003   5.348  0.00  0.00    +0.000 N 
ATOM     12  O   UNL     1      47.933   1.300   6.664  0.00  0.00    +0.000 OA
ATOM     13  H   UNL     1      46.653   3.837   5.274  0.00  0.00    +0.000 HD
ATOM     14  H   UNL     1      47.733   2.650   4.551  0.00  0.00    +0.000 HD
ENDBRANCH   6  10
BRANCH   1  15
ATOM     15  C   UNL     1      43.586   5.724  10.920  0.00  0.00    +0.000 C 
BRANCH  15  20
ATOM     16  C   UNL     1      45.630   8.662  12.255  0.00  0.00    +0.000 A 
ATOM     17  C   UNL     1      46.557   8.004  13.060  0.00  0.00    +0.000 A 
ATOM     18  C   UNL     1      46.549   6.610  13.142  0.00  0.00    +0.000 A 
ATOM     19  C   UNL     1      45.604   5.867  12.436  0.00  0.00    +0.000 A 
ATOM     20  C   UNL     1      44.649   6.511  11.640  0.00  0.00    +0.000 A 
ATOM     21  C   UNL     1      44.685   7.913  11.546  0.00  0.00    +0.000 A 
BRANCH  16  23
ATOM     22  C   UNL     1      44.425  10.485  11.324  0.00  0.00    +0.000 C 
ATOM     23  O   UNL     1      45.535  10.016  12.078  0.00  0.00    +0.000 OA
ENDBRANCH  16  23
ENDBRANCH  15  20
ENDBRANCH   1  15
TORSDOF 4
ENDMDL
MODEL 6
REMARK VINA RESULT:    -6.570      1.767      2.497
REMARK INTER + INTRA:          -8.648
REMARK INTER:                  -8.421
REMARK INTRA:                  -0.227
REMARK UNBOUND:                -0.542
REMARK  Name = 
REMARK  5 active torsions:
REMARK  status: ('A' for Active; 'I' for Inactive)
REMARK    1  A    between atoms: C_1  and  O_2
REMARK    2  A    between atoms: O_2  and  C_3
REMARK    3  A    between atoms: C_7  and  C_8
REMARK    4  A    between atoms: C_8  and  N_9
REMARK    5  A    between atoms: C_14  and  C_15
REMARK                            x       y       z     vdW  Elec       q    Type
REMARK                         _______ _______ _______ _____ _____    ______ ____
ROOT
ATOM      1  N   UNL     1      46.684   6.552  11.883  0.00  0.00    +0.000 N 
ATOM      2  C   UNL     1      47.823   7.318  11.793  0.00  0.00    +0.000 A 
ATOM      3  C   UNL     1      48.589   7.083  12.910  0.00  0.00    +0.000 A 
ATOM      4  C   UNL     1      47.900   6.137  13.713  0.00  0.00    +0.000 A 
ATOM      5  C   UNL     1      48.169   5.548  14.954  0.00  0.00    +0.000 A 
ATOM      6  C   UNL     1      47.228   4.644  15.427  0.00  0.00    +0.000 A 
ATOM      7  N   UNL     1      46.091   4.287  14.765  0.00  0.00    +0.000 NA
ATOM      8  C   UNL     1      45.834   4.856  13.565  0.00  0.00    +0.000 A 
ATOM      9  C   UNL     1      46.721   5.793  13.040  0.00  0.00    +0.000 A 
ENDROOT
BRANCH   6  10
ATOM     10  C   UNL     1      47.438   4.017  16.774  0.00  0.00    +0.000 C 
ATOM     11  N   UNL     1      48.607   4.355  17.403  0.00  0.00    +0.000 N 
ATOM     12  O   UNL     1      46.635   3.247  17.283  0.00  0.00    +0.000 OA
ATOM     13  H   UNL     1      49.258   4.983  16.942  0.00  0.00    +0.000 HD
ATOM     14  H   UNL     1      48.825   3.951  18.300  0.00  0.00    +0.000 HD
ENDBRANCH   6  10
BRANCH   1  15
ATOM     15  C   UNL     1      45.566   6.647  10.946  0.00  0.00    +0.000 C 
BRANCH  15  20
ATOM     16  C   UNL     1      44.354   3.179   9.898  0.00  0.00    +0.000 A 
ATOM     17  C   UNL     1      44.955   3.048   8.649  0.00  0.00    +0.000 A 
ATOM     18  C   UNL     1      45.783   4.061   8.159  0.00  0.00    +0.000 A 
ATOM     19  C   UNL     1      46.000   5.217   8.907  0.00  0.00    +0.000 A 
ATOM     20  C   UNL     1      45.387   5.377  10.156  0.00  0.00    +0.000 A 
ATOM     21  C   UNL     1      44.577   4.339  10.647  0.00  0.00    +0.000 A 
BRANCH  16  23
ATOM     22  C   UNL     1      43.323   2.410  11.896  0.00  0.00    +0.000 C 
ATOM     23  O   UNL     1      43.534   2.261  10.497  0.00  0.00    +0.000 OA
ENDBRANCH  16  23
ENDBRANCH  15  20
ENDBRANCH   1  15
TORSDOF 4
ENDMDL
MODEL 7
REMARK VINA RESULT:    -6.400      3.007      3.878
REMARK INTER + INTRA:          -8.438
REMARK INTER:                  -7.834
REMARK INTRA:                  -0.604
REMARK UNBOUND:                -0.542
REMARK  Name = 
REMARK  5 active torsions:
REMARK  status: ('A' for Active; 'I' for Inactive)
REMARK    1  A    between atoms: C_1  and  O_2
REMARK    2  A    between atoms: O_2  and  C_3
REMARK    3  A    between atoms: C_7  and  C_8
REMARK    4  A    between atoms: C_8  and  N_9
REMARK    5  A    between atoms: C_14  and  C_15
REMARK                            x       y       z     vdW  Elec       q    Type
REMARK                         _______ _______ _______ _____ _____    ______ ____
ROOT
ATOM      1  N   UNL     1      45.598   5.702  12.607  0.00  0.00    +0.000 N 
ATOM      2  C   UNL     1      45.759   4.736  13.573  0.00  0.00    +0.000 A 
ATOM      3  C   UNL     1      46.977   4.934  14.180  0.00  0.00    +0.000 A 
ATOM      4  C   UNL     1      47.585   6.062  13.568  0.00  0.00    +0.000 A 
ATOM      5  C   UNL     1      48.815   6.707  13.743  0.00  0.00    +0.000 A 
ATOM      6  C   UNL     1      49.056   7.808  12.933  0.00  0.00    +0.000 A 
ATOM      7  N   UNL     1      48.182   8.302  12.011  0.00  0.00    +0.000 NA
ATOM      8  C   UNL     1      46.993   7.677  11.845  0.00  0.00    +0.000 A 
ATOM      9  C   UNL     1      46.694   6.548  12.605  0.00  0.00    +0.000 A 
ENDROOT
BRANCH   6  10
ATOM     10  C   UNL     1      50.377   8.511  13.041  0.00  0.00    +0.000 C 
ATOM     11  N   UNL     1      51.310   7.890  13.828  0.00  0.00    +0.000 N 
ATOM     12  O   UNL     1      50.615   9.573  12.480  0.00  0.00    +0.000 OA
ATOM     13  H   UNL     1      51.071   7.020  14.292  0.00  0.00    +0.000 HD
ATOM     14  H   UNL     1      52.212   8.320  13.965  0.00  0.00    +0.000 HD
ENDBRANCH   6  10
BRANCH   1  15
ATOM     15  C   UNL     1      44.486   5.724  11.659  0.00  0.00    +0.000 C 
BRANCH  15  20
ATOM     16  C   UNL     1      45.595   3.989   8.441  0.00  0.00    +0.000 A 
ATOM     17  C   UNL     1      45.043   2.721   8.613  0.00  0.00    +0.000 A 
ATOM     18  C   UNL     1      44.281   2.436   9.749  0.00  0.00    +0.000 A 
ATOM     19  C   UNL     1      44.081   3.410  10.726  0.00  0.00    +0.000 A 
ATOM     20  C   UNL     1      44.645   4.683  10.582  0.00  0.00    +0.000 A 
ATOM     21  C   UNL     1      45.389   4.964   9.423  0.00  0.00    +0.000 A 
BRANCH  16  23
ATOM     22  C   UNL     1      46.903   3.381   6.554  0.00  0.00    +0.000 C 
ATOM     23  O   UNL     1      46.348   4.401   7.376  0.00  0.00    +0.000 OA
ENDBRANCH  16  23
ENDBRANCH  15  20
ENDBRANCH   1  15
TORSDOF 4
ENDMDL
MODEL 8
REMARK VINA RESULT:    -6.354      2.111      3.355
REMARK INTER + INTRA:          -8.382
REMARK INTER:                  -8.119
REMARK INTRA:                  -0.263
REMARK UNBOUND:                -0.542
REMARK  Name = 
REMARK  5 active torsions:
REMARK  status: ('A' for Active; 'I' for Inactive)
REMARK    1  A    between atoms: C_1  and  O_2
REMARK    2  A    between atoms: O_2  and  C_3
REMARK    3  A    between atoms: C_7  and  C_8
REMARK    4  A    between atoms: C_8  and  N_9
REMARK    5  A    between atoms: C_14  and  C_15
REMARK                            x       y       z     vdW  Elec       q    Type
REMARK                         _______ _______ _______ _____ _____    ______ ____
ROOT
ATOM      1  N   UNL     1      47.346   6.548  12.552  0.00  0.00    +0.000 N 
ATOM      2  C   UNL     1      47.854   7.725  13.050  0.00  0.00    +0.000 A 
ATOM      3  C   UNL     1      48.186   7.525  14.369  0.00  0.00    +0.000 A 
ATOM      4  C   UNL     1      47.875   6.178  14.692  0.00  0.00    +0.000 A 
ATOM      5  C   UNL     1      47.965   5.423  15.868  0.00  0.00    +0.000 A 
ATOM      6  C   UNL     1      47.551   4.101  15.787  0.00  0.00    +0.000 A 
ATOM      7  N   UNL     1      47.088   3.498  14.655  0.00  0.00    +0.000 NA
ATOM      8  C   UNL     1      47.003   4.230  13.520  0.00  0.00    +0.000 A 
ATOM      9  C   UNL     1      47.376   5.572  13.533  0.00  0.00    +0.000 A 
ENDROOT
BRANCH   6  10
ATOM     10  C   UNL     1      47.579   3.255  17.026  0.00  0.00    +0.000 C 
ATOM     11  N   UNL     1      48.826   2.974  17.517  0.00  0.00    +0.000 N 
ATOM     12  O   UNL     1      46.566   2.830  17.566  0.00  0.00    +0.000 OA
ATOM     13  H   UNL     1      49.645   3.329  17.033  0.00  0.00    +0.000 HD
ATOM     14  H   UNL     1      48.921   2.389  18.333  0.00  0.00    +0.000 HD
ENDBRANCH   6  10
BRANCH   1  15
ATOM     15  C   UNL     1      46.754   6.419  11.222  0.00  0.00    +0.000 C 
BRANCH  15  20
ATOM     16  C   UNL     1      43.852   3.977  10.767  0.00  0.00    +0.000 A 
ATOM     17  C   UNL     1      42.836   4.630  11.461  0.00  0.00    +0.000 A 
ATOM     18  C   UNL     1      43.075   5.876  12.044  0.00  0.00    +0.000 A 
ATOM     19  C   UNL     1      44.334   6.468  11.952  0.00  0.00    +0.000 A 
ATOM     20  C   UNL     1      45.374   5.817  11.277  0.00  0.00    +0.000 A 
ATOM     21  C   UNL     1      45.113   4.575  10.674  0.00  0.00    +0.000 A 
BRANCH  16  23
ATOM     22  C   UNL     1      44.811   2.400   9.270  0.00  0.00    +0.000 C 
ATOM     23  O   UNL     1      43.748   2.763  10.143  0.00  0.00    +0.000 OA
ENDBRANCH  16  23
ENDBRANCH  15  20
ENDBRANCH   1  15
TORSDOF 4
ENDMDL
MODEL 9
REMARK VINA RESULT:    -6.199      2.394      3.146
REMARK INTER + INTRA:          -8.191
REMARK INTER:                  -7.803
REMARK INTRA:                  -0.388
REMARK UNBOUND:                -0.542
REMARK  Name = 
REMARK  5 active torsions:
REMARK  status: ('A' for Active; 'I' for Inactive)
REMARK    1  A    between atoms: C_1  and  O_2
REMARK    2  A    between atoms: O_2  and  C_3
REMARK    3  A    between atoms: C_7  and  C_8
REMARK    4  A    between atoms: C_8  and  N_9
REMARK    5  A    between atoms: C_14  and  C_15
REMARK                            x       y       z     vdW  Elec       q    Type
REMARK                         _______ _______ _______ _____ _____    ______ ____
ROOT
ATOM      1  N   UNL     1      44.947   6.296  12.388  0.00  0.00    +0.000 N 
ATOM      2  C   UNL     1      44.613   7.523  11.864  0.00  0.00    +0.000 A 
ATOM      3  C   UNL     1      45.596   8.420  12.209  0.00  0.00    +0.000 A 
ATOM      4  C   UNL     1      46.570   7.720  12.969  0.00  0.00    +0.000 A 
ATOM      5  C   UNL     1      47.757   8.106  13.604  0.00  0.00    +0.000 A 
ATOM      6  C   UNL     1      48.455   7.107  14.268  0.00  0.00    +0.000 A 
ATOM      7  N   UNL     1      48.075   5.799  14.327  0.00  0.00    +0.000 NA
ATOM      8  C   UNL     1      46.928   5.429  13.711  0.00  0.00    +0.000 A 
ATOM      9  C   UNL     1      46.161   6.384  13.047  0.00  0.00    +0.000 A 
ENDROOT
BRANCH   6  10
ATOM     10  C   UNL     1      49.709   7.470  15.008  0.00  0.00    +0.000 C 
ATOM     11  N   UNL     1      50.838   7.563  14.239  0.00  0.00    +0.000 N 
ATOM     12  O   UNL     1      49.738   7.661  16.217  0.00  0.00    +0.000 OA
ATOM     13  H   UNL     1      50.779   7.380  13.243  0.00  0.00    +0.000 HD
ATOM     14  H   UNL     1      51.722   7.777  14.675  0.00  0.00    +0.000 HD
ENDBRANCH   6  10
BRANCH   1  15
ATOM     15  C   UNL     1      44.068   5.129  12.347  0.00  0.00    +0.000 C 
BRANCH  15  20
ATOM     16  C   UNL     1      45.337   3.984   8.931  0.00  0.00    +0.000 A 
ATOM     17  C   UNL     1      44.920   2.654   8.919  0.00  0.00    +0.000 A 
ATOM     18  C   UNL     1      44.196   2.137   9.995  0.00  0.00    +0.000 A 
ATOM     19  C   UNL     1      43.900   2.939  11.097  0.00  0.00    +0.000 A 
ATOM     20  C   UNL     1      44.329   4.271  11.138  0.00  0.00    +0.000 A 
ATOM     21  C   UNL     1      45.035   4.786  10.037  0.00  0.00    +0.000 A 
BRANCH  16  23
ATOM     22  C   UNL     1      46.757   3.783   7.037  0.00  0.00    +0.000 C 
ATOM     23  O   UNL     1      46.040   4.615   7.942  0.00  0.00    +0.000 OA
ENDBRANCH  16  23
ENDBRANCH  15  20
ENDBRANCH   1  15
TORSDOF 4
ENDMDL
