MODEL 1
REMARK VINA RESULT:    -8.211      0.000      0.000
REMARK INTER + INTRA:         -11.560
REMARK INTER:                 -10.611
REMARK INTRA:                  -0.949
REMARK UNBOUND:                -0.949
REMARK  Name = 
REMARK  6 active torsions:
REMARK  status: ('A' for Active; 'I' for Inactive)
REMARK    1  A    between atoms: C_1  and  C_2
REMARK    2  A    between atoms: C_2  and  C_3
REMARK    3  A    between atoms: C_7  and  C_8
REMARK    4  A    between atoms: C_14  and  S_15
REMARK    5  A    between atoms: S_15  and  C_16
REMARK    6  A    between atoms: C_19  and  C_20
REMARK                            x       y       z     vdW  Elec       q    Type
REMARK                         _______ _______ _______ _____ _____    ______ ____
ROOT
ATOM      1  C   UNL     1      45.850   4.391  13.063  0.00  0.00    +0.000 C 
ATOM      2  C   UNL     1      45.014   5.382  12.278  0.00  0.00    +0.000 C 
ATOM      3  C   UNL     1      43.516   5.411  12.513  0.00  0.00    +0.000 C 
ATOM      4  C   UNL     1      44.047   4.861  11.217  0.00  0.00    +0.000 C 
ENDROOT
BRANCH   2   5
ATOM      5  C   UNL     1      45.738   6.713  12.094  0.00  0.00    +0.000 A 
ATOM      6  C   UNL     1      45.060   7.933  12.270  0.00  0.00    +0.000 A 
ATOM      7  C   UNL     1      45.744   9.146  12.352  0.00  0.00    +0.000 A 
ATOM      8  C   UNL     1      47.134   9.165  12.268  0.00  0.00    +0.000 A 
ATOM      9  C   UNL     1      47.844   7.975  12.064  0.00  0.00    +0.000 A 
ATOM     10  C   UNL     1      47.134   6.766  11.943  0.00  0.00    +0.000 A 
BRANCH   9  11
ATOM     11  C   UNL     1      49.352   7.964  12.045  0.00  0.00    +0.000 C 
ATOM     12  F   UNL     1      49.904   7.148  12.985  0.00  0.00    +0.000 F 
ATOM     13  F   UNL     1      49.854   7.540  10.850  0.00  0.00    +0.000 F 
ATOM     14  F   UNL     1      49.891   9.197  12.255  0.00  0.00    +0.000 F 
ENDBRANCH   9  11
ENDBRANCH   2   5
BRANCH   4  15
ATOM     15  S   UNL     1      43.790   3.155  10.908  0.00  0.00    +0.000 S 
BRANCH  15  16
ATOM     16  C   UNL     1      44.865   2.909   9.506  0.00  0.00    +0.000 A 
ATOM     17  C   UNL     1      45.251   4.014   8.755  0.00  0.00    +0.000 A 
ATOM     18  C   UNL     1      46.126   3.825   7.683  0.00  0.00    +0.000 A 
ATOM     19  C   UNL     1      46.590   2.541   7.385  0.00  0.00    +0.000 A 
ATOM     20  C   UNL     1      46.127   1.502   8.177  0.00  0.00    +0.000 A 
ATOM     21  N   UNL     1      45.280   1.654   9.224  0.00  0.00    +0.000 NA
BRANCH  19  22
ATOM     22  C   UNL     1      47.547   2.358   6.268  0.00  0.00    +0.000 C 
ATOM     23  N   UNL     1      47.454   3.172   5.174  0.00  0.00    +0.000 N 
ATOM     24  O   UNL     1      48.402   1.486   6.311  0.00  0.00    +0.000 OA
ATOM     25  H   UNL     1      46.782   3.907   5.027  0.00  0.00    +0.000 HD
ATOM     26  H   UNL     1      48.122   2.998   4.430  0.00  0.00    +0.000 HD
ENDBRANCH  19  22
ENDBRANCH  15  16
ENDBRANCH   4  15
TORSDOF 5
ENDMDL
MODEL 2
REMARK VINA RESULT:    -7.849      2.035      2.569
REMARK INTER + INTRA:         -11.092
REMARK INTER:                 -10.333
REMARK INTRA:                  -0.759
REMARK UNBOUND:                -0.949
REMARK  Name = 
REMARK  6 active torsions:
REMARK  status: ('A' for Active; 'I' for Inactive)
REMARK    1  A    between atoms: C_1  and  C_2
REMARK    2  A    between atoms: C_2  and  C_3
REMARK    3  A    between atoms: C_7  and  C_8
REMARK    4  A    between atoms: C_14  and  S_15
REMARK    5  A    between atoms: S_15  and  C_16
REMARK    6  A    between atoms: C_19  and  C_20
REMARK                            x       y       z     vdW  Elec       q    Type
REMARK                         _______ _______ _______ _____ _____    ______ ____
ROOT
ATOM      1  C   UNL     1      45.867   4.203  13.381  0.00  0.00    +0.000 C 
ATOM      2  C   UNL     1      45.122   5.297  12.642  0.00  0.00    +0.000 C 
ATOM      3  C   UNL     1      43.620   5.399  12.822  0.00  0.00    +0.000 C 
ATOM      4  C   UNL     1      44.172   4.913  11.509  0.00  0.00    +0.000 C 
ENDROOT
BRANCH   2   5
ATOM      5  C   UNL     1      45.928   6.592  12.585  0.00  0.00    +0.000 A 
ATOM      6  C   UNL     1      47.330   6.564  12.482  0.00  0.00    +0.000 A 
ATOM      7  C   UNL     1      48.065   7.711  12.181  0.00  0.00    +0.000 A 
ATOM      8  C   UNL     1      47.408   8.919  11.964  0.00  0.00    +0.000 A 
ATOM      9  C   UNL     1      46.014   8.994  12.085  0.00  0.00    +0.000 A 
ATOM     10  C   UNL     1      45.293   7.835  12.430  0.00  0.00    +0.000 A 
BRANCH   9  11
ATOM     11  C   UNL     1      45.276  10.274  11.782  0.00  0.00    +0.000 C 
ATOM     12  F   UNL     1      45.986  11.398  12.083  0.00  0.00    +0.000 F 
ATOM     13  F   UNL     1      44.952  10.388  10.462  0.00  0.00    +0.000 F 
ATOM     14  F   UNL     1      44.102  10.380  12.462  0.00  0.00    +0.000 F 
ENDBRANCH   9  11
ENDBRANCH   2   5
BRANCH   4  15
ATOM     15  S   UNL     1      43.830   3.252  11.064  0.00  0.00    +0.000 S 
BRANCH  15  16
ATOM     16  C   UNL     1      44.834   3.092   9.598  0.00  0.00    +0.000 A 
ATOM     17  C   UNL     1      45.195   4.242   8.904  0.00  0.00    +0.000 A 
ATOM     18  C   UNL     1      46.015   4.118   7.780  0.00  0.00    +0.000 A 
ATOM     19  C   UNL     1      46.452   2.854   7.377  0.00  0.00    +0.000 A 
ATOM     20  C   UNL     1      46.017   1.767   8.120  0.00  0.00    +0.000 A 
ATOM     21  N   UNL     1      45.222   1.856   9.216  0.00  0.00    +0.000 NA
BRANCH  19  22
ATOM     22  C   UNL     1      47.351   2.738   6.205  0.00  0.00    +0.000 C 
ATOM     23  N   UNL     1      48.654   2.376   6.401  0.00  0.00    +0.000 N 
ATOM     24  O   UNL     1      46.944   2.973   5.076  0.00  0.00    +0.000 OA
ATOM     25  H   UNL     1      49.096   2.177   7.283  0.00  0.00    +0.000 HD
ATOM     26  H   UNL     1      49.233   2.325   5.569  0.00  0.00    +0.000 HD
ENDBRANCH  19  22
ENDBRANCH  15  16
ENDBRANCH   4  15
TORSDOF 5
ENDMDL
MODEL 3
REMARK VINA RESULT:    -7.299      1.502      2.151
REMARK INTER + INTRA:         -10.382
REMARK INTER:                  -9.834
REMARK INTRA:                  -0.548
REMARK UNBOUND:                -0.949
REMARK  Name = 
REMARK  6 active torsions:
REMARK  status: ('A' for Active; 'I' for Inactive)
REMARK    1  A    between atoms: C_1  and  C_2
REMARK    2  A    between atoms: C_2  and  C_3
REMARK    3  A    between atoms: C_7  and  C_8
REMARK    4  A    between atoms: C_14  and  S_15
REMARK    5  A    between atoms: S_15  and  C_16
REMARK    6  A    between atoms: C_19  and  C_20
REMARK                            x       y       z     vdW  Elec       q    Type
REMARK                         _______ _______ _______ _____ _____    ______ ____
ROOT
ATOM      1  C   UNL     1      44.553   4.839  13.425  0.00  0.00    +0.000 C 
ATOM      2  C   UNL     1      44.934   5.914  12.427  0.00  0.00    +0.000 C 
ATOM      3  C   UNL     1      43.827   6.689  11.739  0.00  0.00    +0.000 C 
ATOM      4  C   UNL     1      44.630   5.693  10.946  0.00  0.00    +0.000 C 
ENDROOT
BRANCH   2   5
ATOM      5  C   UNL     1      46.180   6.678  12.865  0.00  0.00    +0.000 A 
ATOM      6  C   UNL     1      47.238   6.020  13.516  0.00  0.00    +0.000 A 
ATOM      7  C   UNL     1      48.478   6.632  13.703  0.00  0.00    +0.000 A 
ATOM      8  C   UNL     1      48.692   7.924  13.231  0.00  0.00    +0.000 A 
ATOM      9  C   UNL     1      47.654   8.625  12.602  0.00  0.00    +0.000 A 
ATOM     10  C   UNL     1      46.398   8.005  12.458  0.00  0.00    +0.000 A 
BRANCH   9  11
ATOM     11  C   UNL     1      47.886   9.995  12.017  0.00  0.00    +0.000 C 
ATOM     12  F   UNL     1      48.833  10.018  11.038  0.00  0.00    +0.000 F 
ATOM     13  F   UNL     1      46.760  10.517  11.450  0.00  0.00    +0.000 F 
ATOM     14  F   UNL     1      48.287  10.905  12.948  0.00  0.00    +0.000 F 
ENDBRANCH   9  11
ENDBRANCH   2   5
BRANCH   4  15
ATOM     15  S   UNL     1      43.782   4.283  10.341  0.00  0.00    +0.000 S 
BRANCH  15  16
ATOM     16  C   UNL     1      44.971   3.664   9.164  0.00  0.00    +0.000 A 
ATOM     17  C   UNL     1      45.230   2.298   9.128  0.00  0.00    +0.000 A 
ATOM     18  C   UNL     1      46.130   1.811   8.178  0.00  0.00    +0.000 A 
ATOM     19  C   UNL     1      46.751   2.696   7.293  0.00  0.00    +0.000 A 
ATOM     20  C   UNL     1      46.446   4.042   7.426  0.00  0.00    +0.000 A 
ATOM     21  N   UNL     1      45.576   4.545   8.336  0.00  0.00    +0.000 NA
BRANCH  19  22
ATOM     22  C   UNL     1      47.677   2.163   6.266  0.00  0.00    +0.000 C 
ATOM     23  N   UNL     1      47.963   2.926   5.169  0.00  0.00    +0.000 N 
ATOM     24  O   UNL     1      48.172   1.051   6.385  0.00  0.00    +0.000 OA
ATOM     25  H   UNL     1      47.601   3.842   4.964  0.00  0.00    +0.000 HD
ATOM     26  H   UNL     1      48.591   2.511   4.488  0.00  0.00    +0.000 HD
ENDBRANCH  19  22
ENDBRANCH  15  16
ENDBRANCH   4  15
TORSDOF 5
ENDMDL
MODEL 4
REMARK VINA RESULT:    -6.679      4.546      7.085
REMARK INTER + INTRA:          -9.580
REMARK INTER:                  -8.845
REMARK INTRA:                  -0.735
REMARK UNBOUND:                -0.949
REMARK  Name = 
REMARK  6 active torsions:
REMARK  status: ('A' for Active; 'I' for Inactive)
REMARK    1  A    between atoms: C_1  and  C_2
REMARK    2  A    between atoms: C_2  and  C_3
REMARK    3  A    between atoms: C_7  and  C_8
REMARK    4  A    between atoms: C_14  and  S_15
REMARK    5  A    between atoms: S_15  and  C_16
REMARK    6  A    between atoms: C_19  and  C_20
REMARK                            x       y       z     vdW  Elec       q    Type
REMARK                         _______ _______ _______ _____ _____    ______ ____
ROOT
ATOM      1  C   UNL     1      43.382   5.067  10.395  0.00  0.00    +0.000 C 
ATOM      2  C   UNL     1      44.333   3.891  10.503  0.00  0.00    +0.000 C 
ATOM      3  C   UNL     1      43.890   2.673  11.291  0.00  0.00    +0.000 C 
ATOM      4  C   UNL     1      44.960   3.567  11.858  0.00  0.00    +0.000 C 
ENDROOT
BRANCH   2   5
ATOM      5  C   UNL     1      45.107   3.667   9.208  0.00  0.00    +0.000 A 
ATOM      6  C   UNL     1      45.698   4.745   8.525  0.00  0.00    +0.000 A 
ATOM      7  C   UNL     1      46.609   4.544   7.487  0.00  0.00    +0.000 A 
ATOM      8  C   UNL     1      46.960   3.250   7.114  0.00  0.00    +0.000 A 
ATOM      9  C   UNL     1      46.373   2.149   7.750  0.00  0.00    +0.000 A 
ATOM     10  C   UNL     1      45.424   2.371   8.767  0.00  0.00    +0.000 A 
BRANCH   9  11
ATOM     11  C   UNL     1      46.794   0.741   7.412  0.00  0.00    +0.000 C 
ATOM     12  F   UNL     1      46.659   0.433   6.092  0.00  0.00    +0.000 F 
ATOM     13  F   UNL     1      48.102   0.502   7.713  0.00  0.00    +0.000 F 
ATOM     14  F   UNL     1      46.081  -0.200   8.091  0.00  0.00    +0.000 F 
ENDBRANCH   9  11
ENDBRANCH   2   5
BRANCH   4  15
ATOM     15  S   UNL     1      44.574   4.440  13.328  0.00  0.00    +0.000 S 
BRANCH  15  16
ATOM     16  C   UNL     1      45.725   5.799  13.214  0.00  0.00    +0.000 A 
ATOM     17  C   UNL     1      45.255   7.043  12.808  0.00  0.00    +0.000 A 
ATOM     18  C   UNL     1      46.149   8.115  12.760  0.00  0.00    +0.000 A 
ATOM     19  C   UNL     1      47.487   7.919  13.114  0.00  0.00    +0.000 A 
ATOM     20  C   UNL     1      47.862   6.636  13.482  0.00  0.00    +0.000 A 
ATOM     21  N   UNL     1      47.018   5.576  13.539  0.00  0.00    +0.000 NA
BRANCH  19  22
ATOM     22  C   UNL     1      48.418   9.072  13.094  0.00  0.00    +0.000 C 
ATOM     23  N   UNL     1      48.146  10.158  13.877  0.00  0.00    +0.000 N 
ATOM     24  O   UNL     1      49.411   9.063  12.381  0.00  0.00    +0.000 OA
ATOM     25  H   UNL     1      47.353  10.277  14.485  0.00  0.00    +0.000 HD
ATOM     26  H   UNL     1      48.806  10.927  13.817  0.00  0.00    +0.000 HD
ENDBRANCH  19  22
ENDBRANCH  15  16
ENDBRANCH   4  15
TORSDOF 5
ENDMDL
MODEL 5
REMARK VINA RESULT:    -6.253      4.318      6.783
REMARK INTER + INTRA:          -9.030
REMARK INTER:                  -8.250
REMARK INTRA:                  -0.780
REMARK UNBOUND:                -0.949
REMARK  Name = 
REMARK  6 active torsions:
REMARK  status: ('A' for Active; 'I' for Inactive)
REMARK    1  A    between atoms: C_1  and  C_2
REMARK    2  A    between atoms: C_2  and  C_3
REMARK    3  A    between atoms: C_7  and  C_8
REMARK    4  A    between atoms: C_14  and  S_15
REMARK    5  A    between atoms: S_15  and  C_16
REMARK    6  A    between atoms: C_19  and  C_20
REMARK                            x       y       z     vdW  Elec       q    Type
REMARK                         _______ _______ _______ _____ _____    ______ ____
ROOT
ATOM      1  C   UNL     1      43.409   6.557  11.004  0.00  0.00    +0.000 C 
ATOM      2  C   UNL     1      44.420   5.651  11.678  0.00  0.00    +0.000 C 
ATOM      3  C   UNL     1      44.407   5.552  13.192  0.00  0.00    +0.000 C 
ATOM      4  C   UNL     1      45.538   6.276  12.512  0.00  0.00    +0.000 C 
ENDROOT
BRANCH   2   5
ATOM      5  C   UNL     1      44.660   4.375  10.878  0.00  0.00    +0.000 A 
ATOM      6  C   UNL     1      43.894   3.220  11.116  0.00  0.00    +0.000 A 
ATOM      7  C   UNL     1      43.919   2.131  10.244  0.00  0.00    +0.000 A 
ATOM      8  C   UNL     1      44.711   2.177   9.100  0.00  0.00    +0.000 A 
ATOM      9  C   UNL     1      45.510   3.299   8.841  0.00  0.00    +0.000 A 
ATOM     10  C   UNL     1      45.503   4.370   9.753  0.00  0.00    +0.000 A 
BRANCH   9  11
ATOM     11  C   UNL     1      46.317   3.400   7.571  0.00  0.00    +0.000 C 
ATOM     12  F   UNL     1      46.977   4.584   7.437  0.00  0.00    +0.000 F 
ATOM     13  F   UNL     1      47.275   2.434   7.484  0.00  0.00    +0.000 F 
ATOM     14  F   UNL     1      45.555   3.268   6.450  0.00  0.00    +0.000 F 
ENDBRANCH   9  11
ENDBRANCH   2   5
BRANCH   4  15
ATOM     15  S   UNL     1      45.670   8.001  12.799  0.00  0.00    +0.000 S 
BRANCH  15  16
ATOM     16  C   UNL     1      47.376   8.277  12.359  0.00  0.00    +0.000 A 
ATOM     17  C   UNL     1      48.250   7.195  12.348  0.00  0.00    +0.000 A 
ATOM     18  C   UNL     1      49.575   7.405  11.963  0.00  0.00    +0.000 A 
ATOM     19  C   UNL     1      49.997   8.688  11.602  0.00  0.00    +0.000 A 
ATOM     20  C   UNL     1      49.057   9.705  11.670  0.00  0.00    +0.000 A 
ATOM     21  N   UNL     1      47.764   9.531  12.038  0.00  0.00    +0.000 NA
BRANCH  19  22
ATOM     22  C   UNL     1      51.397   8.893  11.160  0.00  0.00    +0.000 C 
ATOM     23  N   UNL     1      52.359   8.018  11.577  0.00  0.00    +0.000 N 
ATOM     24  O   UNL     1      51.696   9.836  10.442  0.00  0.00    +0.000 OA
ATOM     25  H   UNL     1      52.228   7.222  12.179  0.00  0.00    +0.000 HD
ATOM     26  H   UNL     1      53.304   8.209  11.259  0.00  0.00    +0.000 HD
ENDBRANCH  19  22
ENDBRANCH  15  16
ENDBRANCH   4  15
TORSDOF 5
ENDMDL
MODEL 6
REMARK VINA RESULT:    -6.173      4.736      6.533
REMARK INTER + INTRA:          -8.926
REMARK INTER:                  -8.167
REMARK INTRA:                  -0.759
REMARK UNBOUND:                -0.949
REMARK  Name = 
REMARK  6 active torsions:
REMARK  status: ('A' for Active; 'I' for Inactive)
REMARK    1  A    between atoms: C_1  and  C_2
REMARK    2  A    between atoms: C_2  and  C_3
REMARK    3  A    between atoms: C_7  and  C_8
REMARK    4  A    between atoms: C_14  and  S_15
REMARK    5  A    between atoms: S_15  and  C_16
REMARK    6  A    between atoms: C_19  and  C_20
REMARK                            x       y       z     vdW  Elec       q    Type
REMARK                         _______ _______ _______ _____ _____    ______ ____
ROOT
ATOM      1  C   UNL     1      47.970   8.943  15.206  0.00  0.00    +0.000 C 
ATOM      2  C   UNL     1      48.881   7.733  15.156  0.00  0.00    +0.000 C 
ATOM      3  C   UNL     1      50.180   7.836  14.380  0.00  0.00    +0.000 C 
ATOM      4  C   UNL     1      49.061   6.993  13.831  0.00  0.00    +0.000 C 
ENDROOT
BRANCH   2   5
ATOM      5  C   UNL     1      48.895   6.979  16.483  0.00  0.00    +0.000 A 
ATOM      6  C   UNL     1      48.906   7.673  17.706  0.00  0.00    +0.000 A 
ATOM      7  C   UNL     1      48.670   7.024  18.918  0.00  0.00    +0.000 A 
ATOM      8  C   UNL     1      48.407   5.657  18.934  0.00  0.00    +0.000 A 
ATOM      9  C   UNL     1      48.415   4.924  17.739  0.00  0.00    +0.000 A 
ATOM     10  C   UNL     1      48.695   5.589  16.530  0.00  0.00    +0.000 A 
BRANCH   9  11
ATOM     11  C   UNL     1      48.059   3.459  17.725  0.00  0.00    +0.000 C 
ATOM     12  F   UNL     1      46.759   3.216  17.398  0.00  0.00    +0.000 F 
ATOM     13  F   UNL     1      48.802   2.752  16.826  0.00  0.00    +0.000 F 
ATOM     14  F   UNL     1      48.262   2.855  18.928  0.00  0.00    +0.000 F 
ENDBRANCH   9  11
ENDBRANCH   2   5
BRANCH   4  15
ATOM     15  S   UNL     1      48.326   7.520  12.330  0.00  0.00    +0.000 S 
BRANCH  15  16
ATOM     16  C   UNL     1      47.002   6.334  12.178  0.00  0.00    +0.000 A 
ATOM     17  C   UNL     1      46.664   5.562  13.284  0.00  0.00    +0.000 A 
ATOM     18  C   UNL     1      45.600   4.664  13.175  0.00  0.00    +0.000 A 
ATOM     19  C   UNL     1      44.904   4.556  11.968  0.00  0.00    +0.000 A 
ATOM     20  C   UNL     1      45.334   5.351  10.917  0.00  0.00    +0.000 A 
ATOM     21  N   UNL     1      46.361   6.233  10.992  0.00  0.00    +0.000 NA
BRANCH  19  22
ATOM     22  C   UNL     1      43.754   3.626  11.876  0.00  0.00    +0.000 C 
ATOM     23  N   UNL     1      43.837   2.405  12.483  0.00  0.00    +0.000 N 
ATOM     24  O   UNL     1      42.746   3.935  11.257  0.00  0.00    +0.000 OA
ATOM     25  H   UNL     1      44.620   2.044  13.002  0.00  0.00    +0.000 HD
ATOM     26  H   UNL     1      43.029   1.799  12.379  0.00  0.00    +0.000 HD
ENDBRANCH  19  22
ENDBRANCH  15  16
ENDBRANCH   4  15
TORSDOF 5
ENDMDL
MODEL 7
REMARK VINA RESULT:    -6.020      5.520      7.793
REMARK INTER + INTRA:          -8.728
REMARK INTER:                  -7.659
REMARK INTRA:                  -1.069
REMARK UNBOUND:                -0.949
REMARK  Name = 
REMARK  6 active torsions:
REMARK  status: ('A' for Active; 'I' for Inactive)
REMARK    1  A    between atoms: C_1  and  C_2
REMARK    2  A    between atoms: C_2  and  C_3
REMARK    3  A    between atoms: C_7  and  C_8
REMARK    4  A    between atoms: C_14  and  S_15
REMARK    5  A    between atoms: S_15  and  C_16
REMARK    6  A    between atoms: C_19  and  C_20
REMARK                            x       y       z     vdW  Elec       q    Type
REMARK                         _______ _______ _______ _____ _____    ______ ____
ROOT
ATOM      1  C   UNL     1      48.824   6.991  12.142  0.00  0.00    +0.000 C 
ATOM      2  C   UNL     1      47.647   7.658  12.827  0.00  0.00    +0.000 C 
ATOM      3  C   UNL     1      47.655   9.167  12.975  0.00  0.00    +0.000 C 
ATOM      4  C   UNL     1      47.855   8.308  14.195  0.00  0.00    +0.000 C 
ENDROOT
BRANCH   2   5
ATOM      5  C   UNL     1      46.327   6.978  12.475  0.00  0.00    +0.000 A 
ATOM      6  C   UNL     1      45.290   7.696  11.853  0.00  0.00    +0.000 A 
ATOM      7  C   UNL     1      44.182   7.052  11.301  0.00  0.00    +0.000 A 
ATOM      8  C   UNL     1      44.091   5.664  11.351  0.00  0.00    +0.000 A 
ATOM      9  C   UNL     1      45.089   4.914  11.987  0.00  0.00    +0.000 A 
ATOM     10  C   UNL     1      46.179   5.584  12.574  0.00  0.00    +0.000 A 
BRANCH   9  11
ATOM     11  C   UNL     1      45.047   3.407  11.987  0.00  0.00    +0.000 C 
ATOM     12  F   UNL     1      45.221   2.856  10.753  0.00  0.00    +0.000 F 
ATOM     13  F   UNL     1      46.017   2.859  12.774  0.00  0.00    +0.000 F 
ATOM     14  F   UNL     1      43.868   2.912  12.455  0.00  0.00    +0.000 F 
ENDBRANCH   9  11
ENDBRANCH   2   5
BRANCH   4  15
ATOM     15  S   UNL     1      49.416   8.396  14.988  0.00  0.00    +0.000 S 
BRANCH  15  16
ATOM     16  C   UNL     1      49.389   6.885  15.935  0.00  0.00    +0.000 A 
ATOM     17  C   UNL     1      48.264   6.070  15.865  0.00  0.00    +0.000 A 
ATOM     18  C   UNL     1      48.262   4.867  16.574  0.00  0.00    +0.000 A 
ATOM     19  C   UNL     1      49.377   4.508  17.336  0.00  0.00    +0.000 A 
ATOM     20  C   UNL     1      50.439   5.400  17.361  0.00  0.00    +0.000 A 
ATOM     21  N   UNL     1      50.471   6.574  16.683  0.00  0.00    +0.000 NA
BRANCH  19  22
ATOM     22  C   UNL     1      49.378   3.212  18.055  0.00  0.00    +0.000 C 
ATOM     23  N   UNL     1      48.623   3.080  19.186  0.00  0.00    +0.000 N 
ATOM     24  O   UNL     1      50.052   2.274  17.655  0.00  0.00    +0.000 OA
ATOM     25  H   UNL     1      48.047   3.788  19.610  0.00  0.00    +0.000 HD
ATOM     26  H   UNL     1      48.668   2.178  19.649  0.00  0.00    +0.000 HD
ENDBRANCH  19  22
ENDBRANCH  15  16
ENDBRANCH   4  15
TORSDOF 5
ENDMDL
MODEL 8
REMARK VINA RESULT:    -5.782      5.677      7.753
REMARK INTER + INTRA:          -8.421
REMARK INTER:                  -7.784
REMARK INTRA:                  -0.637
REMARK UNBOUND:                -0.949
REMARK  Name = 
REMARK  6 active torsions:
REMARK  status: ('A' for Active; 'I' for Inactive)
REMARK    1  A    between atoms: C_1  and  C_2
REMARK    2  A    between atoms: C_2  and  C_3
REMARK    3  A    between atoms: C_7  and  C_8
REMARK    4  A    between atoms: C_14  and  S_15
REMARK    5  A    between atoms: S_15  and  C_16
REMARK    6  A    between atoms: C_19  and  C_20
REMARK                            x       y       z     vdW  Elec       q    Type
REMARK                         _______ _______ _______ _____ _____    ______ ____
ROOT
ATOM      1  C   UNL     1      45.872   6.048  11.131  0.00  0.00    +0.000 C 
ATOM      2  C   UNL     1      46.566   6.907  12.170  0.00  0.00    +0.000 C 
ATOM      3  C   UNL     1      48.016   6.610  12.502  0.00  0.00    +0.000 C 
ATOM      4  C   UNL     1      46.949   6.284  13.512  0.00  0.00    +0.000 C 
ENDROOT
BRANCH   2   5
ATOM      5  C   UNL     1      46.134   8.367  12.078  0.00  0.00    +0.000 A 
ATOM      6  C   UNL     1      47.082   9.404  12.134  0.00  0.00    +0.000 A 
ATOM      7  C   UNL     1      46.750  10.719  11.808  0.00  0.00    +0.000 A 
ATOM      8  C   UNL     1      45.454  11.027  11.405  0.00  0.00    +0.000 A 
ATOM      9  C   UNL     1      44.473  10.028  11.363  0.00  0.00    +0.000 A 
ATOM     10  C   UNL     1      44.817   8.715  11.736  0.00  0.00    +0.000 A 
BRANCH   9  11
ATOM     11  C   UNL     1      43.083  10.325  10.859  0.00  0.00    +0.000 C 
ATOM     12  F   UNL     1      42.349   9.209  10.591  0.00  0.00    +0.000 F 
ATOM     13  F   UNL     1      42.346  11.042  11.756  0.00  0.00    +0.000 F 
ATOM     14  F   UNL     1      43.083  11.058   9.712  0.00  0.00    +0.000 F 
ENDBRANCH   9  11
ENDBRANCH   2   5
BRANCH   4  15
ATOM     15  S   UNL     1      46.698   4.591  13.891  0.00  0.00    +0.000 S 
BRANCH  15  16
ATOM     16  C   UNL     1      47.414   4.510  15.522  0.00  0.00    +0.000 A 
ATOM     17  C   UNL     1      48.251   5.538  15.939  0.00  0.00    +0.000 A 
ATOM     18  C   UNL     1      48.778   5.494  17.231  0.00  0.00    +0.000 A 
ATOM     19  C   UNL     1      48.459   4.425  18.073  0.00  0.00    +0.000 A 
ATOM     20  C   UNL     1      47.636   3.436  17.556  0.00  0.00    +0.000 A 
ATOM     21  N   UNL     1      47.109   3.452  16.307  0.00  0.00    +0.000 NA
BRANCH  19  22
ATOM     22  C   UNL     1      48.994   4.407  19.455  0.00  0.00    +0.000 C 
ATOM     23  N   UNL     1      48.354   3.664  20.406  0.00  0.00    +0.000 N 
ATOM     24  O   UNL     1      49.988   5.054  19.751  0.00  0.00    +0.000 OA
ATOM     25  H   UNL     1      47.523   3.109  20.276  0.00  0.00    +0.000 HD
ATOM     26  H   UNL     1      48.751   3.695  21.339  0.00  0.00    +0.000 HD
ENDBRANCH  19  22
ENDBRANCH  15  16
ENDBRANCH   4  15
TORSDOF 5
ENDMDL
MODEL 9
REMARK VINA RESULT:    -5.619      4.678      6.438
REMARK INTER + INTRA:          -8.210
REMARK INTER:                  -7.416
REMARK INTRA:                  -0.794
REMARK UNBOUND:                -0.949
REMARK  Name = 
REMARK  6 active torsions:
REMARK  status: ('A' for Active; 'I' for Inactive)
REMARK    1  A    between atoms: C_1  and  C_2
REMARK    2  A    between atoms: C_2  and  C_3
REMARK    3  A    between atoms: C_7  and  C_8
REMARK    4  A    between atoms: C_14  and  S_15
REMARK    5  A    between atoms: S_15  and  C_16
REMARK    6  A    between atoms: C_19  and  C_20
REMARK                            x       y       z     vdW  Elec       q    Type
REMARK                         _______ _______ _______ _____ _____    ______ ____
ROOT
ATOM      1  C   UNL     1      48.355   8.529  15.851  0.00  0.00    +0.000 C 
ATOM      2  C   UNL     1      49.206   7.444  15.223  0.00  0.00    +0.000 C 
ATOM      3  C   UNL     1      50.171   7.829  14.119  0.00  0.00    +0.000 C 
ATOM      4  C   UNL     1      48.940   7.035  13.775  0.00  0.00    +0.000 C 
ENDROOT
BRANCH   2   5
ATOM      5  C   UNL     1      49.667   6.418  16.255  0.00  0.00    +0.000 A 
ATOM      6  C   UNL     1      48.781   5.446  16.751  0.00  0.00    +0.000 A 
ATOM      7  C   UNL     1      49.231   4.356  17.496  0.00  0.00    +0.000 A 
ATOM      8  C   UNL     1      50.591   4.206  17.755  0.00  0.00    +0.000 A 
ATOM      9  C   UNL     1      51.504   5.168  17.301  0.00  0.00    +0.000 A 
ATOM     10  C   UNL     1      51.026   6.282  16.586  0.00  0.00    +0.000 A 
BRANCH   9  11
ATOM     11  C   UNL     1      52.987   4.987  17.506  0.00  0.00    +0.000 C 
ATOM     12  F   UNL     1      53.379   3.683  17.538  0.00  0.00    +0.000 F 
ATOM     13  F   UNL     1      53.723   5.567  16.515  0.00  0.00    +0.000 F 
ATOM     14  F   UNL     1      53.430   5.540  18.668  0.00  0.00    +0.000 F 
ENDBRANCH   9  11
ENDBRANCH   2   5
BRANCH   4  15
ATOM     15  S   UNL     1      47.741   7.818  12.763  0.00  0.00    +0.000 S 
BRANCH  15  16
ATOM     16  C   UNL     1      46.695   6.431  12.361  0.00  0.00    +0.000 A 
ATOM     17  C   UNL     1      46.772   5.284  13.142  0.00  0.00    +0.000 A 
ATOM     18  C   UNL     1      45.922   4.214  12.852  0.00  0.00    +0.000 A 
ATOM     19  C   UNL     1      45.020   4.315  11.789  0.00  0.00    +0.000 A 
ATOM     20  C   UNL     1      45.037   5.490  11.054  0.00  0.00    +0.000 A 
ATOM     21  N   UNL     1      45.848   6.545  11.313  0.00  0.00    +0.000 NA
BRANCH  19  22
ATOM     22  C   UNL     1      44.098   3.188  11.513  0.00  0.00    +0.000 C 
ATOM     23  N   UNL     1      43.672   2.409  12.551  0.00  0.00    +0.000 N 
ATOM     24  O   UNL     1      43.729   2.945  10.373  0.00  0.00    +0.000 OA
ATOM     25  H   UNL     1      43.925   2.508  13.520  0.00  0.00    +0.000 HD
ATOM     26  H   UNL     1      43.053   1.642  12.308  0.00  0.00    +0.000 HD
ENDBRANCH  19  22
ENDBRANCH  15  16
ENDBRANCH   4  15
TORSDOF 5
ENDMDL
