MODEL 1
REMARK VINA RESULT:    -7.764      0.000      0.000
REMARK INTER + INTRA:         -11.752
REMARK INTER:                 -10.941
REMARK INTRA:                  -0.811
REMARK UNBOUND:                -0.811
REMARK  Name = 
REMARK  7 active torsions:
REMARK  status: ('A' for Active; 'I' for Inactive)
REMARK    1  A    between atoms: C_2  and  C_3
REMARK    2  A    between atoms: C_6  and  C_7
REMARK    3  A    between atoms: N_9  and  C_10
REMARK    4  A    between atoms: C_10  and  C_11
REMARK    5  A    between atoms: C_14  and  C_15
REMARK    6  A    between atoms: C_15  and  N_16
REMARK    7  A    between atoms: C_17  and  C_19
REMARK                            x       y       z     vdW  Elec       q    Type
REMARK                         _______ _______ _______ _____ _____    ______ ____
ROOT
ATOM      1  C   UNL     1      46.205   5.063  13.807  0.00  0.00    +0.000 A 
ATOM      2  C   UNL     1      46.750   4.523  14.981  0.00  0.00    +0.000 A 
ATOM      3  C   UNL     1      47.840   5.134  15.621  0.00  0.00    +0.000 A 
ATOM      4  C   UNL     1      48.398   6.314  15.112  0.00  0.00    +0.000 A 
ATOM      5  C   UNL     1      47.859   6.847  13.933  0.00  0.00    +0.000 A 
ATOM      6  C   UNL     1      46.766   6.241  13.297  0.00  0.00    +0.000 A 
ENDROOT
BRANCH   1   7
ATOM      7  C   UNL     1      45.053   4.375  13.114  0.00  0.00    +0.000 C 
BRANCH   7  10
ATOM      8  C   UNL     1      44.396   3.738  10.822  0.00  0.00    +0.000 C 
ATOM      9  O   UNL     1      43.197   3.871  11.066  0.00  0.00    +0.000 OA
ATOM     10  N   UNL     1      45.373   3.969  11.767  0.00  0.00    +0.000 N 
ATOM     11  H   UNL     1      46.339   3.805  11.509  0.00  0.00    +0.000 HD
BRANCH   8  15
ATOM     12  C   UNL     1      45.902   1.981   8.108  0.00  0.00    +0.000 A 
ATOM     13  C   UNL     1      45.549   3.091   7.379  0.00  0.00    +0.000 A 
ATOM     14  C   UNL     1      44.908   3.967   8.293  0.00  0.00    +0.000 A 
ATOM     15  C   UNL     1      44.906   3.333   9.526  0.00  0.00    +0.000 A 
ATOM     16  O   UNL     1      45.522   2.112   9.406  0.00  0.00    +0.000 OA
BRANCH  12  18
ATOM     17  N   UNL     1      47.092  -0.204   7.422  0.00  0.00    +0.000 NA
ATOM     18  C   UNL     1      46.561   0.781   7.739  0.00  0.00    +0.000 C 
ENDBRANCH  12  18
ENDBRANCH   8  15
ENDBRANCH   7  10
ENDBRANCH   1   7
BRANCH   4  19
ATOM     19  C   UNL     1      49.550   7.010  15.799  0.00  0.00    +0.000 C 
BRANCH  19  20
ATOM     20  N   UNL     1      50.521   6.080  16.314  0.00  0.00    +0.000 N 
ATOM     21  C   UNL     1      50.636   5.835  17.661  0.00  0.00    +0.000 C 
ATOM     22  O   UNL     1      49.907   6.371  18.493  0.00  0.00    +0.000 OA
ATOM     23  H   UNL     1      51.310   5.864  15.712  0.00  0.00    +0.000 HD
BRANCH  21  24
ATOM     24  C   UNL     1      51.644   4.840  18.051  0.00  0.00    +0.000 A 
ATOM     25  C   UNL     1      52.803   5.237  18.706  0.00  0.00    +0.000 A 
ATOM     26  S   UNL     1      53.829   3.939  19.126  0.00  0.00    +0.000 S 
ATOM     27  C   UNL     1      52.786   2.806  18.402  0.00  0.00    +0.000 A 
ATOM     28  N   UNL     1      53.092   1.481  18.380  0.00  0.00    +0.000 NA
ATOM     29  C   UNL     1      52.224   0.742  17.773  0.00  0.00    +0.000 A 
ATOM     30  N   UNL     1      51.073   1.207  17.191  0.00  0.00    +0.000 N 
ATOM     31  C   UNL     1      50.703   2.529  17.225  0.00  0.00    +0.000 A 
ATOM     32  O   UNL     1      49.633   2.901  16.755  0.00  0.00    +0.000 OA
ATOM     33  C   UNL     1      51.658   3.407  17.873  0.00  0.00    +0.000 A 
ATOM     34  H   UNL     1      50.425   0.576  16.745  0.00  0.00    +0.000 HD
ENDBRANCH  21  24
ENDBRANCH  19  20
ENDBRANCH   4  19
TORSDOF 7
ENDMDL
MODEL 2
REMARK VINA RESULT:    -7.493      2.683      3.186
REMARK INTER + INTRA:         -11.371
REMARK INTER:                 -10.784
REMARK INTRA:                  -0.587
REMARK UNBOUND:                -0.811
REMARK  Name = 
REMARK  7 active torsions:
REMARK  status: ('A' for Active; 'I' for Inactive)
REMARK    1  A    between atoms: C_2  and  C_3
REMARK    2  A    between atoms: C_6  and  C_7
REMARK    3  A    between atoms: N_9  and  C_10
REMARK    4  A    between atoms: C_10  and  C_11
REMARK    5  A    between atoms: C_14  and  C_15
REMARK    6  A    between atoms: C_15  and  N_16
REMARK    7  A    between atoms: C_17  and  C_19
REMARK                            x       y       z     vdW  Elec       q    Type
REMARK                         _______ _______ _______ _____ _____    ______ ____
ROOT
ATOM      1  C   UNL     1      44.549   6.135  11.744  0.00  0.00    +0.000 A 
ATOM      2  C   UNL     1      45.492   5.527  12.584  0.00  0.00    +0.000 A 
ATOM      3  C   UNL     1      46.452   6.290  13.268  0.00  0.00    +0.000 A 
ATOM      4  C   UNL     1      46.478   7.686  13.141  0.00  0.00    +0.000 A 
ATOM      5  C   UNL     1      45.542   8.291  12.292  0.00  0.00    +0.000 A 
ATOM      6  C   UNL     1      44.578   7.530  11.615  0.00  0.00    +0.000 A 
ENDROOT
BRANCH   1   7
ATOM      7  C   UNL     1      43.544   5.296  10.992  0.00  0.00    +0.000 C 
BRANCH   7  10
ATOM      8  C   UNL     1      45.097   4.390   9.300  0.00  0.00    +0.000 C 
ATOM      9  O   UNL     1      45.484   5.511   8.970  0.00  0.00    +0.000 OA
ATOM     10  N   UNL     1      44.152   4.195  10.285  0.00  0.00    +0.000 N 
ATOM     11  H   UNL     1      43.853   3.247  10.482  0.00  0.00    +0.000 HD
BRANCH   8  15
ATOM     12  C   UNL     1      46.808   1.979   7.305  0.00  0.00    +0.000 A 
ATOM     13  C   UNL     1      46.093   1.068   8.045  0.00  0.00    +0.000 A 
ATOM     14  C   UNL     1      45.305   1.833   8.944  0.00  0.00    +0.000 A 
ATOM     15  C   UNL     1      45.592   3.167   8.699  0.00  0.00    +0.000 A 
ATOM     16  O   UNL     1      46.516   3.250   7.687  0.00  0.00    +0.000 OA
BRANCH  12  18
ATOM     17  N   UNL     1      48.542   1.689   5.417  0.00  0.00    +0.000 NA
ATOM     18  C   UNL     1      47.755   1.813   6.264  0.00  0.00    +0.000 C 
ENDBRANCH  12  18
ENDBRANCH   8  15
ENDBRANCH   7  10
ENDBRANCH   1   7
BRANCH   4  19
ATOM     19  C   UNL     1      47.480   8.533  13.891  0.00  0.00    +0.000 C 
BRANCH  19  20
ATOM     20  N   UNL     1      47.888   7.927  15.132  0.00  0.00    +0.000 N 
ATOM     21  C   UNL     1      49.158   7.433  15.306  0.00  0.00    +0.000 C 
ATOM     22  O   UNL     1      50.018   7.504  14.431  0.00  0.00    +0.000 OA
ATOM     23  H   UNL     1      47.147   7.588  15.738  0.00  0.00    +0.000 HD
BRANCH  21  24
ATOM     24  C   UNL     1      49.455   6.870  16.630  0.00  0.00    +0.000 A 
ATOM     25  C   UNL     1      50.251   7.571  17.526  0.00  0.00    +0.000 A 
ATOM     26  S   UNL     1      50.443   6.785  19.029  0.00  0.00    +0.000 S 
ATOM     27  C   UNL     1      49.513   5.456  18.516  0.00  0.00    +0.000 A 
ATOM     28  N   UNL     1      49.304   4.386  19.331  0.00  0.00    +0.000 NA
ATOM     29  C   UNL     1      48.604   3.439  18.800  0.00  0.00    +0.000 A 
ATOM     30  N   UNL     1      48.087   3.467  17.530  0.00  0.00    +0.000 N 
ATOM     31  C   UNL     1      48.237   4.542  16.689  0.00  0.00    +0.000 A 
ATOM     32  O   UNL     1      47.704   4.562  15.585  0.00  0.00    +0.000 OA
ATOM     33  C   UNL     1      49.039   5.623  17.227  0.00  0.00    +0.000 A 
ATOM     34  H   UNL     1      47.534   2.701  17.178  0.00  0.00    +0.000 HD
ENDBRANCH  21  24
ENDBRANCH  19  20
ENDBRANCH   4  19
TORSDOF 7
ENDMDL
MODEL 3
REMARK VINA RESULT:    -7.461      2.577      3.102
REMARK INTER + INTRA:         -11.325
REMARK INTER:                 -10.198
REMARK INTRA:                  -1.127
REMARK UNBOUND:                -0.811
REMARK  Name = 
REMARK  7 active torsions:
REMARK  status: ('A' for Active; 'I' for Inactive)
REMARK    1  A    between atoms: C_2  and  C_3
REMARK    2  A    between atoms: C_6  and  C_7
REMARK    3  A    between atoms: N_9  and  C_10
REMARK    4  A    between atoms: C_10  and  C_11
REMARK    5  A    between atoms: C_14  and  C_15
REMARK    6  A    between atoms: C_15  and  N_16
REMARK    7  A    between atoms: C_17  and  C_19
REMARK                            x       y       z     vdW  Elec       q    Type
REMARK                         _______ _______ _______ _____ _____    ______ ____
ROOT
ATOM      1  C   UNL     1      45.938   7.158  11.806  0.00  0.00    +0.000 A 
ATOM      2  C   UNL     1      47.241   6.646  11.886  0.00  0.00    +0.000 A 
ATOM      3  C   UNL     1      48.223   7.281  12.663  0.00  0.00    +0.000 A 
ATOM      4  C   UNL     1      47.917   8.436  13.395  0.00  0.00    +0.000 A 
ATOM      5  C   UNL     1      46.617   8.953  13.305  0.00  0.00    +0.000 A 
ATOM      6  C   UNL     1      45.635   8.314  12.536  0.00  0.00    +0.000 A 
ENDROOT
BRANCH   1   7
ATOM      7  C   UNL     1      44.904   6.479  10.941  0.00  0.00    +0.000 C 
BRANCH   7  10
ATOM      8  C   UNL     1      44.875   4.404   9.604  0.00  0.00    +0.000 C 
ATOM      9  O   UNL     1      43.794   4.046  10.074  0.00  0.00    +0.000 OA
ATOM     10  N   UNL     1      45.487   5.584   9.970  0.00  0.00    +0.000 N 
ATOM     11  H   UNL     1      46.393   5.799   9.571  0.00  0.00    +0.000 HD
BRANCH   8  15
ATOM     12  C   UNL     1      46.423   1.796   7.727  0.00  0.00    +0.000 A 
ATOM     13  C   UNL     1      46.828   2.820   6.906  0.00  0.00    +0.000 A 
ATOM     14  C   UNL     1      46.307   4.008   7.482  0.00  0.00    +0.000 A 
ATOM     15  C   UNL     1      45.611   3.632   8.620  0.00  0.00    +0.000 A 
ATOM     16  O   UNL     1      45.689   2.270   8.767  0.00  0.00    +0.000 OA
BRANCH  12  18
ATOM     17  N   UNL     1      46.828  -0.750   7.615  0.00  0.00    +0.000 NA
ATOM     18  C   UNL     1      46.636   0.396   7.663  0.00  0.00    +0.000 C 
ENDBRANCH  12  18
ENDBRANCH   8  15
ENDBRANCH   7  10
ENDBRANCH   1   7
BRANCH   4  19
ATOM     19  C   UNL     1      48.946   9.122  14.265  0.00  0.00    +0.000 C 
BRANCH  19  20
ATOM     20  N   UNL     1      49.265   8.354  15.441  0.00  0.00    +0.000 N 
ATOM     21  C   UNL     1      48.639   8.585  16.641  0.00  0.00    +0.000 C 
ATOM     22  O   UNL     1      47.760   9.434  16.773  0.00  0.00    +0.000 OA
ATOM     23  H   UNL     1      50.163   7.879  15.445  0.00  0.00    +0.000 HD
BRANCH  21  24
ATOM     24  C   UNL     1      49.034   7.711  17.754  0.00  0.00    +0.000 A 
ATOM     25  C   UNL     1      49.476   8.258  18.951  0.00  0.00    +0.000 A 
ATOM     26  S   UNL     1      49.839   7.091  20.143  0.00  0.00    +0.000 S 
ATOM     27  C   UNL     1      49.469   5.812  19.083  0.00  0.00    +0.000 A 
ATOM     28  N   UNL     1      49.599   4.515  19.473  0.00  0.00    +0.000 NA
ATOM     29  C   UNL     1      49.312   3.651  18.557  0.00  0.00    +0.000 A 
ATOM     30  N   UNL     1      48.896   3.965  17.289  0.00  0.00    +0.000 N 
ATOM     31  C   UNL     1      48.710   5.258  16.866  0.00  0.00    +0.000 A 
ATOM     32  O   UNL     1      48.272   5.503  15.746  0.00  0.00    +0.000 OA
ATOM     33  C   UNL     1      49.047   6.270  17.848  0.00  0.00    +0.000 A 
ATOM     34  H   UNL     1      48.670   3.243  16.623  0.00  0.00    +0.000 HD
ENDBRANCH  21  24
ENDBRANCH  19  20
ENDBRANCH   4  19
TORSDOF 7
ENDMDL
MODEL 4
REMARK VINA RESULT:    -7.419      1.611      2.153
REMARK INTER + INTRA:         -11.267
REMARK INTER:                 -10.311
REMARK INTRA:                  -0.956
REMARK UNBOUND:                -0.811
REMARK  Name = 
REMARK  7 active torsions:
REMARK  status: ('A' for Active; 'I' for Inactive)
REMARK    1  A    between atoms: C_2  and  C_3
REMARK    2  A    between atoms: C_6  and  C_7
REMARK    3  A    between atoms: N_9  and  C_10
REMARK    4  A    between atoms: C_10  and  C_11
REMARK    5  A    between atoms: C_14  and  C_15
REMARK    6  A    between atoms: C_15  and  N_16
REMARK    7  A    between atoms: C_17  and  C_19
REMARK                            x       y       z     vdW  Elec       q    Type
REMARK                         _______ _______ _______ _____ _____    ______ ____
ROOT
ATOM      1  C   UNL     1      45.736   6.985  11.996  0.00  0.00    +0.000 A 
ATOM      2  C   UNL     1      45.675   8.327  12.399  0.00  0.00    +0.000 A 
ATOM      3  C   UNL     1      46.549   8.831  13.374  0.00  0.00    +0.000 A 
ATOM      4  C   UNL     1      47.521   8.006  13.957  0.00  0.00    +0.000 A 
ATOM      5  C   UNL     1      47.574   6.663  13.562  0.00  0.00    +0.000 A 
ATOM      6  C   UNL     1      46.706   6.161  12.582  0.00  0.00    +0.000 A 
ENDROOT
BRANCH   1   7
ATOM      7  C   UNL     1      44.767   6.452  10.968  0.00  0.00    +0.000 C 
BRANCH   7  10
ATOM      8  C   UNL     1      44.793   4.419   9.568  0.00  0.00    +0.000 C 
ATOM      9  O   UNL     1      43.681   4.064   9.961  0.00  0.00    +0.000 OA
ATOM     10  N   UNL     1      45.396   5.579  10.007  0.00  0.00    +0.000 N 
ATOM     11  H   UNL     1      46.327   5.792   9.670  0.00  0.00    +0.000 HD
BRANCH   8  15
ATOM     12  C   UNL     1      46.449   1.850   7.729  0.00  0.00    +0.000 A 
ATOM     13  C   UNL     1      46.870   2.888   6.933  0.00  0.00    +0.000 A 
ATOM     14  C   UNL     1      46.310   4.063   7.500  0.00  0.00    +0.000 A 
ATOM     15  C   UNL     1      45.576   3.667   8.607  0.00  0.00    +0.000 A 
ATOM     16  O   UNL     1      45.668   2.304   8.744  0.00  0.00    +0.000 OA
BRANCH  12  18
ATOM     17  N   UNL     1      46.858  -0.694   7.607  0.00  0.00    +0.000 NA
ATOM     18  C   UNL     1      46.683   0.454   7.661  0.00  0.00    +0.000 C 
ENDBRANCH  12  18
ENDBRANCH   8  15
ENDBRANCH   7  10
ENDBRANCH   1   7
BRANCH   4  19
ATOM     19  C   UNL     1      48.496   8.532  14.986  0.00  0.00    +0.000 C 
BRANCH  19  20
ATOM     20  N   UNL     1      49.382   7.506  15.473  0.00  0.00    +0.000 N 
ATOM     21  C   UNL     1      49.626   7.345  16.815  0.00  0.00    +0.000 C 
ATOM     22  O   UNL     1      49.088   8.044  17.671  0.00  0.00    +0.000 OA
ATOM     23  H   UNL     1      50.053   7.131  14.808  0.00  0.00    +0.000 HD
BRANCH  21  24
ATOM     24  C   UNL     1      50.524   6.241  17.180  0.00  0.00    +0.000 A 
ATOM     25  C   UNL     1      51.835   6.501  17.559  0.00  0.00    +0.000 A 
ATOM     26  S   UNL     1      52.709   5.101  17.997  0.00  0.00    +0.000 S 
ATOM     27  C   UNL     1      51.383   4.095  17.645  0.00  0.00    +0.000 A 
ATOM     28  N   UNL     1      51.470   2.743  17.779  0.00  0.00    +0.000 NA
ATOM     29  C   UNL     1      50.397   2.104  17.449  0.00  0.00    +0.000 A 
ATOM     30  N   UNL     1      49.241   2.693  17.005  0.00  0.00    +0.000 N 
ATOM     31  C   UNL     1      49.095   4.054  16.895  0.00  0.00    +0.000 A 
ATOM     32  O   UNL     1      48.025   4.552  16.560  0.00  0.00    +0.000 OA
ATOM     33  C   UNL     1      50.281   4.819  17.227  0.00  0.00    +0.000 A 
ATOM     34  H   UNL     1      48.430   2.139  16.779  0.00  0.00    +0.000 HD
ENDBRANCH  21  24
ENDBRANCH  19  20
ENDBRANCH   4  19
TORSDOF 7
ENDMDL
MODEL 5
REMARK VINA RESULT:    -6.931      1.927      2.609
REMARK INTER + INTRA:         -10.578
REMARK INTER:                  -9.602
REMARK INTRA:                  -0.977
REMARK UNBOUND:                -0.811
REMARK  Name = 
REMARK  7 active torsions:
REMARK  status: ('A' for Active; 'I' for Inactive)
REMARK    1  A    between atoms: C_2  and  C_3
REMARK    2  A    between atoms: C_6  and  C_7
REMARK    3  A    between atoms: N_9  and  C_10
REMARK    4  A    between atoms: C_10  and  C_11
REMARK    5  A    between atoms: C_14  and  C_15
REMARK    6  A    between atoms: C_15  and  N_16
REMARK    7  A    between atoms: C_17  and  C_19
REMARK                            x       y       z     vdW  Elec       q    Type
REMARK                         _______ _______ _______ _____ _____    ______ ____
ROOT
ATOM      1  C   UNL     1      45.567   6.953  12.328  0.00  0.00    +0.000 A 
ATOM      2  C   UNL     1      46.434   6.035  12.936  0.00  0.00    +0.000 A 
ATOM      3  C   UNL     1      47.477   6.466  13.771  0.00  0.00    +0.000 A 
ATOM      4  C   UNL     1      47.665   7.830  14.033  0.00  0.00    +0.000 A 
ATOM      5  C   UNL     1      46.804   8.748  13.416  0.00  0.00    +0.000 A 
ATOM      6  C   UNL     1      45.757   8.316  12.588  0.00  0.00    +0.000 A 
ENDROOT
BRANCH   1   7
ATOM      7  C   UNL     1      44.469   6.473  11.409  0.00  0.00    +0.000 C 
BRANCH   7  10
ATOM      8  C   UNL     1      44.759   4.301  10.272  0.00  0.00    +0.000 C 
ATOM      9  O   UNL     1      44.134   3.696  11.144  0.00  0.00    +0.000 OA
ATOM     10  N   UNL     1      44.965   5.664  10.322  0.00  0.00    +0.000 N 
ATOM     11  H   UNL     1      45.519   6.092   9.590  0.00  0.00    +0.000 HD
BRANCH   8  15
ATOM     12  C   UNL     1      46.149   1.963   7.966  0.00  0.00    +0.000 A 
ATOM     13  C   UNL     1      46.201   3.044   7.119  0.00  0.00    +0.000 A 
ATOM     14  C   UNL     1      45.678   4.138   7.856  0.00  0.00    +0.000 A 
ATOM     15  C   UNL     1      45.334   3.654   9.108  0.00  0.00    +0.000 A 
ATOM     16  O   UNL     1      45.629   2.315   9.170  0.00  0.00    +0.000 OA
BRANCH  12  18
ATOM     17  N   UNL     1      46.821  -0.507   7.644  0.00  0.00    +0.000 NA
ATOM     18  C   UNL     1      46.527   0.608   7.789  0.00  0.00    +0.000 C 
ENDBRANCH  12  18
ENDBRANCH   8  15
ENDBRANCH   7  10
ENDBRANCH   1   7
BRANCH   4  19
ATOM     19  C   UNL     1      48.760   8.319  14.953  0.00  0.00    +0.000 C 
BRANCH  19  20
ATOM     20  N   UNL     1      49.573   7.242  15.456  0.00  0.00    +0.000 N 
ATOM     21  C   UNL     1      49.485   6.826  16.762  0.00  0.00    +0.000 C 
ATOM     22  O   UNL     1      48.698   7.327  17.562  0.00  0.00    +0.000 OA
ATOM     23  H   UNL     1      50.415   7.023  14.931  0.00  0.00    +0.000 HD
BRANCH  21  24
ATOM     24  C   UNL     1      50.345   5.696  17.138  0.00  0.00    +0.000 A 
ATOM     25  C   UNL     1      49.783   4.477  17.496  0.00  0.00    +0.000 A 
ATOM     26  S   UNL     1      50.938   3.271  17.850  0.00  0.00    +0.000 S 
ATOM     27  C   UNL     1      52.228   4.349  17.589  0.00  0.00    +0.000 A 
ATOM     28  N   UNL     1      53.519   3.955  17.757  0.00  0.00    +0.000 NA
ATOM     29  C   UNL     1      54.392   4.885  17.553  0.00  0.00    +0.000 A 
ATOM     30  N   UNL     1      54.092   6.173  17.188  0.00  0.00    +0.000 N 
ATOM     31  C   UNL     1      52.806   6.603  16.967  0.00  0.00    +0.000 A 
ATOM     32  O   UNL     1      52.577   7.742  16.576  0.00  0.00    +0.000 OA
ATOM     33  C   UNL     1      51.784   5.603  17.209  0.00  0.00    +0.000 A 
ATOM     34  H   UNL     1      54.821   6.850  17.027  0.00  0.00    +0.000 HD
ENDBRANCH  21  24
ENDBRANCH  19  20
ENDBRANCH   4  19
TORSDOF 7
ENDMDL
MODEL 6
REMARK VINA RESULT:    -6.868      3.786      9.182
REMARK INTER + INTRA:         -10.490
REMARK INTER:                  -9.392
REMARK INTRA:                  -1.097
REMARK UNBOUND:                -0.811
REMARK  Name = 
REMARK  7 active torsions:
REMARK  status: ('A' for Active; 'I' for Inactive)
REMARK    1  A    between atoms: C_2  and  C_3
REMARK    2  A    between atoms: C_6  and  C_7
REMARK    3  A    between atoms: N_9  and  C_10
REMARK    4  A    between atoms: C_10  and  C_11
REMARK    5  A    between atoms: C_14  and  C_15
REMARK    6  A    between atoms: C_15  and  N_16
REMARK    7  A    between atoms: C_17  and  C_19
REMARK                            x       y       z     vdW  Elec       q    Type
REMARK                         _______ _______ _______ _____ _____    ______ ____
ROOT
ATOM      1  C   UNL     1      49.575   4.561  17.650  0.00  0.00    +0.000 A 
ATOM      2  C   UNL     1      50.310   5.702  17.301  0.00  0.00    +0.000 A 
ATOM      3  C   UNL     1      49.880   6.554  16.271  0.00  0.00    +0.000 A 
ATOM      4  C   UNL     1      48.691   6.291  15.577  0.00  0.00    +0.000 A 
ATOM      5  C   UNL     1      47.963   5.144  15.920  0.00  0.00    +0.000 A 
ATOM      6  C   UNL     1      48.388   4.298  16.954  0.00  0.00    +0.000 A 
ENDROOT
BRANCH   1   7
ATOM      7  C   UNL     1      50.068   3.640  18.741  0.00  0.00    +0.000 C 
BRANCH   7  10
ATOM      8  C   UNL     1      51.544   2.007  17.622  0.00  0.00    +0.000 C 
ATOM      9  O   UNL     1      50.600   1.452  17.059  0.00  0.00    +0.000 OA
ATOM     10  N   UNL     1      51.372   3.089  18.459  0.00  0.00    +0.000 N 
ATOM     11  H   UNL     1      52.189   3.475  18.918  0.00  0.00    +0.000 HD
BRANCH   8  15
ATOM     12  C   UNL     1      54.538   0.205  16.909  0.00  0.00    +0.000 A 
ATOM     13  C   UNL     1      55.162   1.336  17.380  0.00  0.00    +0.000 A 
ATOM     14  C   UNL     1      54.121   2.231  17.740  0.00  0.00    +0.000 A 
ATOM     15  C   UNL     1      52.924   1.591  17.463  0.00  0.00    +0.000 A 
ATOM     16  O   UNL     1      53.187   0.343  16.954  0.00  0.00    +0.000 OA
BRANCH  12  18
ATOM     17  N   UNL     1      55.487  -2.009  15.984  0.00  0.00    +0.000 NA
ATOM     18  C   UNL     1      55.053  -1.016  16.407  0.00  0.00    +0.000 C 
ENDBRANCH  12  18
ENDBRANCH   8  15
ENDBRANCH   7  10
ENDBRANCH   1   7
BRANCH   4  19
ATOM     19  C   UNL     1      48.188   7.208  14.485  0.00  0.00    +0.000 C 
BRANCH  19  20
ATOM     20  N   UNL     1      46.949   6.748  13.913  0.00  0.00    +0.000 N 
ATOM     21  C   UNL     1      46.735   6.766  12.556  0.00  0.00    +0.000 C 
ATOM     22  O   UNL     1      47.590   7.147  11.759  0.00  0.00    +0.000 OA
ATOM     23  H   UNL     1      46.145   6.720  14.532  0.00  0.00    +0.000 HD
BRANCH  21  24
ATOM     24  C   UNL     1      45.442   6.239  12.100  0.00  0.00    +0.000 A 
ATOM     25  C   UNL     1      44.496   7.091  11.545  0.00  0.00    +0.000 A 
ATOM     26  S   UNL     1      43.079   6.292  11.026  0.00  0.00    +0.000 S 
ATOM     27  C   UNL     1      43.658   4.789  11.574  0.00  0.00    +0.000 A 
ATOM     28  N   UNL     1      42.906   3.661  11.461  0.00  0.00    +0.000 NA
ATOM     29  C   UNL     1      43.459   2.599  11.944  0.00  0.00    +0.000 A 
ATOM     30  N   UNL     1      44.701   2.560  12.525  0.00  0.00    +0.000 N 
ATOM     31  C   UNL     1      45.512   3.664  12.622  0.00  0.00    +0.000 A 
ATOM     32  O   UNL     1      46.645   3.580  13.085  0.00  0.00    +0.000 OA
ATOM     33  C   UNL     1      44.926   4.891  12.118  0.00  0.00    +0.000 A 
ATOM     34  H   UNL     1      45.086   1.694  12.869  0.00  0.00    +0.000 HD
ENDBRANCH  21  24
ENDBRANCH  19  20
ENDBRANCH   4  19
TORSDOF 7
ENDMDL
MODEL 7
REMARK VINA RESULT:    -6.417      5.868      9.140
REMARK INTER + INTRA:          -9.854
REMARK INTER:                  -8.789
REMARK INTRA:                  -1.065
REMARK UNBOUND:                -0.811
REMARK  Name = 
REMARK  7 active torsions:
REMARK  status: ('A' for Active; 'I' for Inactive)
REMARK    1  A    between atoms: C_2  and  C_3
REMARK    2  A    between atoms: C_6  and  C_7
REMARK    3  A    between atoms: N_9  and  C_10
REMARK    4  A    between atoms: C_10  and  C_11
REMARK    5  A    between atoms: C_14  and  C_15
REMARK    6  A    between atoms: C_15  and  N_16
REMARK    7  A    between atoms: C_17  and  C_19
REMARK                            x       y       z     vdW  Elec       q    Type
REMARK                         _______ _______ _______ _____ _____    ______ ____
ROOT
ATOM      1  C   UNL     1      50.324   8.764  12.270  0.00  0.00    +0.000 A 
ATOM      2  C   UNL     1      49.444   9.827  12.022  0.00  0.00    +0.000 A 
ATOM      3  C   UNL     1      48.058   9.619  11.948  0.00  0.00    +0.000 A 
ATOM      4  C   UNL     1      47.517   8.340  12.138  0.00  0.00    +0.000 A 
ATOM      5  C   UNL     1      48.398   7.276  12.375  0.00  0.00    +0.000 A 
ATOM      6  C   UNL     1      49.782   7.486  12.458  0.00  0.00    +0.000 A 
ENDROOT
BRANCH   1   7
ATOM      7  C   UNL     1      51.814   9.002  12.317  0.00  0.00    +0.000 C 
BRANCH   7  10
ATOM      8  C   UNL     1      52.662   9.090  10.000  0.00  0.00    +0.000 C 
ATOM      9  O   UNL     1      52.224  10.228   9.821  0.00  0.00    +0.000 OA
ATOM     10  N   UNL     1      52.509   8.419  11.195  0.00  0.00    +0.000 N 
ATOM     11  H   UNL     1      52.862   7.472  11.261  0.00  0.00    +0.000 HD
BRANCH   8  15
ATOM     12  C   UNL     1      53.727   6.659   7.618  0.00  0.00    +0.000 A 
ATOM     13  C   UNL     1      54.785   7.516   7.428  0.00  0.00    +0.000 A 
ATOM     14  C   UNL     1      54.565   8.605   8.313  0.00  0.00    +0.000 A 
ATOM     15  C   UNL     1      53.382   8.345   8.986  0.00  0.00    +0.000 A 
ATOM     16  O   UNL     1      52.873   7.145   8.556  0.00  0.00    +0.000 OA
BRANCH  12  18
ATOM     17  N   UNL     1      53.119   4.398   6.535  0.00  0.00    +0.000 NA
ATOM     18  C   UNL     1      53.402   5.417   7.019  0.00  0.00    +0.000 C 
ENDBRANCH  12  18
ENDBRANCH   8  15
ENDBRANCH   7  10
ENDBRANCH   1   7
BRANCH   4  19
ATOM     19  C   UNL     1      46.026   8.093  12.095  0.00  0.00    +0.000 C 
BRANCH  19  20
ATOM     20  N   UNL     1      45.709   6.717  11.810  0.00  0.00    +0.000 N 
ATOM     21  C   UNL     1      44.440   6.332  11.454  0.00  0.00    +0.000 C 
ATOM     22  O   UNL     1      43.517   7.135  11.334  0.00  0.00    +0.000 OA
ATOM     23  H   UNL     1      46.342   6.017  12.184  0.00  0.00    +0.000 HD
BRANCH  21  24
ATOM     24  C   UNL     1      44.257   4.905  11.158  0.00  0.00    +0.000 A 
ATOM     25  C   UNL     1      43.493   4.107  12.000  0.00  0.00    +0.000 A 
ATOM     26  S   UNL     1      43.351   2.492  11.468  0.00  0.00    +0.000 S 
ATOM     27  C   UNL     1      44.349   2.788  10.122  0.00  0.00    +0.000 A 
ATOM     28  N   UNL     1      44.667   1.794   9.249  0.00  0.00    +0.000 NA
ATOM     29  C   UNL     1      45.456   2.156   8.293  0.00  0.00    +0.000 A 
ATOM     30  N   UNL     1      45.951   3.423   8.124  0.00  0.00    +0.000 N 
ATOM     31  C   UNL     1      45.624   4.466   8.956  0.00  0.00    +0.000 A 
ATOM     32  O   UNL     1      46.030   5.603   8.738  0.00  0.00    +0.000 OA
ATOM     33  C   UNL     1      44.761   4.107  10.065  0.00  0.00    +0.000 A 
ATOM     34  H   UNL     1      46.551   3.647   7.346  0.00  0.00    +0.000 HD
ENDBRANCH  21  24
ENDBRANCH  19  20
ENDBRANCH   4  19
TORSDOF 7
ENDMDL
MODEL 8
REMARK VINA RESULT:    -6.400      4.748      5.278
REMARK INTER + INTRA:          -9.830
REMARK INTER:                  -8.876
REMARK INTRA:                  -0.953
REMARK UNBOUND:                -0.811
REMARK  Name = 
REMARK  7 active torsions:
REMARK  status: ('A' for Active; 'I' for Inactive)
REMARK    1  A    between atoms: C_2  and  C_3
REMARK    2  A    between atoms: C_6  and  C_7
REMARK    3  A    between atoms: N_9  and  C_10
REMARK    4  A    between atoms: C_10  and  C_11
REMARK    5  A    between atoms: C_14  and  C_15
REMARK    6  A    between atoms: C_15  and  N_16
REMARK    7  A    between atoms: C_17  and  C_19
REMARK                            x       y       z     vdW  Elec       q    Type
REMARK                         _______ _______ _______ _____ _____    ______ ____
ROOT
ATOM      1  C   UNL     1      45.074   6.454  12.080  0.00  0.00    +0.000 A 
ATOM      2  C   UNL     1      45.942   5.668  12.851  0.00  0.00    +0.000 A 
ATOM      3  C   UNL     1      46.972   6.252  13.605  0.00  0.00    +0.000 A 
ATOM      4  C   UNL     1      47.146   7.643  13.620  0.00  0.00    +0.000 A 
ATOM      5  C   UNL     1      46.285   8.427  12.840  0.00  0.00    +0.000 A 
ATOM      6  C   UNL     1      45.251   7.844  12.093  0.00  0.00    +0.000 A 
ENDROOT
BRANCH   1   7
ATOM      7  C   UNL     1      43.991   5.806  11.251  0.00  0.00    +0.000 C 
BRANCH   7  10
ATOM      8  C   UNL     1      45.324   4.744   9.465  0.00  0.00    +0.000 C 
ATOM      9  O   UNL     1      45.759   5.825   9.066  0.00  0.00    +0.000 OA
ATOM     10  N   UNL     1      44.457   4.645  10.532  0.00  0.00    +0.000 N 
ATOM     11  H   UNL     1      44.110   3.727  10.784  0.00  0.00    +0.000 HD
BRANCH   8  15
ATOM     12  C   UNL     1      46.745   2.155   7.466  0.00  0.00    +0.000 A 
ATOM     13  C   UNL     1      45.942   1.330   8.215  0.00  0.00    +0.000 A 
ATOM     14  C   UNL     1      45.249   2.179   9.117  0.00  0.00    +0.000 A 
ATOM     15  C   UNL     1      45.677   3.472   8.864  0.00  0.00    +0.000 A 
ATOM     16  O   UNL     1      46.596   3.452   7.844  0.00  0.00    +0.000 OA
BRANCH  12  18
ATOM     17  N   UNL     1      48.422   1.654   5.570  0.00  0.00    +0.000 NA
ATOM     18  C   UNL     1      47.660   1.883   6.418  0.00  0.00    +0.000 C 
ENDBRANCH  12  18
ENDBRANCH   8  15
ENDBRANCH   7  10
ENDBRANCH   1   7
BRANCH   4  19
ATOM     19  C   UNL     1      48.227   8.300  14.448  0.00  0.00    +0.000 C 
BRANCH  19  20
ATOM     20  N   UNL     1      49.529   8.171  13.847  0.00  0.00    +0.000 N 
ATOM     21  C   UNL     1      50.396   9.234  13.777  0.00  0.00    +0.000 C 
ATOM     22  O   UNL     1      50.123  10.339  14.241  0.00  0.00    +0.000 OA
ATOM     23  H   UNL     1      49.660   7.394  13.206  0.00  0.00    +0.000 HD
BRANCH  21  24
ATOM     24  C   UNL     1      51.705   8.960  13.169  0.00  0.00    +0.000 A 
ATOM     25  C   UNL     1      52.870   9.387  13.793  0.00  0.00    +0.000 A 
ATOM     26  S   UNL     1      54.293   8.933  12.968  0.00  0.00    +0.000 S 
ATOM     27  C   UNL     1      53.402   8.196  11.720  0.00  0.00    +0.000 A 
ATOM     28  N   UNL     1      54.024   7.623  10.655  0.00  0.00    +0.000 NA
ATOM     29  C   UNL     1      53.222   7.128   9.771  0.00  0.00    +0.000 A 
ATOM     30  N   UNL     1      51.854   7.146   9.860  0.00  0.00    +0.000 N 
ATOM     31  C   UNL     1      51.185   7.675  10.936  0.00  0.00    +0.000 A 
ATOM     32  O   UNL     1      49.963   7.614  11.016  0.00  0.00    +0.000 OA
ATOM     33  C   UNL     1      52.039   8.270  11.946  0.00  0.00    +0.000 A 
ATOM     34  H   UNL     1      51.282   6.726   9.144  0.00  0.00    +0.000 HD
ENDBRANCH  21  24
ENDBRANCH  19  20
ENDBRANCH   4  19
TORSDOF 7
ENDMDL
MODEL 9
REMARK VINA RESULT:    -6.232      3.452      9.391
REMARK INTER + INTRA:          -9.594
REMARK INTER:                  -8.619
REMARK INTRA:                  -0.975
REMARK UNBOUND:                -0.811
REMARK  Name = 
REMARK  7 active torsions:
REMARK  status: ('A' for Active; 'I' for Inactive)
REMARK    1  A    between atoms: C_2  and  C_3
REMARK    2  A    between atoms: C_6  and  C_7
REMARK    3  A    between atoms: N_9  and  C_10
REMARK    4  A    between atoms: C_10  and  C_11
REMARK    5  A    between atoms: C_14  and  C_15
REMARK    6  A    between atoms: C_15  and  N_16
REMARK    7  A    between atoms: C_17  and  C_19
REMARK                            x       y       z     vdW  Elec       q    Type
REMARK                         _______ _______ _______ _____ _____    ______ ____
ROOT
ATOM      1  C   UNL     1      49.634   6.843  16.426  0.00  0.00    +0.000 A 
ATOM      2  C   UNL     1      50.184   7.935  15.741  0.00  0.00    +0.000 A 
ATOM      3  C   UNL     1      49.763   8.263  14.442  0.00  0.00    +0.000 A 
ATOM      4  C   UNL     1      48.765   7.514  13.805  0.00  0.00    +0.000 A 
ATOM      5  C   UNL     1      48.223   6.415  14.487  0.00  0.00    +0.000 A 
ATOM      6  C   UNL     1      48.639   6.093  15.787  0.00  0.00    +0.000 A 
ENDROOT
BRANCH   1   7
ATOM      7  C   UNL     1      50.122   6.487  17.810  0.00  0.00    +0.000 C 
BRANCH   7  10
ATOM      8  C   UNL     1      51.105   4.233  18.028  0.00  0.00    +0.000 C 
ATOM      9  O   UNL     1      50.012   3.715  18.261  0.00  0.00    +0.000 OA
ATOM     10  N   UNL     1      51.247   5.584  17.791  0.00  0.00    +0.000 N 
ATOM     11  H   UNL     1      52.180   5.949  17.642  0.00  0.00    +0.000 HD
BRANCH   8  15
ATOM     12  C   UNL     1      53.584   1.669  18.022  0.00  0.00    +0.000 A 
ATOM     13  C   UNL     1      54.459   2.712  17.833  0.00  0.00    +0.000 A 
ATOM     14  C   UNL     1      53.661   3.886  17.803  0.00  0.00    +0.000 A 
ATOM     15  C   UNL     1      52.346   3.485  17.973  0.00  0.00    +0.000 A 
ATOM     16  O   UNL     1      52.305   2.119  18.110  0.00  0.00    +0.000 OA
BRANCH  12  18
ATOM     17  N   UNL     1      53.947  -0.878  18.216  0.00  0.00    +0.000 NA
ATOM     18  C   UNL     1      53.793   0.272  18.130  0.00  0.00    +0.000 C 
ENDBRANCH  12  18
ENDBRANCH   8  15
ENDBRANCH   7  10
ENDBRANCH   1   7
BRANCH   4  19
ATOM     19  C   UNL     1      48.270   7.864  12.420  0.00  0.00    +0.000 C 
BRANCH  19  20
ATOM     20  N   UNL     1      47.538   6.783  11.812  0.00  0.00    +0.000 N 
ATOM     21  C   UNL     1      46.214   6.914  11.471  0.00  0.00    +0.000 C 
ATOM     22  O   UNL     1      45.591   7.961  11.639  0.00  0.00    +0.000 OA
ATOM     23  H   UNL     1      47.917   5.849  11.938  0.00  0.00    +0.000 HD
BRANCH  21  24
ATOM     24  C   UNL     1      45.594   5.748  10.829  0.00  0.00    +0.000 A 
ATOM     25  C   UNL     1      45.730   5.547   9.461  0.00  0.00    +0.000 A 
ATOM     26  S   UNL     1      44.988   4.114   8.904  0.00  0.00    +0.000 S 
ATOM     27  C   UNL     1      44.414   3.740  10.461  0.00  0.00    +0.000 A 
ATOM     28  N   UNL     1      43.658   2.630  10.684  0.00  0.00    +0.000 NA
ATOM     29  C   UNL     1      43.268   2.488  11.907  0.00  0.00    +0.000 A 
ATOM     30  N   UNL     1      43.571   3.349  12.930  0.00  0.00    +0.000 N 
ATOM     31  C   UNL     1      44.364   4.457  12.759  0.00  0.00    +0.000 A 
ATOM     32  O   UNL     1      44.672   5.169  13.709  0.00  0.00    +0.000 OA
ATOM     33  C   UNL     1      44.807   4.679  11.397  0.00  0.00    +0.000 A 
ATOM     34  H   UNL     1      43.249   3.173  13.869  0.00  0.00    +0.000 HD
ENDBRANCH  21  24
ENDBRANCH  19  20
ENDBRANCH   4  19
TORSDOF 7
ENDMDL
