MODEL 1
REMARK VINA RESULT:    -8.208      0.000      0.000
REMARK INTER + INTRA:         -12.796
REMARK INTER:                 -12.046
REMARK INTRA:                  -0.750
REMARK UNBOUND:                -0.750
REMARK  Name = 
REMARK  9 active torsions:
REMARK  status: ('A' for Active; 'I' for Inactive)
REMARK    1  A    between atoms: C_1  and  C_2
REMARK    2  A    between atoms: C_2  and  N_3
REMARK    3  A    between atoms: C_2  and  C_19
REMARK    4  A    between atoms: N_3  and  C_4
REMARK    5  A    between atoms: C_4  and  C_5
REMARK    6  A    between atoms: C_8  and  C_9
REMARK    7  A    between atoms: C_9  and  N_10
REMARK    8  A    between atoms: N_10  and  C_11
REMARK    9  A    between atoms: C_11  and  C_12
REMARK                            x       y       z     vdW  Elec       q    Type
REMARK                         _______ _______ _______ _____ _____    ______ ____
ROOT
ATOM      1  C   UNL     1      47.996   5.728  14.431  0.00  0.00    +0.000 C 
ENDROOT
BRANCH   1   2
ATOM      2  C   UNL     1      46.818   5.131  13.700  0.00  0.00    +0.000 A 
ATOM      3  C   UNL     1      45.752   5.922  13.266  0.00  0.00    +0.000 A 
ATOM      4  C   UNL     1      44.668   5.335  12.617  0.00  0.00    +0.000 A 
ATOM      5  C   UNL     1      44.671   3.957  12.415  0.00  0.00    +0.000 A 
ATOM      6  N   UNL     1      45.694   3.165  12.825  0.00  0.00    +0.000 NA
ATOM      7  C   UNL     1      46.735   3.766  13.448  0.00  0.00    +0.000 A 
BRANCH   5   8
ATOM      8  C   UNL     1      43.486   3.277  11.757  0.00  0.00    +0.000 C 
BRANCH   8   9
ATOM      9  N   UNL     1      43.824   2.564  10.514  0.00  0.00    +0.000 NA
ATOM     10  H   UNL     1      42.942   2.178  10.162  0.00  0.00    +0.000 HD
BRANCH   9  11
ATOM     11  C   UNL     1      44.343   3.470   9.493  0.00  0.00    +0.000 C 
BRANCH  11  12
ATOM     12  C   UNL     1      45.333   2.744   8.664  0.00  0.00    +0.000 A 
ATOM     13  C   UNL     1      46.187   3.153   7.662  0.00  0.00    +0.000 A 
ATOM     14  C   UNL     1      46.871   1.986   7.275  0.00  0.00    +0.000 A 
ATOM     15  N   UNL     1      46.492   0.915   7.978  0.00  0.00    +0.000 NA
ATOM     16  N   UNL     1      45.542   1.398   8.798  0.00  0.00    +0.000 N 
ATOM     17  H   UNL     1      45.054   0.758   9.417  0.00  0.00    +0.000 HD
ENDBRANCH  11  12
ENDBRANCH   9  11
ENDBRANCH   8   9
ENDBRANCH   5   8
ENDBRANCH   1   2
BRANCH   1  18
ATOM     18  N   UNL     1      47.820   5.649  15.879  0.00  0.00    +0.000 NA
ATOM     19  H   UNL     1      48.477   6.290  16.322  0.00  0.00    +0.000 HD
BRANCH  18  21
ATOM     20  C   UNL     1      46.911   3.788  17.288  0.00  0.00    +0.000 C 
ATOM     21  C   UNL     1      48.070   4.307  16.432  0.00  0.00    +0.000 C 
BRANCH  21  22
ATOM     22  C   UNL     1      49.342   4.396  17.262  0.00  0.00    +0.000 A 
ATOM     23  C   UNL     1      49.708   5.489  18.034  0.00  0.00    +0.000 A 
ATOM     24  S   UNL     1      51.215   5.298  18.813  0.00  0.00    +0.000 S 
ATOM     25  C   UNL     1      51.408   3.729  18.178  0.00  0.00    +0.000 A 
ATOM     26  N   UNL     1      52.509   2.986  18.464  0.00  0.00    +0.000 NA
ATOM     27  C   UNL     1      52.506   1.807  17.932  0.00  0.00    +0.000 A 
ATOM     28  N   UNL     1      51.501   1.305  17.142  0.00  0.00    +0.000 N 
ATOM     29  C   UNL     1      50.367   2.020  16.825  0.00  0.00    +0.000 A 
ATOM     30  O   UNL     1      49.476   1.542  16.133  0.00  0.00    +0.000 OA
ATOM     31  C   UNL     1      50.336   3.358  17.389  0.00  0.00    +0.000 A 
ATOM     32  H   UNL     1      51.555   0.370  16.772  0.00  0.00    +0.000 HD
ENDBRANCH  21  22
ENDBRANCH  18  21
ENDBRANCH   1  18
TORSDOF 8
ENDMDL
MODEL 2
REMARK VINA RESULT:    -7.476      2.748      3.617
REMARK INTER + INTRA:         -11.722
REMARK INTER:                 -10.886
REMARK INTRA:                  -0.837
REMARK UNBOUND:                -0.750
REMARK  Name = 
REMARK  9 active torsions:
REMARK  status: ('A' for Active; 'I' for Inactive)
REMARK    1  A    between atoms: C_1  and  C_2
REMARK    2  A    between atoms: C_2  and  N_3
REMARK    3  A    between atoms: C_2  and  C_19
REMARK    4  A    between atoms: N_3  and  C_4
REMARK    5  A    between atoms: C_4  and  C_5
REMARK    6  A    between atoms: C_8  and  C_9
REMARK    7  A    between atoms: C_9  and  N_10
REMARK    8  A    between atoms: N_10  and  C_11
REMARK    9  A    between atoms: C_11  and  C_12
REMARK                            x       y       z     vdW  Elec       q    Type
REMARK                         _______ _______ _______ _____ _____    ______ ____
ROOT
ATOM      1  C   UNL     1      47.594   6.729  13.664  0.00  0.00    +0.000 C 
ENDROOT
BRANCH   1   2
ATOM      2  C   UNL     1      46.700   5.800  12.881  0.00  0.00    +0.000 A 
ATOM      3  C   UNL     1      46.237   6.135  11.607  0.00  0.00    +0.000 A 
ATOM      4  C   UNL     1      45.391   5.265  10.922  0.00  0.00    +0.000 A 
ATOM      5  C   UNL     1      45.020   4.069  11.531  0.00  0.00    +0.000 A 
ATOM      6  N   UNL     1      45.455   3.718  12.768  0.00  0.00    +0.000 NA
ATOM      7  C   UNL     1      46.280   4.581  13.405  0.00  0.00    +0.000 A 
BRANCH   5   8
ATOM      8  C   UNL     1      44.061   3.120  10.837  0.00  0.00    +0.000 C 
BRANCH   8   9
ATOM      9  N   UNL     1      44.248   3.047   9.378  0.00  0.00    +0.000 NA
ATOM     10  H   UNL     1      44.958   3.751   9.150  0.00  0.00    +0.000 HD
BRANCH   9  11
ATOM     11  C   UNL     1      44.771   1.749   8.963  0.00  0.00    +0.000 C 
BRANCH  11  12
ATOM     12  C   UNL     1      45.947   1.962   8.087  0.00  0.00    +0.000 A 
ATOM     13  C   UNL     1      46.452   3.082   7.462  0.00  0.00    +0.000 A 
ATOM     14  C   UNL     1      47.592   2.626   6.775  0.00  0.00    +0.000 A 
ATOM     15  N   UNL     1      47.805   1.319   6.951  0.00  0.00    +0.000 NA
ATOM     16  N   UNL     1      46.781   0.936   7.733  0.00  0.00    +0.000 N 
ATOM     17  H   UNL     1      46.689  -0.045   7.978  0.00  0.00    +0.000 HD
ENDBRANCH  11  12
ENDBRANCH   9  11
ENDBRANCH   8   9
ENDBRANCH   5   8
ENDBRANCH   1   2
BRANCH   1  18
ATOM     18  N   UNL     1      48.458   5.989  14.582  0.00  0.00    +0.000 NA
ATOM     19  H   UNL     1      47.937   5.194  14.949  0.00  0.00    +0.000 HD
BRANCH  18  21
ATOM     20  C   UNL     1      50.392   7.190  15.628  0.00  0.00    +0.000 C 
ATOM     21  C   UNL     1      48.919   6.786  15.732  0.00  0.00    +0.000 C 
BRANCH  21  22
ATOM     22  C   UNL     1      48.688   5.944  16.978  0.00  0.00    +0.000 A 
ATOM     23  C   UNL     1      48.854   4.568  17.046  0.00  0.00    +0.000 A 
ATOM     24  S   UNL     1      48.474   3.912  18.576  0.00  0.00    +0.000 S 
ATOM     25  C   UNL     1      48.115   5.452  19.211  0.00  0.00    +0.000 A 
ATOM     26  N   UNL     1      47.720   5.605  20.502  0.00  0.00    +0.000 NA
ATOM     27  C   UNL     1      47.507   6.833  20.848  0.00  0.00    +0.000 A 
ATOM     28  N   UNL     1      47.656   7.919  20.022  0.00  0.00    +0.000 N 
ATOM     29  C   UNL     1      48.055   7.814  18.707  0.00  0.00    +0.000 A 
ATOM     30  O   UNL     1      48.197   8.802  17.996  0.00  0.00    +0.000 OA
ATOM     31  C   UNL     1      48.289   6.449  18.270  0.00  0.00    +0.000 A 
ATOM     32  H   UNL     1      47.489   8.852  20.363  0.00  0.00    +0.000 HD
ENDBRANCH  21  22
ENDBRANCH  18  21
ENDBRANCH   1  18
TORSDOF 8
ENDMDL
MODEL 3
REMARK VINA RESULT:    -7.340      1.611      2.069
REMARK INTER + INTRA:         -11.522
REMARK INTER:                 -10.540
REMARK INTRA:                  -0.982
REMARK UNBOUND:                -0.750
REMARK  Name = 
REMARK  9 active torsions:
REMARK  status: ('A' for Active; 'I' for Inactive)
REMARK    1  A    between atoms: C_1  and  C_2
REMARK    2  A    between atoms: C_2  and  N_3
REMARK    3  A    between atoms: C_2  and  C_19
REMARK    4  A    between atoms: N_3  and  C_4
REMARK    5  A    between atoms: C_4  and  C_5
REMARK    6  A    between atoms: C_8  and  C_9
REMARK    7  A    between atoms: C_9  and  N_10
REMARK    8  A    between atoms: N_10  and  C_11
REMARK    9  A    between atoms: C_11  and  C_12
REMARK                            x       y       z     vdW  Elec       q    Type
REMARK                         _______ _______ _______ _____ _____    ______ ____
ROOT
ATOM      1  C   UNL     1      48.904   6.501  15.868  0.00  0.00    +0.000 C 
ENDROOT
BRANCH   1   2
ATOM      2  C   UNL     1      47.946   5.892  14.874  0.00  0.00    +0.000 A 
ATOM      3  C   UNL     1      47.673   6.508  13.651  0.00  0.00    +0.000 A 
ATOM      4  C   UNL     1      46.763   5.932  12.768  0.00  0.00    +0.000 A 
ATOM      5  C   UNL     1      46.138   4.740  13.128  0.00  0.00    +0.000 A 
ATOM      6  N   UNL     1      46.385   4.119  14.310  0.00  0.00    +0.000 NA
ATOM      7  C   UNL     1      47.277   4.702  15.144  0.00  0.00    +0.000 A 
BRANCH   5   8
ATOM      8  C   UNL     1      45.105   4.110  12.214  0.00  0.00    +0.000 C 
BRANCH   8   9
ATOM      9  N   UNL     1      44.489   5.058  11.270  0.00  0.00    +0.000 NA
ATOM     10  H   UNL     1      45.265   5.572  10.842  0.00  0.00    +0.000 HD
BRANCH   9  11
ATOM     11  C   UNL     1      43.776   4.369  10.198  0.00  0.00    +0.000 C 
BRANCH  11  12
ATOM     12  C   UNL     1      44.739   4.012   9.132  0.00  0.00    +0.000 A 
ATOM     13  C   UNL     1      45.004   2.830   8.473  0.00  0.00    +0.000 A 
ATOM     14  C   UNL     1      46.033   3.146   7.567  0.00  0.00    +0.000 A 
ATOM     15  N   UNL     1      46.394   4.431   7.634  0.00  0.00    +0.000 NA
ATOM     16  N   UNL     1      45.609   4.928   8.605  0.00  0.00    +0.000 N 
ATOM     17  H   UNL     1      45.725   5.898   8.883  0.00  0.00    +0.000 HD
ENDBRANCH  11  12
ENDBRANCH   9  11
ENDBRANCH   8   9
ENDBRANCH   5   8
ENDBRANCH   1   2
BRANCH   1  18
ATOM     18  N   UNL     1      49.825   5.500  16.402  0.00  0.00    +0.000 NA
ATOM     19  H   UNL     1      49.656   4.615  15.925  0.00  0.00    +0.000 HD
BRANCH  18  21
ATOM     20  C   UNL     1      49.435   6.549  18.643  0.00  0.00    +0.000 C 
ATOM     21  C   UNL     1      49.667   5.262  17.847  0.00  0.00    +0.000 C 
BRANCH  21  22
ATOM     22  C   UNL     1      50.931   4.565  18.325  0.00  0.00    +0.000 A 
ATOM     23  C   UNL     1      51.876   5.130  19.169  0.00  0.00    +0.000 A 
ATOM     24  S   UNL     1      53.205   4.106  19.486  0.00  0.00    +0.000 S 
ATOM     25  C   UNL     1      52.540   2.856  18.539  0.00  0.00    +0.000 A 
ATOM     26  N   UNL     1      53.185   1.669  18.389  0.00  0.00    +0.000 NA
ATOM     27  C   UNL     1      52.549   0.809  17.663  0.00  0.00    +0.000 A 
ATOM     28  N   UNL     1      51.326   1.027  17.077  0.00  0.00    +0.000 N 
ATOM     29  C   UNL     1      50.635   2.212  17.201  0.00  0.00    +0.000 A 
ATOM     30  O   UNL     1      49.536   2.374  16.682  0.00  0.00    +0.000 OA
ATOM     31  C   UNL     1      51.322   3.215  17.995  0.00  0.00    +0.000 A 
ATOM     32  H   UNL     1      50.878   0.305  16.536  0.00  0.00    +0.000 HD
ENDBRANCH  21  22
ENDBRANCH  18  21
ENDBRANCH   1  18
TORSDOF 8
ENDMDL
MODEL 4
REMARK VINA RESULT:    -7.285      1.864      2.202
REMARK INTER + INTRA:         -11.441
REMARK INTER:                 -10.302
REMARK INTRA:                  -1.139
REMARK UNBOUND:                -0.750
REMARK  Name = 
REMARK  9 active torsions:
REMARK  status: ('A' for Active; 'I' for Inactive)
REMARK    1  A    between atoms: C_1  and  C_2
REMARK    2  A    between atoms: C_2  and  N_3
REMARK    3  A    between atoms: C_2  and  C_19
REMARK    4  A    between atoms: N_3  and  C_4
REMARK    5  A    between atoms: C_4  and  C_5
REMARK    6  A    between atoms: C_8  and  C_9
REMARK    7  A    between atoms: C_9  and  N_10
REMARK    8  A    between atoms: N_10  and  C_11
REMARK    9  A    between atoms: C_11  and  C_12
REMARK                            x       y       z     vdW  Elec       q    Type
REMARK                         _______ _______ _______ _____ _____    ______ ____
ROOT
ATOM      1  C   UNL     1      48.170   6.309  13.934  0.00  0.00    +0.000 C 
ENDROOT
BRANCH   1   2
ATOM      2  C   UNL     1      46.969   5.718  13.239  0.00  0.00    +0.000 A 
ATOM      3  C   UNL     1      46.384   6.342  12.135  0.00  0.00    +0.000 A 
ATOM      4  C   UNL     1      45.260   5.783  11.532  0.00  0.00    +0.000 A 
ATOM      5  C   UNL     1      44.736   4.601  12.052  0.00  0.00    +0.000 A 
ATOM      6  N   UNL     1      45.284   3.973  13.123  0.00  0.00    +0.000 NA
ATOM      7  C   UNL     1      46.379   4.539  13.682  0.00  0.00    +0.000 A 
BRANCH   5   8
ATOM      8  C   UNL     1      43.483   3.990  11.454  0.00  0.00    +0.000 C 
BRANCH   8   9
ATOM      9  N   UNL     1      43.581   3.729  10.007  0.00  0.00    +0.000 NA
ATOM     10  H   UNL     1      44.067   4.539   9.608  0.00  0.00    +0.000 HD
BRANCH   9  11
ATOM     11  C   UNL     1      44.392   2.549   9.723  0.00  0.00    +0.000 C 
BRANCH  11  12
ATOM     12  C   UNL     1      45.383   2.887   8.675  0.00  0.00    +0.000 A 
ATOM     13  C   UNL     1      46.244   2.116   7.924  0.00  0.00    +0.000 A 
ATOM     14  C   UNL     1      46.923   3.033   7.101  0.00  0.00    +0.000 A 
ATOM     15  N   UNL     1      46.523   4.292   7.303  0.00  0.00    +0.000 NA
ATOM     16  N   UNL     1      45.605   4.178   8.278  0.00  0.00    +0.000 N 
ATOM     17  H   UNL     1      45.174   5.019   8.649  0.00  0.00    +0.000 HD
ENDBRANCH  11  12
ENDBRANCH   9  11
ENDBRANCH   8   9
ENDBRANCH   5   8
ENDBRANCH   1   2
BRANCH   1  18
ATOM     18  N   UNL     1      48.247   5.874  15.327  0.00  0.00    +0.000 NA
ATOM     19  H   UNL     1      47.307   5.647  15.649  0.00  0.00    +0.000 HD
BRANCH  18  21
ATOM     20  C   UNL     1      48.625   8.322  15.702  0.00  0.00    +0.000 C 
ATOM     21  C   UNL     1      48.792   6.896  16.237  0.00  0.00    +0.000 C 
BRANCH  21  22
ATOM     22  C   UNL     1      50.265   6.575  16.437  0.00  0.00    +0.000 A 
ATOM     23  C   UNL     1      51.316   7.327  15.931  0.00  0.00    +0.000 A 
ATOM     24  S   UNL     1      52.853   6.680  16.294  0.00  0.00    +0.000 S 
ATOM     25  C   UNL     1      52.167   5.396  17.178  0.00  0.00    +0.000 A 
ATOM     26  N   UNL     1      52.947   4.456  17.773  0.00  0.00    +0.000 NA
ATOM     27  C   UNL     1      52.288   3.557  18.428  0.00  0.00    +0.000 A 
ATOM     28  N   UNL     1      50.920   3.516  18.544  0.00  0.00    +0.000 N 
ATOM     29  C   UNL     1      50.088   4.445  17.960  0.00  0.00    +0.000 A 
ATOM     30  O   UNL     1      48.871   4.395  18.093  0.00  0.00    +0.000 OA
ATOM     31  C   UNL     1      50.787   5.465  17.198  0.00  0.00    +0.000 A 
ATOM     32  H   UNL     1      50.471   2.794  19.085  0.00  0.00    +0.000 HD
ENDBRANCH  21  22
ENDBRANCH  18  21
ENDBRANCH   1  18
TORSDOF 8
ENDMDL
MODEL 5
REMARK VINA RESULT:    -6.831      2.011      2.537
REMARK INTER + INTRA:         -10.775
REMARK INTER:                 -10.168
REMARK INTRA:                  -0.607
REMARK UNBOUND:                -0.750
REMARK  Name = 
REMARK  9 active torsions:
REMARK  status: ('A' for Active; 'I' for Inactive)
REMARK    1  A    between atoms: C_1  and  C_2
REMARK    2  A    between atoms: C_2  and  N_3
REMARK    3  A    between atoms: C_2  and  C_19
REMARK    4  A    between atoms: N_3  and  C_4
REMARK    5  A    between atoms: C_4  and  C_5
REMARK    6  A    between atoms: C_8  and  C_9
REMARK    7  A    between atoms: C_9  and  N_10
REMARK    8  A    between atoms: N_10  and  C_11
REMARK    9  A    between atoms: C_11  and  C_12
REMARK                            x       y       z     vdW  Elec       q    Type
REMARK                         _______ _______ _______ _____ _____    ______ ____
ROOT
ATOM      1  C   UNL     1      47.476   4.059  14.725  0.00  0.00    +0.000 C 
ENDROOT
BRANCH   1   2
ATOM      2  C   UNL     1      46.564   4.261  13.539  0.00  0.00    +0.000 A 
ATOM      3  C   UNL     1      46.354   5.526  12.987  0.00  0.00    +0.000 A 
ATOM      4  C   UNL     1      45.486   5.680  11.909  0.00  0.00    +0.000 A 
ATOM      5  C   UNL     1      44.839   4.557  11.400  0.00  0.00    +0.000 A 
ATOM      6  N   UNL     1      45.025   3.315  11.916  0.00  0.00    +0.000 NA
ATOM      7  C   UNL     1      45.879   3.198  12.960  0.00  0.00    +0.000 A 
BRANCH   5   8
ATOM      8  C   UNL     1      43.848   4.693  10.259  0.00  0.00    +0.000 C 
BRANCH   8   9
ATOM      9  N   UNL     1      44.121   3.795   9.124  0.00  0.00    +0.000 NA
ATOM     10  H   UNL     1      43.343   3.925   8.470  0.00  0.00    +0.000 HD
BRANCH   9  11
ATOM     11  C   UNL     1      45.348   4.164   8.424  0.00  0.00    +0.000 C 
BRANCH  11  12
ATOM     12  C   UNL     1      46.059   2.930   8.017  0.00  0.00    +0.000 A 
ATOM     13  C   UNL     1      45.910   1.608   8.377  0.00  0.00    +0.000 A 
ATOM     14  C   UNL     1      46.890   0.922   7.637  0.00  0.00    +0.000 A 
ATOM     15  N   UNL     1      47.606   1.738   6.858  0.00  0.00    +0.000 NA
ATOM     16  N   UNL     1      47.096   2.953   7.124  0.00  0.00    +0.000 N 
ATOM     17  H   UNL     1      47.509   3.768   6.681  0.00  0.00    +0.000 HD
ENDBRANCH  11  12
ENDBRANCH   9  11
ENDBRANCH   8   9
ENDBRANCH   5   8
ENDBRANCH   1   2
BRANCH   1  18
ATOM     18  N   UNL     1      47.137   4.968  15.818  0.00  0.00    +0.000 NA
ATOM     19  H   UNL     1      47.711   5.806  15.734  0.00  0.00    +0.000 HD
BRANCH  18  21
ATOM     20  C   UNL     1      46.897   5.311  18.288  0.00  0.00    +0.000 C 
ATOM     21  C   UNL     1      47.376   4.399  17.155  0.00  0.00    +0.000 C 
BRANCH  21  22
ATOM     22  C   UNL     1      48.873   4.152  17.273  0.00  0.00    +0.000 A 
ATOM     23  C   UNL     1      49.454   2.916  17.519  0.00  0.00    +0.000 A 
ATOM     24  S   UNL     1      51.157   2.977  17.637  0.00  0.00    +0.000 S 
ATOM     25  C   UNL     1      51.176   4.650  17.320  0.00  0.00    +0.000 A 
ATOM     26  N   UNL     1      52.344   5.343  17.273  0.00  0.00    +0.000 NA
ATOM     27  C   UNL     1      52.205   6.598  16.999  0.00  0.00    +0.000 A 
ATOM     28  N   UNL     1      51.004   7.222  16.764  0.00  0.00    +0.000 N 
ATOM     29  C   UNL     1      49.796   6.563  16.800  0.00  0.00    +0.000 A 
ATOM     30  O   UNL     1      48.739   7.140  16.569  0.00  0.00    +0.000 OA
ATOM     31  C   UNL     1      49.903   5.151  17.122  0.00  0.00    +0.000 A 
ATOM     32  H   UNL     1      50.969   8.204  16.538  0.00  0.00    +0.000 HD
ENDBRANCH  21  22
ENDBRANCH  18  21
ENDBRANCH   1  18
TORSDOF 8
ENDMDL
MODEL 6
REMARK VINA RESULT:    -6.722      3.909      4.658
REMARK INTER + INTRA:         -10.616
REMARK INTER:                  -9.526
REMARK INTRA:                  -1.090
REMARK UNBOUND:                -0.750
REMARK  Name = 
REMARK  9 active torsions:
REMARK  status: ('A' for Active; 'I' for Inactive)
REMARK    1  A    between atoms: C_1  and  C_2
REMARK    2  A    between atoms: C_2  and  N_3
REMARK    3  A    between atoms: C_2  and  C_19
REMARK    4  A    between atoms: N_3  and  C_4
REMARK    5  A    between atoms: C_4  and  C_5
REMARK    6  A    between atoms: C_8  and  C_9
REMARK    7  A    between atoms: C_9  and  N_10
REMARK    8  A    between atoms: N_10  and  C_11
REMARK    9  A    between atoms: C_11  and  C_12
REMARK                            x       y       z     vdW  Elec       q    Type
REMARK                         _______ _______ _______ _____ _____    ______ ____
ROOT
ATOM      1  C   UNL     1      47.975   6.037  13.991  0.00  0.00    +0.000 C 
ENDROOT
BRANCH   1   2
ATOM      2  C   UNL     1      46.881   5.337  13.223  0.00  0.00    +0.000 A 
ATOM      3  C   UNL     1      46.174   5.983  12.206  0.00  0.00    +0.000 A 
ATOM      4  C   UNL     1      45.152   5.315  11.535  0.00  0.00    +0.000 A 
ATOM      5  C   UNL     1      44.854   4.004  11.898  0.00  0.00    +0.000 A 
ATOM      6  N   UNL     1      45.525   3.351  12.881  0.00  0.00    +0.000 NA
ATOM      7  C   UNL     1      46.516   4.026  13.511  0.00  0.00    +0.000 A 
BRANCH   5   8
ATOM      8  C   UNL     1      43.715   3.262  11.224  0.00  0.00    +0.000 C 
BRANCH   8   9
ATOM      9  N   UNL     1      43.831   3.201   9.757  0.00  0.00    +0.000 NA
ATOM     10  H   UNL     1      44.297   4.069   9.476  0.00  0.00    +0.000 HD
BRANCH   9  11
ATOM     11  C   UNL     1      44.676   2.092   9.326  0.00  0.00    +0.000 C 
BRANCH  11  12
ATOM     12  C   UNL     1      45.684   2.599   8.367  0.00  0.00    +0.000 A 
ATOM     13  C   UNL     1      46.673   1.975   7.638  0.00  0.00    +0.000 A 
ATOM     14  C   UNL     1      47.291   3.008   6.911  0.00  0.00    +0.000 A 
ATOM     15  N   UNL     1      46.737   4.200   7.149  0.00  0.00    +0.000 NA
ATOM     16  N   UNL     1      45.779   3.927   8.052  0.00  0.00    +0.000 N 
ATOM     17  H   UNL     1      45.232   4.692   8.435  0.00  0.00    +0.000 HD
ENDBRANCH  11  12
ENDBRANCH   9  11
ENDBRANCH   8   9
ENDBRANCH   5   8
ENDBRANCH   1   2
BRANCH   1  18
ATOM     18  N   UNL     1      49.044   6.488  13.102  0.00  0.00    +0.000 NA
ATOM     19  H   UNL     1      49.936   6.165  13.475  0.00  0.00    +0.000 HD
BRANCH  18  21
ATOM     20  C   UNL     1      49.267   8.417  11.518  0.00  0.00    +0.000 C 
ATOM     21  C   UNL     1      49.124   7.953  12.971  0.00  0.00    +0.000 C 
BRANCH  21  22
ATOM     22  C   UNL     1      50.322   8.409  13.791  0.00  0.00    +0.000 A 
ATOM     23  C   UNL     1      51.640   8.361  13.362  0.00  0.00    +0.000 A 
ATOM     24  S   UNL     1      52.757   8.906  14.533  0.00  0.00    +0.000 S 
ATOM     25  C   UNL     1      51.511   9.266  15.637  0.00  0.00    +0.000 A 
ATOM     26  N   UNL     1      51.786   9.780  16.864  0.00  0.00    +0.000 NA
ATOM     27  C   UNL     1      50.740  10.025  17.584  0.00  0.00    +0.000 A 
ATOM     28  N   UNL     1      49.444   9.803  17.185  0.00  0.00    +0.000 N 
ATOM     29  C   UNL     1      49.116   9.284  15.952  0.00  0.00    +0.000 A 
ATOM     30  O   UNL     1      47.950   9.113  15.615  0.00  0.00    +0.000 OA
ATOM     31  C   UNL     1      50.264   8.978  15.116  0.00  0.00    +0.000 A 
ATOM     32  H   UNL     1      48.673  10.033  17.791  0.00  0.00    +0.000 HD
ENDBRANCH  21  22
ENDBRANCH  18  21
ENDBRANCH   1  18
TORSDOF 8
ENDMDL
MODEL 7
REMARK VINA RESULT:    -6.573      2.670      3.599
REMARK INTER + INTRA:         -10.397
REMARK INTER:                  -9.061
REMARK INTRA:                  -1.335
REMARK UNBOUND:                -0.750
REMARK  Name = 
REMARK  9 active torsions:
REMARK  status: ('A' for Active; 'I' for Inactive)
REMARK    1  A    between atoms: C_1  and  C_2
REMARK    2  A    between atoms: C_2  and  N_3
REMARK    3  A    between atoms: C_2  and  C_19
REMARK    4  A    between atoms: N_3  and  C_4
REMARK    5  A    between atoms: C_4  and  C_5
REMARK    6  A    between atoms: C_8  and  C_9
REMARK    7  A    between atoms: C_9  and  N_10
REMARK    8  A    between atoms: N_10  and  C_11
REMARK    9  A    between atoms: C_11  and  C_12
REMARK                            x       y       z     vdW  Elec       q    Type
REMARK                         _______ _______ _______ _____ _____    ______ ____
ROOT
ATOM      1  C   UNL     1      50.116   6.991  15.863  0.00  0.00    +0.000 C 
ENDROOT
BRANCH   1   2
ATOM      2  C   UNL     1      48.986   7.353  14.931  0.00  0.00    +0.000 A 
ATOM      3  C   UNL     1      48.693   8.682  14.620  0.00  0.00    +0.000 A 
ATOM      4  C   UNL     1      47.625   8.982  13.776  0.00  0.00    +0.000 A 
ATOM      5  C   UNL     1      46.864   7.936  13.258  0.00  0.00    +0.000 A 
ATOM      6  N   UNL     1      47.127   6.636  13.543  0.00  0.00    +0.000 NA
ATOM      7  C   UNL     1      48.174   6.377  14.361  0.00  0.00    +0.000 A 
BRANCH   5   8
ATOM      8  C   UNL     1      45.664   8.226  12.377  0.00  0.00    +0.000 C 
BRANCH   8   9
ATOM      9  N   UNL     1      44.535   7.305  12.588  0.00  0.00    +0.000 NA
ATOM     10  H   UNL     1      43.713   7.898  12.740  0.00  0.00    +0.000 HD
BRANCH   9  11
ATOM     11  C   UNL     1      44.273   6.488  11.407  0.00  0.00    +0.000 C 
BRANCH  11  12
ATOM     12  C   UNL     1      44.164   5.069  11.817  0.00  0.00    +0.000 A 
ATOM     13  C   UNL     1      43.145   4.146  11.716  0.00  0.00    +0.000 A 
ATOM     14  C   UNL     1      43.664   2.972  12.291  0.00  0.00    +0.000 A 
ATOM     15  N   UNL     1      44.920   3.127  12.720  0.00  0.00    +0.000 NA
ATOM     16  N   UNL     1      45.191   4.414  12.440  0.00  0.00    +0.000 N 
ATOM     17  H   UNL     1      46.089   4.799  12.717  0.00  0.00    +0.000 HD
ENDBRANCH  11  12
ENDBRANCH   9  11
ENDBRANCH   8   9
ENDBRANCH   5   8
ENDBRANCH   1   2
BRANCH   1  18
ATOM     18  N   UNL     1      50.060   5.583  16.248  0.00  0.00    +0.000 NA
ATOM     19  H   UNL     1      49.273   5.146  15.769  0.00  0.00    +0.000 HD
BRANCH  18  21
ATOM     20  C   UNL     1      49.693   6.680  18.470  0.00  0.00    +0.000 C 
ATOM     21  C   UNL     1      49.871   5.372  17.693  0.00  0.00    +0.000 C 
BRANCH  21  22
ATOM     22  C   UNL     1      51.092   4.619  18.198  0.00  0.00    +0.000 A 
ATOM     23  C   UNL     1      52.077   5.161  19.012  0.00  0.00    +0.000 A 
ATOM     24  S   UNL     1      53.341   4.070  19.370  0.00  0.00    +0.000 S 
ATOM     25  C   UNL     1      52.592   2.823  18.484  0.00  0.00    +0.000 A 
ATOM     26  N   UNL     1      53.160   1.593  18.385  0.00  0.00    +0.000 NA
ATOM     27  C   UNL     1      52.466   0.742  17.702  0.00  0.00    +0.000 A 
ATOM     28  N   UNL     1      51.255   1.010  17.111  0.00  0.00    +0.000 N 
ATOM     29  C   UNL     1      50.641   2.241  17.184  0.00  0.00    +0.000 A 
ATOM     30  O   UNL     1      49.551   2.449  16.663  0.00  0.00    +0.000 OA
ATOM     31  C   UNL     1      51.394   3.234  17.929  0.00  0.00    +0.000 A 
ATOM     32  H   UNL     1      50.759   0.294  16.606  0.00  0.00    +0.000 HD
ENDBRANCH  21  22
ENDBRANCH  18  21
ENDBRANCH   1  18
TORSDOF 8
ENDMDL
MODEL 8
REMARK VINA RESULT:    -6.359      2.159      2.802
REMARK INTER + INTRA:         -10.083
REMARK INTER:                  -9.095
REMARK INTRA:                  -0.988
REMARK UNBOUND:                -0.750
REMARK  Name = 
REMARK  9 active torsions:
REMARK  status: ('A' for Active; 'I' for Inactive)
REMARK    1  A    between atoms: C_1  and  C_2
REMARK    2  A    between atoms: C_2  and  N_3
REMARK    3  A    between atoms: C_2  and  C_19
REMARK    4  A    between atoms: N_3  and  C_4
REMARK    5  A    between atoms: C_4  and  C_5
REMARK    6  A    between atoms: C_8  and  C_9
REMARK    7  A    between atoms: C_9  and  N_10
REMARK    8  A    between atoms: N_10  and  C_11
REMARK    9  A    between atoms: C_11  and  C_12
REMARK                            x       y       z     vdW  Elec       q    Type
REMARK                         _______ _______ _______ _____ _____    ______ ____
ROOT
ATOM      1  C   UNL     1      48.204   8.468  14.547  0.00  0.00    +0.000 C 
ENDROOT
BRANCH   1   2
ATOM      2  C   UNL     1      47.277   7.724  13.617  0.00  0.00    +0.000 A 
ATOM      3  C   UNL     1      47.594   6.453  13.133  0.00  0.00    +0.000 A 
ATOM      4  C   UNL     1      46.727   5.805  12.255  0.00  0.00    +0.000 A 
ATOM      5  C   UNL     1      45.552   6.448  11.875  0.00  0.00    +0.000 A 
ATOM      6  N   UNL     1      45.218   7.682  12.330  0.00  0.00    +0.000 NA
ATOM      7  C   UNL     1      46.078   8.283  13.185  0.00  0.00    +0.000 A 
BRANCH   5   8
ATOM      8  C   UNL     1      44.609   5.795  10.882  0.00  0.00    +0.000 C 
BRANCH   8   9
ATOM      9  N   UNL     1      45.283   5.256   9.688  0.00  0.00    +0.000 NA
ATOM     10  H   UNL     1      46.176   4.875  10.017  0.00  0.00    +0.000 HD
BRANCH   9  11
ATOM     11  C   UNL     1      44.531   4.155   9.093  0.00  0.00    +0.000 C 
BRANCH  11  12
ATOM     12  C   UNL     1      45.479   3.226   8.435  0.00  0.00    +0.000 A 
ATOM     13  C   UNL     1      45.684   1.867   8.551  0.00  0.00    +0.000 A 
ATOM     14  C   UNL     1      46.731   1.584   7.656  0.00  0.00    +0.000 A 
ATOM     15  N   UNL     1      47.159   2.673   7.011  0.00  0.00    +0.000 NA
ATOM     16  N   UNL     1      46.398   3.658   7.518  0.00  0.00    +0.000 N 
ATOM     17  H   UNL     1      46.563   4.613   7.215  0.00  0.00    +0.000 HD
ENDBRANCH  11  12
ENDBRANCH   9  11
ENDBRANCH   8   9
ENDBRANCH   5   8
ENDBRANCH   1   2
BRANCH   1  18
ATOM     18  N   UNL     1      49.118   7.555  15.229  0.00  0.00    +0.000 NA
ATOM     19  H   UNL     1      49.022   6.628  14.816  0.00  0.00    +0.000 HD
BRANCH  18  21
ATOM     20  C   UNL     1      49.181   8.699  17.457  0.00  0.00    +0.000 C 
ATOM     21  C   UNL     1      48.856   7.425  16.673  0.00  0.00    +0.000 C 
BRANCH  21  22
ATOM     22  C   UNL     1      49.699   6.263  17.176  0.00  0.00    +0.000 A 
ATOM     23  C   UNL     1      50.910   6.394  17.841  0.00  0.00    +0.000 A 
ATOM     24  S   UNL     1      51.632   4.899  18.239  0.00  0.00    +0.000 S 
ATOM     25  C   UNL     1      50.330   4.027  17.573  0.00  0.00    +0.000 A 
ATOM     26  N   UNL     1      50.312   2.668  17.587  0.00  0.00    +0.000 NA
ATOM     27  C   UNL     1      49.249   2.146  17.069  0.00  0.00    +0.000 A 
ATOM     28  N   UNL     1      48.202   2.860  16.540  0.00  0.00    +0.000 N 
ATOM     29  C   UNL     1      48.174   4.237  16.503  0.00  0.00    +0.000 A 
ATOM     30  O   UNL     1      47.218   4.850  16.042  0.00  0.00    +0.000 OA
ATOM     31  C   UNL     1      49.358   4.866  17.061  0.00  0.00    +0.000 A 
ATOM     32  H   UNL     1      47.394   2.388  16.166  0.00  0.00    +0.000 HD
ENDBRANCH  21  22
ENDBRANCH  18  21
ENDBRANCH   1  18
TORSDOF 8
ENDMDL
MODEL 9
REMARK VINA RESULT:    -6.266      4.001      8.116
REMARK INTER + INTRA:          -9.947
REMARK INTER:                  -8.355
REMARK INTRA:                  -1.591
REMARK UNBOUND:                -0.750
REMARK  Name = 
REMARK  9 active torsions:
REMARK  status: ('A' for Active; 'I' for Inactive)
REMARK    1  A    between atoms: C_1  and  C_2
REMARK    2  A    between atoms: C_2  and  N_3
REMARK    3  A    between atoms: C_2  and  C_19
REMARK    4  A    between atoms: N_3  and  C_4
REMARK    5  A    between atoms: C_4  and  C_5
REMARK    6  A    between atoms: C_8  and  C_9
REMARK    7  A    between atoms: C_9  and  N_10
REMARK    8  A    between atoms: N_10  and  C_11
REMARK    9  A    between atoms: C_11  and  C_12
REMARK                            x       y       z     vdW  Elec       q    Type
REMARK                         _______ _______ _______ _____ _____    ______ ____
ROOT
ATOM      1  C   UNL     1      50.559   7.829  14.817  0.00  0.00    +0.000 C 
ENDROOT
BRANCH   1   2
ATOM      2  C   UNL     1      50.125   7.561  16.237  0.00  0.00    +0.000 A 
ATOM      3  C   UNL     1      51.047   7.503  17.284  0.00  0.00    +0.000 A 
ATOM      4  C   UNL     1      50.615   7.227  18.580  0.00  0.00    +0.000 A 
ATOM      5  C   UNL     1      49.257   7.013  18.804  0.00  0.00    +0.000 A 
ATOM      6  N   UNL     1      48.339   7.065  17.806  0.00  0.00    +0.000 NA
ATOM      7  C   UNL     1      48.790   7.340  16.560  0.00  0.00    +0.000 A 
BRANCH   5   8
ATOM      8  C   UNL     1      48.756   6.661  20.192  0.00  0.00    +0.000 C 
BRANCH   8   9
ATOM      9  N   UNL     1      47.936   5.438  20.236  0.00  0.00    +0.000 NA
ATOM     10  H   UNL     1      47.220   5.554  19.511  0.00  0.00    +0.000 HD
BRANCH   9  11
ATOM     11  C   UNL     1      48.715   4.252  19.896  0.00  0.00    +0.000 C 
BRANCH  11  12
ATOM     12  C   UNL     1      48.290   3.762  18.564  0.00  0.00    +0.000 A 
ATOM     13  C   UNL     1      48.899   2.949  17.632  0.00  0.00    +0.000 A 
ATOM     14  C   UNL     1      47.977   2.861  16.574  0.00  0.00    +0.000 A 
ATOM     15  N   UNL     1      46.862   3.557  16.811  0.00  0.00    +0.000 NA
ATOM     16  N   UNL     1      47.086   4.111  18.015  0.00  0.00    +0.000 N 
ATOM     17  H   UNL     1      46.390   4.738  18.406  0.00  0.00    +0.000 HD
ENDBRANCH  11  12
ENDBRANCH   9  11
ENDBRANCH   8   9
ENDBRANCH   5   8
ENDBRANCH   1   2
BRANCH   1  18
ATOM     18  N   UNL     1      49.439   8.280  13.994  0.00  0.00    +0.000 NA
ATOM     19  H   UNL     1      48.616   8.373  14.588  0.00  0.00    +0.000 HD
BRANCH  18  21
ATOM     20  C   UNL     1      49.860   7.639  11.609  0.00  0.00    +0.000 C 
ATOM     21  C   UNL     1      49.096   7.350  12.904  0.00  0.00    +0.000 C 
BRANCH  21  22
ATOM     22  C   UNL     1      47.597   7.469  12.672  0.00  0.00    +0.000 A 
ATOM     23  C   UNL     1      46.965   8.583  12.138  0.00  0.00    +0.000 A 
ATOM     24  S   UNL     1      45.267   8.422  12.044  0.00  0.00    +0.000 S 
ATOM     25  C   UNL     1      45.325   6.841  12.676  0.00  0.00    +0.000 A 
ATOM     26  N   UNL     1      44.191   6.114  12.855  0.00  0.00    +0.000 NA
ATOM     27  C   UNL     1      44.393   4.924  13.319  0.00  0.00    +0.000 A 
ATOM     28  N   UNL     1      45.625   4.395  13.616  0.00  0.00    +0.000 N 
ATOM     29  C   UNL     1      46.801   5.093  13.451  0.00  0.00    +0.000 A 
ATOM     30  O   UNL     1      47.890   4.591  13.708  0.00  0.00    +0.000 OA
ATOM     31  C   UNL     1      46.620   6.443  12.948  0.00  0.00    +0.000 A 
ATOM     32  H   UNL     1      45.712   3.452  13.960  0.00  0.00    +0.000 HD
ENDBRANCH  21  22
ENDBRANCH  18  21
ENDBRANCH   1  18
TORSDOF 8
ENDMDL
