MODEL 1
REMARK VINA RESULT:    -8.326      0.000      0.000
REMARK INTER + INTRA:         -11.444
REMARK INTER:                 -10.760
REMARK INTRA:                  -0.685
REMARK UNBOUND:                -0.685
REMARK  Name = 
REMARK  5 active torsions:
REMARK  status: ('A' for Active; 'I' for Inactive)
REMARK    1  A    between atoms: C_2  and  C_4
REMARK    2  A    between atoms: C_7  and  O_8
REMARK    3  A    between atoms: O_8  and  C_9
REMARK    4  A    between atoms: C_9  and  C_10
REMARK    5  A    between atoms: C_10  and  C_13
REMARK                            x       y       z     vdW  Elec       q    Type
REMARK                         _______ _______ _______ _____ _____    ______ ____
ROOT
ATOM      1  C   UNL     1      46.377   2.458   7.757  0.00  0.00    +0.000 A 
ATOM      2  C   UNL     1      45.626   1.781   8.720  0.00  0.00    +0.000 A 
ATOM      3  C   UNL     1      44.726   2.498   9.511  0.00  0.00    +0.000 A 
ATOM      4  C   UNL     1      44.629   3.868   9.324  0.00  0.00    +0.000 A 
ATOM      5  N   UNL     1      45.342   4.550   8.402  0.00  0.00    +0.000 NA
ATOM      6  C   UNL     1      46.202   3.831   7.641  0.00  0.00    +0.000 A 
ENDROOT
BRANCH   1   8
ATOM      7  N   UNL     1      48.459   2.523   6.504  0.00  0.00    +0.000 N 
ATOM      8  C   UNL     1      47.361   1.799   6.872  0.00  0.00    +0.000 C 
ATOM      9  O   UNL     1      47.216   0.640   6.514  0.00  0.00    +0.000 OA
ATOM     10  H   UNL     1      49.172   2.022   5.987  0.00  0.00    +0.000 HD
ATOM     11  H   UNL     1      48.737   3.373   6.976  0.00  0.00    +0.000 HD
ENDBRANCH   1   8
BRANCH   4  12
ATOM     12  O   UNL     1      43.729   4.553  10.114  0.00  0.00    +0.000 OA
BRANCH  12  13
ATOM     13  C   UNL     1      43.368   3.801  11.290  0.00  0.00    +0.000 C 
BRANCH  13  14
ATOM     14  C   UNL     1      43.354   4.703  12.532  0.00  0.00    +0.000 C 
ATOM     15  F   UNL     1      42.368   5.639  12.380  0.00  0.00    +0.000 F 
ATOM     16  F   UNL     1      42.978   3.956  13.614  0.00  0.00    +0.000 F 
BRANCH  14  17
ATOM     17  C   UNL     1      44.714   5.347  12.743  0.00  0.00    +0.000 A 
ATOM     18  C   UNL     1      45.815   4.585  13.166  0.00  0.00    +0.000 A 
ATOM     19  C   UNL     1      47.061   5.187  13.362  0.00  0.00    +0.000 A 
ATOM     20  C   UNL     1      47.219   6.554  13.140  0.00  0.00    +0.000 A 
ATOM     21  C   UNL     1      46.134   7.322  12.724  0.00  0.00    +0.000 A 
ATOM     22  C   UNL     1      44.888   6.724  12.529  0.00  0.00    +0.000 A 
ENDBRANCH  14  17
ENDBRANCH  13  14
ENDBRANCH  12  13
ENDBRANCH   4  12
TORSDOF 5
ENDMDL
MODEL 2
REMARK VINA RESULT:    -7.471      3.110      6.299
REMARK INTER + INTRA:         -10.339
REMARK INTER:                  -9.752
REMARK INTRA:                  -0.587
REMARK UNBOUND:                -0.685
REMARK  Name = 
REMARK  5 active torsions:
REMARK  status: ('A' for Active; 'I' for Inactive)
REMARK    1  A    between atoms: C_2  and  C_4
REMARK    2  A    between atoms: C_7  and  O_8
REMARK    3  A    between atoms: O_8  and  C_9
REMARK    4  A    between atoms: C_9  and  C_10
REMARK    5  A    between atoms: C_10  and  C_13
REMARK                            x       y       z     vdW  Elec       q    Type
REMARK                         _______ _______ _______ _____ _____    ______ ____
ROOT
ATOM      1  C   UNL     1      46.573   4.525  14.010  0.00  0.00    +0.000 A 
ATOM      2  C   UNL     1      46.462   3.304  13.342  0.00  0.00    +0.000 A 
ATOM      3  C   UNL     1      45.532   3.175  12.308  0.00  0.00    +0.000 A 
ATOM      4  C   UNL     1      44.734   4.264  11.998  0.00  0.00    +0.000 A 
ATOM      5  N   UNL     1      44.818   5.456  12.626  0.00  0.00    +0.000 NA
ATOM      6  C   UNL     1      45.732   5.560  13.620  0.00  0.00    +0.000 A 
ENDROOT
BRANCH   1   8
ATOM      7  N   UNL     1      47.893   6.062  15.352  0.00  0.00    +0.000 N 
ATOM      8  C   UNL     1      47.518   4.769  15.121  0.00  0.00    +0.000 C 
ATOM      9  O   UNL     1      47.917   3.856  15.827  0.00  0.00    +0.000 OA
ATOM     10  H   UNL     1      48.455   6.222  16.181  0.00  0.00    +0.000 HD
ATOM     11  H   UNL     1      47.397   6.853  14.967  0.00  0.00    +0.000 HD
ENDBRANCH   1   8
BRANCH   4  12
ATOM     12  O   UNL     1      43.827   4.112  10.969  0.00  0.00    +0.000 OA
BRANCH  12  13
ATOM     13  C   UNL     1      44.294   3.177   9.976  0.00  0.00    +0.000 C 
BRANCH  13  14
ATOM     14  C   UNL     1      44.865   3.916   8.757  0.00  0.00    +0.000 C 
ATOM     15  F   UNL     1      43.824   4.367   7.994  0.00  0.00    +0.000 F 
ATOM     16  F   UNL     1      45.511   5.042   9.188  0.00  0.00    +0.000 F 
BRANCH  14  17
ATOM     17  C   UNL     1      45.792   3.009   7.965  0.00  0.00    +0.000 A 
ATOM     18  C   UNL     1      46.439   3.473   6.808  0.00  0.00    +0.000 A 
ATOM     19  C   UNL     1      47.285   2.630   6.083  0.00  0.00    +0.000 A 
ATOM     20  C   UNL     1      47.493   1.317   6.503  0.00  0.00    +0.000 A 
ATOM     21  C   UNL     1      46.854   0.843   7.647  0.00  0.00    +0.000 A 
ATOM     22  C   UNL     1      46.006   1.682   8.373  0.00  0.00    +0.000 A 
ENDBRANCH  14  17
ENDBRANCH  13  14
ENDBRANCH  12  13
ENDBRANCH   4  12
TORSDOF 5
ENDMDL
MODEL 3
REMARK VINA RESULT:    -7.318      3.004      6.222
REMARK INTER + INTRA:         -10.142
REMARK INTER:                  -9.738
REMARK INTRA:                  -0.404
REMARK UNBOUND:                -0.685
REMARK  Name = 
REMARK  5 active torsions:
REMARK  status: ('A' for Active; 'I' for Inactive)
REMARK    1  A    between atoms: C_2  and  C_4
REMARK    2  A    between atoms: C_7  and  O_8
REMARK    3  A    between atoms: O_8  and  C_9
REMARK    4  A    between atoms: C_9  and  C_10
REMARK    5  A    between atoms: C_10  and  C_13
REMARK                            x       y       z     vdW  Elec       q    Type
REMARK                         _______ _______ _______ _____ _____    ______ ____
ROOT
ATOM      1  C   UNL     1      47.105   6.240  12.907  0.00  0.00    +0.000 A 
ATOM      2  C   UNL     1      46.858   6.600  11.581  0.00  0.00    +0.000 A 
ATOM      3  C   UNL     1      45.765   6.040  10.915  0.00  0.00    +0.000 A 
ATOM      4  C   UNL     1      44.977   5.124  11.594  0.00  0.00    +0.000 A 
ATOM      5  N   UNL     1      45.192   4.756  12.875  0.00  0.00    +0.000 NA
ATOM      6  C   UNL     1      46.252   5.319  13.502  0.00  0.00    +0.000 A 
ENDROOT
BRANCH   1   8
ATOM      7  N   UNL     1      48.033   6.934  15.043  0.00  0.00    +0.000 N 
ATOM      8  C   UNL     1      48.234   6.767  13.703  0.00  0.00    +0.000 C 
ATOM      9  O   UNL     1      49.315   7.009  13.188  0.00  0.00    +0.000 OA
ATOM     10  H   UNL     1      48.848   7.194  15.589  0.00  0.00    +0.000 HD
ATOM     11  H   UNL     1      47.259   6.513  15.537  0.00  0.00    +0.000 HD
ENDBRANCH   1   8
BRANCH   4  12
ATOM     12  O   UNL     1      43.901   4.589  10.915  0.00  0.00    +0.000 OA
BRANCH  12  13
ATOM     13  C   UNL     1      44.251   4.214   9.568  0.00  0.00    +0.000 C 
BRANCH  13  14
ATOM     14  C   UNL     1      44.827   2.791   9.530  0.00  0.00    +0.000 C 
ATOM     15  F   UNL     1      45.482   2.554  10.707  0.00  0.00    +0.000 F 
ATOM     16  F   UNL     1      43.792   1.897   9.508  0.00  0.00    +0.000 F 
BRANCH  14  17
ATOM     17  C   UNL     1      45.743   2.614   8.331  0.00  0.00    +0.000 A 
ATOM     18  C   UNL     1      45.977   3.675   7.440  0.00  0.00    +0.000 A 
ATOM     19  C   UNL     1      46.818   3.502   6.338  0.00  0.00    +0.000 A 
ATOM     20  C   UNL     1      47.430   2.271   6.111  0.00  0.00    +0.000 A 
ATOM     21  C   UNL     1      47.203   1.209   6.984  0.00  0.00    +0.000 A 
ATOM     22  C   UNL     1      46.362   1.378   8.086  0.00  0.00    +0.000 A 
ENDBRANCH  14  17
ENDBRANCH  13  14
ENDBRANCH  12  13
ENDBRANCH   4  12
TORSDOF 5
ENDMDL
MODEL 4
REMARK VINA RESULT:    -7.181      3.063      6.516
REMARK INTER + INTRA:          -9.964
REMARK INTER:                  -9.491
REMARK INTRA:                  -0.474
REMARK UNBOUND:                -0.685
REMARK  Name = 
REMARK  5 active torsions:
REMARK  status: ('A' for Active; 'I' for Inactive)
REMARK    1  A    between atoms: C_2  and  C_4
REMARK    2  A    between atoms: C_7  and  O_8
REMARK    3  A    between atoms: O_8  and  C_9
REMARK    4  A    between atoms: C_9  and  C_10
REMARK    5  A    between atoms: C_10  and  C_13
REMARK                            x       y       z     vdW  Elec       q    Type
REMARK                         _______ _______ _______ _____ _____    ______ ____
ROOT
ATOM      1  C   UNL     1      46.787   7.035  13.236  0.00  0.00    +0.000 A 
ATOM      2  C   UNL     1      45.663   7.565  12.598  0.00  0.00    +0.000 A 
ATOM      3  C   UNL     1      44.805   6.708  11.906  0.00  0.00    +0.000 A 
ATOM      4  C   UNL     1      45.116   5.358  11.859  0.00  0.00    +0.000 A 
ATOM      5  N   UNL     1      46.195   4.818  12.465  0.00  0.00    +0.000 NA
ATOM      6  C   UNL     1      47.008   5.668  13.137  0.00  0.00    +0.000 A 
ENDROOT
BRANCH   1   8
ATOM      7  N   UNL     1      47.275   8.898  14.719  0.00  0.00    +0.000 N 
ATOM      8  C   UNL     1      47.763   7.851  13.989  0.00  0.00    +0.000 C 
ATOM      9  O   UNL     1      48.953   7.578  13.990  0.00  0.00    +0.000 OA
ATOM     10  H   UNL     1      47.941   9.379  15.312  0.00  0.00    +0.000 HD
ATOM     11  H   UNL     1      46.294   8.997  14.946  0.00  0.00    +0.000 HD
ENDBRANCH   1   8
BRANCH   4  12
ATOM     12  O   UNL     1      44.249   4.532  11.174  0.00  0.00    +0.000 OA
BRANCH  12  13
ATOM     13  C   UNL     1      44.954   3.581  10.351  0.00  0.00    +0.000 C 
BRANCH  13  14
ATOM     14  C   UNL     1      45.165   4.135   8.935  0.00  0.00    +0.000 C 
ATOM     15  F   UNL     1      43.942   4.395   8.382  0.00  0.00    +0.000 F 
ATOM     16  F   UNL     1      45.785   5.351   9.026  0.00  0.00    +0.000 F 
BRANCH  14  17
ATOM     17  C   UNL     1      45.968   3.160   8.091  0.00  0.00    +0.000 A 
ATOM     18  C   UNL     1      46.026   1.796   8.424  0.00  0.00    +0.000 A 
ATOM     19  C   UNL     1      46.771   0.907   7.645  0.00  0.00    +0.000 A 
ATOM     20  C   UNL     1      47.467   1.369   6.529  0.00  0.00    +0.000 A 
ATOM     21  C   UNL     1      47.422   2.720   6.190  0.00  0.00    +0.000 A 
ATOM     22  C   UNL     1      46.679   3.611   6.967  0.00  0.00    +0.000 A 
ENDBRANCH  14  17
ENDBRANCH  13  14
ENDBRANCH  12  13
ENDBRANCH   4  12
TORSDOF 5
ENDMDL
MODEL 5
REMARK VINA RESULT:    -7.042      3.487      6.641
REMARK INTER + INTRA:          -9.785
REMARK INTER:                  -9.323
REMARK INTRA:                  -0.462
REMARK UNBOUND:                -0.685
REMARK  Name = 
REMARK  5 active torsions:
REMARK  status: ('A' for Active; 'I' for Inactive)
REMARK    1  A    between atoms: C_2  and  C_4
REMARK    2  A    between atoms: C_7  and  O_8
REMARK    3  A    between atoms: O_8  and  C_9
REMARK    4  A    between atoms: C_9  and  C_10
REMARK    5  A    between atoms: C_10  and  C_13
REMARK                            x       y       z     vdW  Elec       q    Type
REMARK                         _______ _______ _______ _____ _____    ______ ____
ROOT
ATOM      1  C   UNL     1      47.777   5.906  14.653  0.00  0.00    +0.000 A 
ATOM      2  C   UNL     1      47.470   6.534  13.444  0.00  0.00    +0.000 A 
ATOM      3  C   UNL     1      46.554   5.932  12.577  0.00  0.00    +0.000 A 
ATOM      4  C   UNL     1      46.000   4.716  12.943  0.00  0.00    +0.000 A 
ATOM      5  N   UNL     1      46.279   4.085  14.103  0.00  0.00    +0.000 NA
ATOM      6  C   UNL     1      47.163   4.692  14.931  0.00  0.00    +0.000 A 
ENDROOT
BRANCH   1   8
ATOM      7  N   UNL     1      48.216   7.036  16.759  0.00  0.00    +0.000 N 
ATOM      8  C   UNL     1      48.734   6.451  15.639  0.00  0.00    +0.000 C 
ATOM      9  O   UNL     1      49.940   6.349  15.477  0.00  0.00    +0.000 OA
ATOM     10  H   UNL     1      48.884   7.307  17.472  0.00  0.00    +0.000 HD
ATOM     11  H   UNL     1      47.255   6.912  17.047  0.00  0.00    +0.000 HD
ENDBRANCH   1   8
BRANCH   4  12
ATOM     12  O   UNL     1      45.095   4.145  12.071  0.00  0.00    +0.000 OA
BRANCH  12  13
ATOM     13  C   UNL     1      45.289   4.607  10.719  0.00  0.00    +0.000 C 
BRANCH  13  14
ATOM     14  C   UNL     1      44.509   3.732   9.727  0.00  0.00    +0.000 C 
ATOM     15  F   UNL     1      43.828   2.777  10.430  0.00  0.00    +0.000 F 
ATOM     16  F   UNL     1      43.544   4.497   9.131  0.00  0.00    +0.000 F 
BRANCH  14  17
ATOM     17  C   UNL     1      45.447   3.116   8.703  0.00  0.00    +0.000 A 
ATOM     18  C   UNL     1      45.728   1.740   8.719  0.00  0.00    +0.000 A 
ATOM     19  C   UNL     1      46.595   1.182   7.776  0.00  0.00    +0.000 A 
ATOM     20  C   UNL     1      47.192   1.991   6.810  0.00  0.00    +0.000 A 
ATOM     21  C   UNL     1      46.925   3.359   6.786  0.00  0.00    +0.000 A 
ATOM     22  C   UNL     1      46.060   3.919   7.727  0.00  0.00    +0.000 A 
ENDBRANCH  14  17
ENDBRANCH  13  14
ENDBRANCH  12  13
ENDBRANCH   4  12
TORSDOF 5
ENDMDL
MODEL 6
REMARK VINA RESULT:    -6.312      3.209      5.732
REMARK INTER + INTRA:          -8.841
REMARK INTER:                  -8.121
REMARK INTRA:                  -0.720
REMARK UNBOUND:                -0.685
REMARK  Name = 
REMARK  5 active torsions:
REMARK  status: ('A' for Active; 'I' for Inactive)
REMARK    1  A    between atoms: C_2  and  C_4
REMARK    2  A    between atoms: C_7  and  O_8
REMARK    3  A    between atoms: O_8  and  C_9
REMARK    4  A    between atoms: C_9  and  C_10
REMARK    5  A    between atoms: C_10  and  C_13
REMARK                            x       y       z     vdW  Elec       q    Type
REMARK                         _______ _______ _______ _____ _____    ______ ____
ROOT
ATOM      1  C   UNL     1      48.689   7.111  12.718  0.00  0.00    +0.000 A 
ATOM      2  C   UNL     1      47.669   7.190  11.768  0.00  0.00    +0.000 A 
ATOM      3  C   UNL     1      46.512   6.428  11.946  0.00  0.00    +0.000 A 
ATOM      4  C   UNL     1      46.432   5.598  13.053  0.00  0.00    +0.000 A 
ATOM      5  N   UNL     1      47.403   5.500  13.986  0.00  0.00    +0.000 NA
ATOM      6  C   UNL     1      48.511   6.255  13.797  0.00  0.00    +0.000 A 
ENDROOT
BRANCH   1   8
ATOM      7  N   UNL     1      50.844   7.735  13.654  0.00  0.00    +0.000 N 
ATOM      8  C   UNL     1      49.956   7.869  12.625  0.00  0.00    +0.000 C 
ATOM      9  O   UNL     1      50.213   8.558  11.650  0.00  0.00    +0.000 OA
ATOM     10  H   UNL     1      51.748   8.175  13.524  0.00  0.00    +0.000 HD
ATOM     11  H   UNL     1      50.782   6.992  14.337  0.00  0.00    +0.000 HD
ENDBRANCH   1   8
BRANCH   4  12
ATOM     12  O   UNL     1      45.277   4.859  13.207  0.00  0.00    +0.000 OA
BRANCH  12  13
ATOM     13  C   UNL     1      44.245   5.280  12.294  0.00  0.00    +0.000 C 
BRANCH  13  14
ATOM     14  C   UNL     1      43.577   4.067  11.628  0.00  0.00    +0.000 C 
ATOM     15  F   UNL     1      43.531   3.044  12.534  0.00  0.00    +0.000 F 
ATOM     16  F   UNL     1      42.271   4.374  11.364  0.00  0.00    +0.000 F 
BRANCH  14  17
ATOM     17  C   UNL     1      44.324   3.669  10.366  0.00  0.00    +0.000 A 
ATOM     18  C   UNL     1      44.464   2.318  10.008  0.00  0.00    +0.000 A 
ATOM     19  C   UNL     1      45.156   1.960   8.848  0.00  0.00    +0.000 A 
ATOM     20  C   UNL     1      45.718   2.945   8.037  0.00  0.00    +0.000 A 
ATOM     21  C   UNL     1      45.591   4.289   8.384  0.00  0.00    +0.000 A 
ATOM     22  C   UNL     1      44.900   4.649   9.543  0.00  0.00    +0.000 A 
ENDBRANCH  14  17
ENDBRANCH  13  14
ENDBRANCH  12  13
ENDBRANCH   4  12
TORSDOF 5
ENDMDL
MODEL 7
REMARK VINA RESULT:    -6.067      4.389      6.290
REMARK INTER + INTRA:          -8.526
REMARK INTER:                  -8.019
REMARK INTRA:                  -0.506
REMARK UNBOUND:                -0.685
REMARK  Name = 
REMARK  5 active torsions:
REMARK  status: ('A' for Active; 'I' for Inactive)
REMARK    1  A    between atoms: C_2  and  C_4
REMARK    2  A    between atoms: C_7  and  O_8
REMARK    3  A    between atoms: O_8  and  C_9
REMARK    4  A    between atoms: C_9  and  C_10
REMARK    5  A    between atoms: C_10  and  C_13
REMARK                            x       y       z     vdW  Elec       q    Type
REMARK                         _______ _______ _______ _____ _____    ______ ____
ROOT
ATOM      1  C   UNL     1      44.825   4.756  11.831  0.00  0.00    +0.000 A 
ATOM      2  C   UNL     1      45.411   5.895  12.388  0.00  0.00    +0.000 A 
ATOM      3  C   UNL     1      46.398   5.744  13.364  0.00  0.00    +0.000 A 
ATOM      4  C   UNL     1      46.744   4.463  13.762  0.00  0.00    +0.000 A 
ATOM      5  N   UNL     1      46.193   3.345  13.243  0.00  0.00    +0.000 NA
ATOM      6  C   UNL     1      45.244   3.515  12.292  0.00  0.00    +0.000 A 
ENDROOT
BRANCH   1   8
ATOM      7  N   UNL     1      44.035   4.197   9.601  0.00  0.00    +0.000 N 
ATOM      8  C   UNL     1      43.769   4.801  10.797  0.00  0.00    +0.000 C 
ATOM      9  O   UNL     1      42.687   5.324  11.016  0.00  0.00    +0.000 OA
ATOM     10  H   UNL     1      43.264   4.143   8.945  0.00  0.00    +0.000 HD
ATOM     11  H   UNL     1      44.798   3.545   9.476  0.00  0.00    +0.000 HD
ENDBRANCH   1   8
BRANCH   4  12
ATOM     12  O   UNL     1      47.725   4.341  14.725  0.00  0.00    +0.000 OA
BRANCH  12  13
ATOM     13  C   UNL     1      47.166   4.121  16.035  0.00  0.00    +0.000 C 
BRANCH  13  14
ATOM     14  C   UNL     1      47.942   3.027  16.782  0.00  0.00    +0.000 C 
ATOM     15  F   UNL     1      47.130   2.498  17.747  0.00  0.00    +0.000 F 
ATOM     16  F   UNL     1      48.193   1.997  15.919  0.00  0.00    +0.000 F 
BRANCH  14  17
ATOM     17  C   UNL     1      49.226   3.588  17.372  0.00  0.00    +0.000 A 
ATOM     18  C   UNL     1      50.405   2.825  17.389  0.00  0.00    +0.000 A 
ATOM     19  C   UNL     1      51.579   3.346  17.938  0.00  0.00    +0.000 A 
ATOM     20  C   UNL     1      51.588   4.632  18.477  0.00  0.00    +0.000 A 
ATOM     21  C   UNL     1      50.424   5.397  18.471  0.00  0.00    +0.000 A 
ATOM     22  C   UNL     1      49.249   4.878  17.924  0.00  0.00    +0.000 A 
ENDBRANCH  14  17
ENDBRANCH  13  14
ENDBRANCH  12  13
ENDBRANCH   4  12
TORSDOF 5
ENDMDL
MODEL 8
REMARK VINA RESULT:    -5.987      4.414      7.129
REMARK INTER + INTRA:          -8.422
REMARK INTER:                  -7.877
REMARK INTRA:                  -0.544
REMARK UNBOUND:                -0.685
REMARK  Name = 
REMARK  5 active torsions:
REMARK  status: ('A' for Active; 'I' for Inactive)
REMARK    1  A    between atoms: C_2  and  C_4
REMARK    2  A    between atoms: C_7  and  O_8
REMARK    3  A    between atoms: O_8  and  C_9
REMARK    4  A    between atoms: C_9  and  C_10
REMARK    5  A    between atoms: C_10  and  C_13
REMARK                            x       y       z     vdW  Elec       q    Type
REMARK                         _______ _______ _______ _____ _____    ______ ____
ROOT
ATOM      1  C   UNL     1      48.401   4.672  16.804  0.00  0.00    +0.000 A 
ATOM      2  C   UNL     1      48.277   5.776  15.958  0.00  0.00    +0.000 A 
ATOM      3  C   UNL     1      47.651   5.618  14.720  0.00  0.00    +0.000 A 
ATOM      4  C   UNL     1      47.194   4.358  14.366  0.00  0.00    +0.000 A 
ATOM      5  N   UNL     1      47.300   3.273  15.163  0.00  0.00    +0.000 NA
ATOM      6  C   UNL     1      47.904   3.452  16.362  0.00  0.00    +0.000 A 
ENDROOT
BRANCH   1   8
ATOM      7  N   UNL     1      49.603   3.571  18.607  0.00  0.00    +0.000 N 
ATOM      8  C   UNL     1      49.050   4.725  18.132  0.00  0.00    +0.000 C 
ATOM      9  O   UNL     1      49.121   5.769  18.762  0.00  0.00    +0.000 OA
ATOM     10  H   UNL     1      50.135   3.650  19.466  0.00  0.00    +0.000 HD
ATOM     11  H   UNL     1      49.788   2.770  18.018  0.00  0.00    +0.000 HD
ENDBRANCH   1   8
BRANCH   4  12
ATOM     12  O   UNL     1      46.574   4.230  13.140  0.00  0.00    +0.000 OA
BRANCH  12  13
ATOM     13  C   UNL     1      45.243   4.783  13.151  0.00  0.00    +0.000 C 
BRANCH  13  14
ATOM     14  C   UNL     1      44.968   5.569  11.861  0.00  0.00    +0.000 C 
ATOM     15  F   UNL     1      43.770   6.215  11.992  0.00  0.00    +0.000 F 
ATOM     16  F   UNL     1      45.901   6.562  11.744  0.00  0.00    +0.000 F 
BRANCH  14  17
ATOM     17  C   UNL     1      44.981   4.644  10.656  0.00  0.00    +0.000 A 
ATOM     18  C   UNL     1      44.386   3.373  10.716  0.00  0.00    +0.000 A 
ATOM     19  C   UNL     1      44.407   2.527   9.605  0.00  0.00    +0.000 A 
ATOM     20  C   UNL     1      45.022   2.939   8.424  0.00  0.00    +0.000 A 
ATOM     21  C   UNL     1      45.620   4.196   8.352  0.00  0.00    +0.000 A 
ATOM     22  C   UNL     1      45.602   5.043   9.461  0.00  0.00    +0.000 A 
ENDBRANCH  14  17
ENDBRANCH  13  14
ENDBRANCH  12  13
ENDBRANCH   4  12
TORSDOF 5
ENDMDL
MODEL 9
REMARK VINA RESULT:    -5.411      4.274      6.250
REMARK INTER + INTRA:          -7.677
REMARK INTER:                  -7.005
REMARK INTRA:                  -0.672
REMARK UNBOUND:                -0.685
REMARK  Name = 
REMARK  5 active torsions:
REMARK  status: ('A' for Active; 'I' for Inactive)
REMARK    1  A    between atoms: C_2  and  C_4
REMARK    2  A    between atoms: C_7  and  O_8
REMARK    3  A    between atoms: O_8  and  C_9
REMARK    4  A    between atoms: C_9  and  C_10
REMARK    5  A    between atoms: C_10  and  C_13
REMARK                            x       y       z     vdW  Elec       q    Type
REMARK                         _______ _______ _______ _____ _____    ______ ____
ROOT
ATOM      1  C   UNL     1      45.153   4.991  11.882  0.00  0.00    +0.000 A 
ATOM      2  C   UNL     1      45.575   4.256  12.992  0.00  0.00    +0.000 A 
ATOM      3  C   UNL     1      46.753   4.625  13.644  0.00  0.00    +0.000 A 
ATOM      4  C   UNL     1      47.475   5.698  13.147  0.00  0.00    +0.000 A 
ATOM      5  N   UNL     1      47.093   6.425  12.076  0.00  0.00    +0.000 NA
ATOM      6  C   UNL     1      45.942   6.054  11.465  0.00  0.00    +0.000 A 
ENDROOT
BRANCH   1   8
ATOM      7  N   UNL     1      43.226   5.740  10.603  0.00  0.00    +0.000 N 
ATOM      8  C   UNL     1      43.926   4.684  11.115  0.00  0.00    +0.000 C 
ATOM      9  O   UNL     1      43.573   3.532  10.915  0.00  0.00    +0.000 OA
ATOM     10  H   UNL     1      42.451   5.508   9.992  0.00  0.00    +0.000 HD
ATOM     11  H   UNL     1      43.615   6.670  10.528  0.00  0.00    +0.000 HD
ENDBRANCH   1   8
BRANCH   4  12
ATOM     12  O   UNL     1      48.633   6.045  13.813  0.00  0.00    +0.000 OA
BRANCH  12  13
ATOM     13  C   UNL     1      48.366   6.892  14.948  0.00  0.00    +0.000 C 
BRANCH  13  14
ATOM     14  C   UNL     1      49.352   6.602  16.089  0.00  0.00    +0.000 C 
ATOM     15  F   UNL     1      50.618   6.575  15.574  0.00  0.00    +0.000 F 
ATOM     16  F   UNL     1      49.340   7.657  16.960  0.00  0.00    +0.000 F 
BRANCH  14  17
ATOM     17  C   UNL     1      49.000   5.298  16.785  0.00  0.00    +0.000 A 
ATOM     18  C   UNL     1      47.662   4.895  16.927  0.00  0.00    +0.000 A 
ATOM     19  C   UNL     1      47.347   3.696  17.573  0.00  0.00    +0.000 A 
ATOM     20  C   UNL     1      48.362   2.890  18.085  0.00  0.00    +0.000 A 
ATOM     21  C   UNL     1      49.694   3.281  17.955  0.00  0.00    +0.000 A 
ATOM     22  C   UNL     1      50.011   4.478  17.312  0.00  0.00    +0.000 A 
ENDBRANCH  14  17
ENDBRANCH  13  14
ENDBRANCH  12  13
ENDBRANCH   4  12
TORSDOF 5
ENDMDL
