MODEL 1
REMARK VINA RESULT:    -7.813      0.000      0.000
REMARK INTER + INTRA:         -10.264
REMARK INTER:                  -9.640
REMARK INTRA:                  -0.625
REMARK UNBOUND:                -0.625
REMARK  Name = 
REMARK  4 active torsions:
REMARK  status: ('A' for Active; 'I' for Inactive)
REMARK    1  A    between atoms: C_2  and  C_4
REMARK    2  A    between atoms: C_7  and  N_8
REMARK    3  A    between atoms: N_8  and  C_9
REMARK    4  A    between atoms: C_9  and  C_10
REMARK                            x       y       z     vdW  Elec       q    Type
REMARK                         _______ _______ _______ _____ _____    ______ ____
ROOT
ATOM      1  C   UNL     1      46.368   2.322   7.811  0.00  0.00    +0.000 A 
ATOM      2  C   UNL     1      45.464   1.763   8.717  0.00  0.00    +0.000 A 
ATOM      3  C   UNL     1      44.573   2.583   9.415  0.00  0.00    +0.000 A 
ATOM      4  C   UNL     1      44.537   3.968   9.211  0.00  0.00    +0.000 A 
ATOM      5  C   UNL     1      45.475   4.517   8.322  0.00  0.00    +0.000 A 
ATOM      6  C   UNL     1      46.386   3.707   7.629  0.00  0.00    +0.000 A 
ENDROOT
BRANCH   1   8
ATOM      7  N   UNL     1      48.449   2.098   6.576  0.00  0.00    +0.000 N 
ATOM      8  C   UNL     1      47.335   1.475   7.067  0.00  0.00    +0.000 C 
ATOM      9  O   UNL     1      47.166   0.275   6.927  0.00  0.00    +0.000 OA
ATOM     10  H   UNL     1      49.149   1.506   6.150  0.00  0.00    +0.000 HD
ATOM     11  H   UNL     1      48.736   3.017   6.885  0.00  0.00    +0.000 HD
ENDBRANCH   1   8
BRANCH   4  12
ATOM     12  N   UNL     1      43.709   4.836   9.931  0.00  0.00    +0.000 N 
ATOM     13  H   UNL     1      42.961   5.218   9.358  0.00  0.00    +0.000 HD
BRANCH  12  14
ATOM     14  C   UNL     1      43.329   4.504  11.299  0.00  0.00    +0.000 C 
BRANCH  14  15
ATOM     15  C   UNL     1      44.246   5.172  12.340  0.00  0.00    +0.000 C 
ATOM     16  C   UNL     1      44.912   6.454  11.813  0.00  0.00    +0.000 C 
ATOM     17  C   UNL     1      45.909   7.031  12.820  0.00  0.00    +0.000 C 
ATOM     18  C   UNL     1      46.962   6.003  13.218  0.00  0.00    +0.000 C 
ATOM     19  C   UNL     1      46.314   4.738  13.769  0.00  0.00    +0.000 C 
ATOM     20  C   UNL     1      45.313   4.151  12.781  0.00  0.00    +0.000 C 
ENDBRANCH  14  15
ENDBRANCH  12  14
ENDBRANCH   4  12
TORSDOF 4
ENDMDL
MODEL 2
REMARK VINA RESULT:    -7.284      2.864      6.088
REMARK INTER + INTRA:          -9.612
REMARK INTER:                  -9.071
REMARK INTRA:                  -0.541
REMARK UNBOUND:                -0.625
REMARK  Name = 
REMARK  4 active torsions:
REMARK  status: ('A' for Active; 'I' for Inactive)
REMARK    1  A    between atoms: C_2  and  C_4
REMARK    2  A    between atoms: C_7  and  N_8
REMARK    3  A    between atoms: N_8  and  C_9
REMARK    4  A    between atoms: C_9  and  C_10
REMARK                            x       y       z     vdW  Elec       q    Type
REMARK                         _______ _______ _______ _____ _____    ______ ____
ROOT
ATOM      1  C   UNL     1      46.475   5.661  12.688  0.00  0.00    +0.000 A 
ATOM      2  C   UNL     1      46.110   6.217  11.459  0.00  0.00    +0.000 A 
ATOM      3  C   UNL     1      45.278   5.509  10.588  0.00  0.00    +0.000 A 
ATOM      4  C   UNL     1      44.765   4.249  10.925  0.00  0.00    +0.000 A 
ATOM      5  C   UNL     1      45.169   3.691  12.148  0.00  0.00    +0.000 A 
ATOM      6  C   UNL     1      46.018   4.384  13.022  0.00  0.00    +0.000 A 
ENDROOT
BRANCH   1   8
ATOM      7  N   UNL     1      47.071   7.699  13.870  0.00  0.00    +0.000 N 
ATOM      8  C   UNL     1      47.370   6.386  13.625  0.00  0.00    +0.000 C 
ATOM      9  O   UNL     1      48.307   5.835  14.179  0.00  0.00    +0.000 OA
ATOM     10  H   UNL     1      47.624   8.165  14.576  0.00  0.00    +0.000 HD
ATOM     11  H   UNL     1      46.177   8.104  13.629  0.00  0.00    +0.000 HD
ENDBRANCH   1   8
BRANCH   4  12
ATOM     12  N   UNL     1      43.982   3.476  10.062  0.00  0.00    +0.000 N 
ATOM     13  H   UNL     1      43.452   4.046   9.407  0.00  0.00    +0.000 HD
BRANCH  12  14
ATOM     14  C   UNL     1      44.522   2.240   9.506  0.00  0.00    +0.000 C 
BRANCH  14  15
ATOM     15  C   UNL     1      45.762   2.486   8.626  0.00  0.00    +0.000 C 
ATOM     16  C   UNL     1      45.491   3.473   7.478  0.00  0.00    +0.000 C 
ATOM     17  C   UNL     1      46.700   3.606   6.549  0.00  0.00    +0.000 C 
ATOM     18  C   UNL     1      47.139   2.253   6.002  0.00  0.00    +0.000 C 
ATOM     19  C   UNL     1      47.437   1.274   7.132  0.00  0.00    +0.000 C 
ATOM     20  C   UNL     1      46.246   1.132   8.072  0.00  0.00    +0.000 C 
ENDBRANCH  14  15
ENDBRANCH  12  14
ENDBRANCH   4  12
TORSDOF 4
ENDMDL
MODEL 3
REMARK VINA RESULT:    -6.220      3.241      6.501
REMARK INTER + INTRA:          -8.299
REMARK INTER:                  -8.166
REMARK INTRA:                  -0.133
REMARK UNBOUND:                -0.625
REMARK  Name = 
REMARK  4 active torsions:
REMARK  status: ('A' for Active; 'I' for Inactive)
REMARK    1  A    between atoms: C_2  and  C_4
REMARK    2  A    between atoms: C_7  and  N_8
REMARK    3  A    between atoms: N_8  and  C_9
REMARK    4  A    between atoms: C_9  and  C_10
REMARK                            x       y       z     vdW  Elec       q    Type
REMARK                         _______ _______ _______ _____ _____    ______ ____
ROOT
ATOM      1  C   UNL     1      45.326   6.887  11.925  0.00  0.00    +0.000 A 
ATOM      2  C   UNL     1      46.204   6.411  10.947  0.00  0.00    +0.000 A 
ATOM      3  C   UNL     1      45.793   5.412  10.061  0.00  0.00    +0.000 A 
ATOM      4  C   UNL     1      44.496   4.883  10.103  0.00  0.00    +0.000 A 
ATOM      5  C   UNL     1      43.639   5.348  11.113  0.00  0.00    +0.000 A 
ATOM      6  C   UNL     1      44.046   6.337  12.019  0.00  0.00    +0.000 A 
ENDROOT
BRANCH   1   8
ATOM      7  N   UNL     1      46.777   7.626  13.729  0.00  0.00    +0.000 N 
ATOM      8  C   UNL     1      45.744   7.937  12.888  0.00  0.00    +0.000 C 
ATOM      9  O   UNL     1      45.218   9.038  12.910  0.00  0.00    +0.000 OA
ATOM     10  H   UNL     1      47.120   8.371  14.321  0.00  0.00    +0.000 HD
ATOM     11  H   UNL     1      47.385   6.835  13.569  0.00  0.00    +0.000 HD
ENDBRANCH   1   8
BRANCH   4  12
ATOM     12  N   UNL     1      44.059   3.840   9.280  0.00  0.00    +0.000 N 
ATOM     13  H   UNL     1      43.800   4.164   8.352  0.00  0.00    +0.000 HD
BRANCH  12  14
ATOM     14  C   UNL     1      44.747   2.554   9.315  0.00  0.00    +0.000 C 
BRANCH  14  15
ATOM     15  C   UNL     1      45.405   2.205   7.968  0.00  0.00    +0.000 C 
ATOM     16  C   UNL     1      46.472   1.104   8.094  0.00  0.00    +0.000 C 
ATOM     17  C   UNL     1      47.196   0.861   6.767  0.00  0.00    +0.000 C 
ATOM     18  C   UNL     1      47.809   2.145   6.220  0.00  0.00    +0.000 C 
ATOM     19  C   UNL     1      46.756   3.235   6.065  0.00  0.00    +0.000 C 
ATOM     20  C   UNL     1      46.020   3.488   7.376  0.00  0.00    +0.000 C 
ENDBRANCH  14  15
ENDBRANCH  12  14
ENDBRANCH   4  12
TORSDOF 4
ENDMDL
MODEL 4
REMARK VINA RESULT:    -5.649      3.478      6.502
REMARK INTER + INTRA:          -7.595
REMARK INTER:                  -7.096
REMARK INTRA:                  -0.499
REMARK UNBOUND:                -0.625
REMARK  Name = 
REMARK  4 active torsions:
REMARK  status: ('A' for Active; 'I' for Inactive)
REMARK    1  A    between atoms: C_2  and  C_4
REMARK    2  A    between atoms: C_7  and  N_8
REMARK    3  A    between atoms: N_8  and  C_9
REMARK    4  A    between atoms: C_9  and  C_10
REMARK                            x       y       z     vdW  Elec       q    Type
REMARK                         _______ _______ _______ _____ _____    ______ ____
ROOT
ATOM      1  C   UNL     1      47.386   7.613  13.377  0.00  0.00    +0.000 A 
ATOM      2  C   UNL     1      47.665   6.244  13.399  0.00  0.00    +0.000 A 
ATOM      3  C   UNL     1      46.718   5.328  12.933  0.00  0.00    +0.000 A 
ATOM      4  C   UNL     1      45.487   5.747  12.411  0.00  0.00    +0.000 A 
ATOM      5  C   UNL     1      45.210   7.123  12.428  0.00  0.00    +0.000 A 
ATOM      6  C   UNL     1      46.145   8.050  12.909  0.00  0.00    +0.000 A 
ENDROOT
BRANCH   1   8
ATOM      7  N   UNL     1      47.870   9.660  14.594  0.00  0.00    +0.000 N 
ATOM      8  C   UNL     1      48.370   8.606  13.879  0.00  0.00    +0.000 C 
ATOM      9  O   UNL     1      49.569   8.477  13.694  0.00  0.00    +0.000 OA
ATOM     10  H   UNL     1      48.546  10.285  15.012  0.00  0.00    +0.000 HD
ATOM     11  H   UNL     1      46.932   9.662  14.971  0.00  0.00    +0.000 HD
ENDBRANCH   1   8
BRANCH   4  12
ATOM     12  N   UNL     1      44.484   4.866  11.993  0.00  0.00    +0.000 N 
ATOM     13  H   UNL     1      43.920   4.528  12.769  0.00  0.00    +0.000 HD
BRANCH  12  14
ATOM     14  C   UNL     1      43.743   5.142  10.767  0.00  0.00    +0.000 C 
BRANCH  14  15
ATOM     15  C   UNL     1      44.117   4.179   9.627  0.00  0.00    +0.000 C 
ATOM     16  C   UNL     1      44.295   2.728  10.106  0.00  0.00    +0.000 C 
ATOM     17  C   UNL     1      44.784   1.815   8.980  0.00  0.00    +0.000 C 
ATOM     18  C   UNL     1      46.073   2.336   8.354  0.00  0.00    +0.000 C 
ATOM     19  C   UNL     1      45.901   3.764   7.851  0.00  0.00    +0.000 C 
ATOM     20  C   UNL     1      45.409   4.689   8.958  0.00  0.00    +0.000 C 
ENDBRANCH  14  15
ENDBRANCH  12  14
ENDBRANCH   4  12
TORSDOF 4
ENDMDL
MODEL 5
REMARK VINA RESULT:    -5.529      3.125      4.914
REMARK INTER + INTRA:          -7.447
REMARK INTER:                  -7.040
REMARK INTRA:                  -0.407
REMARK UNBOUND:                -0.625
REMARK  Name = 
REMARK  4 active torsions:
REMARK  status: ('A' for Active; 'I' for Inactive)
REMARK    1  A    between atoms: C_2  and  C_4
REMARK    2  A    between atoms: C_7  and  N_8
REMARK    3  A    between atoms: N_8  and  C_9
REMARK    4  A    between atoms: C_9  and  C_10
REMARK                            x       y       z     vdW  Elec       q    Type
REMARK                         _______ _______ _______ _____ _____    ______ ____
ROOT
ATOM      1  C   UNL     1      45.082   4.067  10.602  0.00  0.00    +0.000 A 
ATOM      2  C   UNL     1      45.586   5.366  10.505  0.00  0.00    +0.000 A 
ATOM      3  C   UNL     1      46.100   6.005  11.636  0.00  0.00    +0.000 A 
ATOM      4  C   UNL     1      46.152   5.364  12.881  0.00  0.00    +0.000 A 
ATOM      5  C   UNL     1      45.611   4.072  12.968  0.00  0.00    +0.000 A 
ATOM      6  C   UNL     1      45.076   3.427  11.844  0.00  0.00    +0.000 A 
ENDROOT
BRANCH   1   8
ATOM      7  N   UNL     1      44.106   4.158   8.379  0.00  0.00    +0.000 N 
ATOM      8  C   UNL     1      44.517   3.370   9.418  0.00  0.00    +0.000 C 
ATOM      9  O   UNL     1      44.451   2.153   9.356  0.00  0.00    +0.000 OA
ATOM     10  H   UNL     1      43.807   3.681   7.539  0.00  0.00    +0.000 HD
ATOM     11  H   UNL     1      44.373   5.129   8.297  0.00  0.00    +0.000 HD
ENDBRANCH   1   8
BRANCH   4  12
ATOM     12  N   UNL     1      46.598   5.984  14.053  0.00  0.00    +0.000 N 
ATOM     13  H   UNL     1      45.849   6.116  14.728  0.00  0.00    +0.000 HD
BRANCH  12  14
ATOM     14  C   UNL     1      47.885   5.608  14.626  0.00  0.00    +0.000 C 
BRANCH  14  15
ATOM     15  C   UNL     1      47.755   5.089  16.070  0.00  0.00    +0.000 C 
ATOM     16  C   UNL     1      48.973   5.441  16.942  0.00  0.00    +0.000 C 
ATOM     17  C   UNL     1      48.874   4.812  18.333  0.00  0.00    +0.000 C 
ATOM     18  C   UNL     1      48.689   3.301  18.254  0.00  0.00    +0.000 C 
ATOM     19  C   UNL     1      47.469   2.940  17.415  0.00  0.00    +0.000 C 
ATOM     20  C   UNL     1      47.545   3.563  16.025  0.00  0.00    +0.000 C 
ENDBRANCH  14  15
ENDBRANCH  12  14
ENDBRANCH   4  12
TORSDOF 4
ENDMDL
MODEL 6
REMARK VINA RESULT:    -5.522      2.528      4.068
REMARK INTER + INTRA:          -7.438
REMARK INTER:                  -6.796
REMARK INTRA:                  -0.642
REMARK UNBOUND:                -0.625
REMARK  Name = 
REMARK  4 active torsions:
REMARK  status: ('A' for Active; 'I' for Inactive)
REMARK    1  A    between atoms: C_2  and  C_4
REMARK    2  A    between atoms: C_7  and  N_8
REMARK    3  A    between atoms: N_8  and  C_9
REMARK    4  A    between atoms: C_9  and  C_10
REMARK                            x       y       z     vdW  Elec       q    Type
REMARK                         _______ _______ _______ _____ _____    ______ ____
ROOT
ATOM      1  C   UNL     1      44.921   3.736  10.288  0.00  0.00    +0.000 A 
ATOM      2  C   UNL     1      44.981   3.153  11.555  0.00  0.00    +0.000 A 
ATOM      3  C   UNL     1      45.360   3.917  12.662  0.00  0.00    +0.000 A 
ATOM      4  C   UNL     1      45.661   5.281  12.543  0.00  0.00    +0.000 A 
ATOM      5  C   UNL     1      45.628   5.842  11.257  0.00  0.00    +0.000 A 
ATOM      6  C   UNL     1      45.266   5.081  10.137  0.00  0.00    +0.000 A 
ENDROOT
BRANCH   1   8
ATOM      7  N   UNL     1      44.324   3.638   7.934  0.00  0.00    +0.000 N 
ATOM      8  C   UNL     1      44.534   2.943   9.093  0.00  0.00    +0.000 C 
ATOM      9  O   UNL     1      44.439   1.727   9.130  0.00  0.00    +0.000 OA
ATOM     10  H   UNL     1      44.149   3.089   7.102  0.00  0.00    +0.000 HD
ATOM     11  H   UNL     1      44.632   4.592   7.812  0.00  0.00    +0.000 HD
ENDBRANCH   1   8
BRANCH   4  12
ATOM     12  N   UNL     1      46.106   6.071  13.608  0.00  0.00    +0.000 N 
ATOM     13  H   UNL     1      45.464   6.054  14.396  0.00  0.00    +0.000 HD
BRANCH  12  14
ATOM     14  C   UNL     1      47.521   6.071  13.967  0.00  0.00    +0.000 C 
BRANCH  14  15
ATOM     15  C   UNL     1      48.229   7.374  13.557  0.00  0.00    +0.000 C 
ATOM     16  C   UNL     1      47.262   8.564  13.429  0.00  0.00    +0.000 C 
ATOM     17  C   UNL     1      47.969   9.815  12.904  0.00  0.00    +0.000 C 
ATOM     18  C   UNL     1      48.670   9.548  11.577  0.00  0.00    +0.000 C 
ATOM     19  C   UNL     1      49.652   8.389  11.699  0.00  0.00    +0.000 C 
ATOM     20  C   UNL     1      48.968   7.133  12.226  0.00  0.00    +0.000 C 
ENDBRANCH  14  15
ENDBRANCH  12  14
ENDBRANCH   4  12
TORSDOF 4
ENDMDL
MODEL 7
REMARK VINA RESULT:    -5.156      3.794      6.077
REMARK INTER + INTRA:          -6.987
REMARK INTER:                  -6.461
REMARK INTRA:                  -0.526
REMARK UNBOUND:                -0.625
REMARK  Name = 
REMARK  4 active torsions:
REMARK  status: ('A' for Active; 'I' for Inactive)
REMARK    1  A    between atoms: C_2  and  C_4
REMARK    2  A    between atoms: C_7  and  N_8
REMARK    3  A    between atoms: N_8  and  C_9
REMARK    4  A    between atoms: C_9  and  C_10
REMARK                            x       y       z     vdW  Elec       q    Type
REMARK                         _______ _______ _______ _____ _____    ______ ____
ROOT
ATOM      1  C   UNL     1      48.689   7.850  12.376  0.00  0.00    +0.000 A 
ATOM      2  C   UNL     1      48.779   6.551  12.882  0.00  0.00    +0.000 A 
ATOM      3  C   UNL     1      47.619   5.836  13.190  0.00  0.00    +0.000 A 
ATOM      4  C   UNL     1      46.344   6.379  12.977  0.00  0.00    +0.000 A 
ATOM      5  C   UNL     1      46.273   7.697  12.500  0.00  0.00    +0.000 A 
ATOM      6  C   UNL     1      47.431   8.431  12.204  0.00  0.00    +0.000 A 
ENDROOT
BRANCH   1   8
ATOM      7  N   UNL     1      51.103   8.112  12.462  0.00  0.00    +0.000 N 
ATOM      8  C   UNL     1      49.907   8.636  12.054  0.00  0.00    +0.000 C 
ATOM      9  O   UNL     1      49.853   9.681  11.427  0.00  0.00    +0.000 OA
ATOM     10  H   UNL     1      51.937   8.601  12.164  0.00  0.00    +0.000 HD
ATOM     11  H   UNL     1      51.201   7.150  12.754  0.00  0.00    +0.000 HD
ENDBRANCH   1   8
BRANCH   4  12
ATOM     12  N   UNL     1      45.157   5.728  13.329  0.00  0.00    +0.000 N 
ATOM     13  H   UNL     1      44.739   6.118  14.170  0.00  0.00    +0.000 HD
BRANCH  12  14
ATOM     14  C   UNL     1      44.209   5.343  12.290  0.00  0.00    +0.000 C 
BRANCH  14  15
ATOM     15  C   UNL     1      44.867   4.513  11.173  0.00  0.00    +0.000 C 
ATOM     16  C   UNL     1      45.161   5.339   9.910  0.00  0.00    +0.000 C 
ATOM     17  C   UNL     1      45.702   4.467   8.775  0.00  0.00    +0.000 C 
ATOM     18  C   UNL     1      44.758   3.314   8.455  0.00  0.00    +0.000 C 
ATOM     19  C   UNL     1      44.481   2.471   9.694  0.00  0.00    +0.000 C 
ATOM     20  C   UNL     1      43.946   3.323  10.839  0.00  0.00    +0.000 C 
ENDBRANCH  14  15
ENDBRANCH  12  14
ENDBRANCH   4  12
TORSDOF 4
ENDMDL
MODEL 8
REMARK VINA RESULT:    -5.127      3.512      5.604
REMARK INTER + INTRA:          -6.950
REMARK INTER:                  -6.501
REMARK INTRA:                  -0.449
REMARK UNBOUND:                -0.625
REMARK  Name = 
REMARK  4 active torsions:
REMARK  status: ('A' for Active; 'I' for Inactive)
REMARK    1  A    between atoms: C_2  and  C_4
REMARK    2  A    between atoms: C_7  and  N_8
REMARK    3  A    between atoms: N_8  and  C_9
REMARK    4  A    between atoms: C_9  and  C_10
REMARK                            x       y       z     vdW  Elec       q    Type
REMARK                         _______ _______ _______ _____ _____    ______ ____
ROOT
ATOM      1  C   UNL     1      44.522   4.408  11.856  0.00  0.00    +0.000 A 
ATOM      2  C   UNL     1      44.033   5.625  11.375  0.00  0.00    +0.000 A 
ATOM      3  C   UNL     1      44.565   6.829  11.844  0.00  0.00    +0.000 A 
ATOM      4  C   UNL     1      45.610   6.855  12.778  0.00  0.00    +0.000 A 
ATOM      5  C   UNL     1      46.065   5.624  13.275  0.00  0.00    +0.000 A 
ATOM      6  C   UNL     1      45.528   4.410  12.825  0.00  0.00    +0.000 A 
ENDROOT
BRANCH   1   8
ATOM      7  N   UNL     1      43.648   2.194  12.344  0.00  0.00    +0.000 N 
ATOM      8  C   UNL     1      43.964   3.115  11.383  0.00  0.00    +0.000 C 
ATOM      9  O   UNL     1      43.765   2.892  10.200  0.00  0.00    +0.000 OA
ATOM     10  H   UNL     1      43.185   1.351  12.028  0.00  0.00    +0.000 HD
ATOM     11  H   UNL     1      43.566   2.437  13.321  0.00  0.00    +0.000 HD
ENDBRANCH   1   8
BRANCH   4  12
ATOM     12  N   UNL     1      46.130   8.033  13.324  0.00  0.00    +0.000 N 
ATOM     13  H   UNL     1      45.508   8.445  14.015  0.00  0.00    +0.000 HD
BRANCH  12  14
ATOM     14  C   UNL     1      47.551   8.114  13.646  0.00  0.00    +0.000 C 
BRANCH  14  15
ATOM     15  C   UNL     1      48.418   8.392  12.405  0.00  0.00    +0.000 C 
ATOM     16  C   UNL     1      49.731   7.590  12.404  0.00  0.00    +0.000 C 
ATOM     17  C   UNL     1      50.628   7.973  11.225  0.00  0.00    +0.000 C 
ATOM     18  C   UNL     1      50.914   9.471  11.202  0.00  0.00    +0.000 C 
ATOM     19  C   UNL     1      49.621  10.276  11.175  0.00  0.00    +0.000 C 
ATOM     20  C   UNL     1      48.709   9.904  12.339  0.00  0.00    +0.000 C 
ENDBRANCH  14  15
ENDBRANCH  12  14
ENDBRANCH   4  12
TORSDOF 4
ENDMDL
MODEL 9
REMARK VINA RESULT:    -5.017      3.096      4.889
REMARK INTER + INTRA:          -6.815
REMARK INTER:                  -6.432
REMARK INTRA:                  -0.383
REMARK UNBOUND:                -0.625
REMARK  Name = 
REMARK  4 active torsions:
REMARK  status: ('A' for Active; 'I' for Inactive)
REMARK    1  A    between atoms: C_2  and  C_4
REMARK    2  A    between atoms: C_7  and  N_8
REMARK    3  A    between atoms: N_8  and  C_9
REMARK    4  A    between atoms: C_9  and  C_10
REMARK                            x       y       z     vdW  Elec       q    Type
REMARK                         _______ _______ _______ _____ _____    ______ ____
ROOT
ATOM      1  C   UNL     1      45.049   4.283  10.768  0.00  0.00    +0.000 A 
ATOM      2  C   UNL     1      45.080   3.695  12.034  0.00  0.00    +0.000 A 
ATOM      3  C   UNL     1      45.623   4.391  13.118  0.00  0.00    +0.000 A 
ATOM      4  C   UNL     1      46.120   5.693  12.978  0.00  0.00    +0.000 A 
ATOM      5  C   UNL     1      46.112   6.255  11.692  0.00  0.00    +0.000 A 
ATOM      6  C   UNL     1      45.586   5.560  10.594  0.00  0.00    +0.000 A 
ENDROOT
BRANCH   1   8
ATOM      7  N   UNL     1      44.181   4.312   8.498  0.00  0.00    +0.000 N 
ATOM      8  C   UNL     1      44.490   3.559   9.597  0.00  0.00    +0.000 C 
ATOM      9  O   UNL     1      44.344   2.348   9.598  0.00  0.00    +0.000 OA
ATOM     10  H   UNL     1      43.886   3.809   7.672  0.00  0.00    +0.000 HD
ATOM     11  H   UNL     1      44.517   5.257   8.378  0.00  0.00    +0.000 HD
ENDBRANCH   1   8
BRANCH   4  12
ATOM     12  N   UNL     1      46.730   6.405  14.017  0.00  0.00    +0.000 N 
ATOM     13  H   UNL     1      46.182   6.383  14.873  0.00  0.00    +0.000 HD
BRANCH  12  14
ATOM     14  C   UNL     1      48.173   6.312  14.206  0.00  0.00    +0.000 C 
BRANCH  14  15
ATOM     15  C   UNL     1      48.549   5.822  15.616  0.00  0.00    +0.000 C 
ATOM     16  C   UNL     1      47.574   4.763  16.159  0.00  0.00    +0.000 C 
ATOM     17  C   UNL     1      47.898   4.382  17.605  0.00  0.00    +0.000 C 
ATOM     18  C   UNL     1      47.924   5.605  18.515  0.00  0.00    +0.000 C 
ATOM     19  C   UNL     1      48.907   6.650  18.003  0.00  0.00    +0.000 C 
ATOM     20  C   UNL     1      48.605   7.039  16.560  0.00  0.00    +0.000 C 
ENDBRANCH  14  15
ENDBRANCH  12  14
ENDBRANCH   4  12
TORSDOF 4
ENDMDL
