MODEL 1
REMARK VINA RESULT:    -8.829      0.000      0.000
REMARK INTER + INTRA:         -12.152
REMARK INTER:                 -11.410
REMARK INTRA:                  -0.742
REMARK UNBOUND:                -0.742
REMARK  Name = 
REMARK  5 active torsions:
REMARK  status: ('A' for Active; 'I' for Inactive)
REMARK    1  A    between atoms: C_2  and  C_4
REMARK    2  A    between atoms: C_7  and  O_8
REMARK    3  A    between atoms: O_8  and  C_9
REMARK    4  A    between atoms: C_9  and  C_10
REMARK    5  A    between atoms: C_14  and  C_15
REMARK                            x       y       z     vdW  Elec       q    Type
REMARK                         _______ _______ _______ _____ _____    ______ ____
ROOT
ATOM      1  C   UNL     1      43.873   4.397  11.339  0.00  0.00    +0.000 C 
ENDROOT
BRANCH   1   2
ATOM      2  C   UNL     1      44.928   5.337  11.881  0.00  0.00    +0.000 A 
ATOM      3  C   UNL     1      45.073   6.616  11.332  0.00  0.00    +0.000 A 
ATOM      4  C   UNL     1      46.015   7.499  11.851  0.00  0.00    +0.000 A 
ATOM      5  C   UNL     1      46.809   7.119  12.936  0.00  0.00    +0.000 A 
ATOM      6  C   UNL     1      46.664   5.858  13.542  0.00  0.00    +0.000 A 
ATOM      7  C   UNL     1      45.712   4.982  12.991  0.00  0.00    +0.000 A 
BRANCH   6   8
ATOM      8  C   UNL     1      47.456   5.473  14.726  0.00  0.00    +0.000 A 
ATOM      9  C   UNL     1      48.567   6.215  15.146  0.00  0.00    +0.000 A 
ATOM     10  N   UNL     1      49.331   5.933  16.231  0.00  0.00    +0.000 NA
ATOM     11  C   UNL     1      48.968   4.853  16.958  0.00  0.00    +0.000 A 
ATOM     12  C   UNL     1      47.884   4.049  16.644  0.00  0.00    +0.000 A 
ATOM     13 CL   UNL     1      47.475   2.701  17.624  0.00  0.00    +0.000 Cl
ATOM     14  C   UNL     1      47.129   4.360  15.516  0.00  0.00    +0.000 A 
ENDBRANCH   6   8
ENDBRANCH   1   2
BRANCH   1  15
ATOM     15  O   UNL     1      43.700   4.609   9.935  0.00  0.00    +0.000 OA
BRANCH  15  19
ATOM     16  C   UNL     1      46.406   2.442   7.717  0.00  0.00    +0.000 A 
ATOM     17  C   UNL     1      45.597   1.790   8.651  0.00  0.00    +0.000 A 
ATOM     18  C   UNL     1      44.689   2.537   9.399  0.00  0.00    +0.000 A 
ATOM     19  C   UNL     1      44.619   3.905   9.185  0.00  0.00    +0.000 A 
ATOM     20  N   UNL     1      45.396   4.562   8.299  0.00  0.00    +0.000 NA
ATOM     21  C   UNL     1      46.279   3.819   7.591  0.00  0.00    +0.000 A 
BRANCH  16  23
ATOM     22  N   UNL     1      48.472   2.473   6.444  0.00  0.00    +0.000 N 
ATOM     23  C   UNL     1      47.395   1.749   6.869  0.00  0.00    +0.000 C 
ATOM     24  O   UNL     1      47.278   0.562   6.594  0.00  0.00    +0.000 OA
ATOM     25  H   UNL     1      49.199   1.950   5.968  0.00  0.00    +0.000 HD
ATOM     26  H   UNL     1      48.731   3.358   6.857  0.00  0.00    +0.000 HD
ENDBRANCH  16  23
ENDBRANCH  15  19
ENDBRANCH   1  15
TORSDOF 5
ENDMDL
MODEL 2
REMARK VINA RESULT:    -8.726      2.801      3.829
REMARK INTER + INTRA:         -12.018
REMARK INTER:                 -11.243
REMARK INTRA:                  -0.774
REMARK UNBOUND:                -0.742
REMARK  Name = 
REMARK  5 active torsions:
REMARK  status: ('A' for Active; 'I' for Inactive)
REMARK    1  A    between atoms: C_2  and  C_4
REMARK    2  A    between atoms: C_7  and  O_8
REMARK    3  A    between atoms: O_8  and  C_9
REMARK    4  A    between atoms: C_9  and  C_10
REMARK    5  A    between atoms: C_14  and  C_15
REMARK                            x       y       z     vdW  Elec       q    Type
REMARK                         _______ _______ _______ _____ _____    ______ ____
ROOT
ATOM      1  C   UNL     1      43.646   4.269  11.224  0.00  0.00    +0.000 C 
ENDROOT
BRANCH   1   2
ATOM      2  C   UNL     1      44.859   4.768  11.977  0.00  0.00    +0.000 A 
ATOM      3  C   UNL     1      45.552   3.906  12.835  0.00  0.00    +0.000 A 
ATOM      4  C   UNL     1      46.691   4.347  13.502  0.00  0.00    +0.000 A 
ATOM      5  C   UNL     1      47.162   5.647  13.302  0.00  0.00    +0.000 A 
ATOM      6  C   UNL     1      46.518   6.529  12.417  0.00  0.00    +0.000 A 
ATOM      7  C   UNL     1      45.363   6.062  11.764  0.00  0.00    +0.000 A 
BRANCH   6   8
ATOM      8  C   UNL     1      47.043   7.884  12.154  0.00  0.00    +0.000 A 
ATOM      9  C   UNL     1      46.235   9.023  12.259  0.00  0.00    +0.000 A 
ATOM     10  N   UNL     1      46.649  10.298  12.051  0.00  0.00    +0.000 NA
ATOM     11  C   UNL     1      47.952  10.461  11.728  0.00  0.00    +0.000 A 
ATOM     12  C   UNL     1      48.846   9.410  11.603  0.00  0.00    +0.000 A 
ATOM     13 CL   UNL     1      50.491   9.698  11.205  0.00  0.00    +0.000 Cl
ATOM     14  C   UNL     1      48.384   8.114  11.813  0.00  0.00    +0.000 A 
ENDBRANCH   6   8
ENDBRANCH   1   2
BRANCH   1  15
ATOM     15  O   UNL     1      43.708   4.689   9.857  0.00  0.00    +0.000 OA
BRANCH  15  19
ATOM     16  C   UNL     1      46.442   2.481   7.715  0.00  0.00    +0.000 A 
ATOM     17  C   UNL     1      45.571   1.836   8.596  0.00  0.00    +0.000 A 
ATOM     18  C   UNL     1      44.653   2.596   9.320  0.00  0.00    +0.000 A 
ATOM     19  C   UNL     1      44.638   3.971   9.133  0.00  0.00    +0.000 A 
ATOM     20  N   UNL     1      45.475   4.621   8.299  0.00  0.00    +0.000 NA
ATOM     21  C   UNL     1      46.366   3.864   7.615  0.00  0.00    +0.000 A 
BRANCH  16  23
ATOM     22  N   UNL     1      48.504   2.503   6.436  0.00  0.00    +0.000 N 
ATOM     23  C   UNL     1      47.447   1.774   6.898  0.00  0.00    +0.000 C 
ATOM     24  O   UNL     1      47.359   0.573   6.679  0.00  0.00    +0.000 OA
ATOM     25  H   UNL     1      49.243   1.977   5.982  0.00  0.00    +0.000 HD
ATOM     26  H   UNL     1      48.742   3.413   6.805  0.00  0.00    +0.000 HD
ENDBRANCH  16  23
ENDBRANCH  15  19
ENDBRANCH   1  15
TORSDOF 5
ENDMDL
MODEL 3
REMARK VINA RESULT:    -8.377      3.389      4.838
REMARK INTER + INTRA:         -11.567
REMARK INTER:                 -10.690
REMARK INTRA:                  -0.877
REMARK UNBOUND:                -0.742
REMARK  Name = 
REMARK  5 active torsions:
REMARK  status: ('A' for Active; 'I' for Inactive)
REMARK    1  A    between atoms: C_2  and  C_4
REMARK    2  A    between atoms: C_7  and  O_8
REMARK    3  A    between atoms: O_8  and  C_9
REMARK    4  A    between atoms: C_9  and  C_10
REMARK    5  A    between atoms: C_14  and  C_15
REMARK                            x       y       z     vdW  Elec       q    Type
REMARK                         _______ _______ _______ _____ _____    ______ ____
ROOT
ATOM      1  C   UNL     1      44.003   3.834  11.700  0.00  0.00    +0.000 C 
ENDROOT
BRANCH   1   2
ATOM      2  C   UNL     1      44.860   4.980  12.192  0.00  0.00    +0.000 A 
ATOM      3  C   UNL     1      45.998   4.721  12.964  0.00  0.00    +0.000 A 
ATOM      4  C   UNL     1      46.812   5.767  13.388  0.00  0.00    +0.000 A 
ATOM      5  C   UNL     1      46.507   7.082  13.028  0.00  0.00    +0.000 A 
ATOM      6  C   UNL     1      45.396   7.380  12.219  0.00  0.00    +0.000 A 
ATOM      7  C   UNL     1      44.585   6.305  11.814  0.00  0.00    +0.000 A 
BRANCH   6   8
ATOM      8  C   UNL     1      45.102   8.759  11.784  0.00  0.00    +0.000 A 
ATOM      9  C   UNL     1      45.887   9.846  12.192  0.00  0.00    +0.000 A 
ATOM     10  N   UNL     1      45.689  11.136  11.821  0.00  0.00    +0.000 NA
ATOM     11  C   UNL     1      44.655  11.368  10.983  0.00  0.00    +0.000 A 
ATOM     12  C   UNL     1      43.816  10.373  10.508  0.00  0.00    +0.000 A 
ATOM     13 CL   UNL     1      42.531  10.744   9.432  0.00  0.00    +0.000 Cl
ATOM     14  C   UNL     1      44.040   9.061  10.918  0.00  0.00    +0.000 A 
ENDBRANCH   6   8
ENDBRANCH   1   2
BRANCH   1  15
ATOM     15  O   UNL     1      43.649   4.038  10.328  0.00  0.00    +0.000 OA
BRANCH  15  19
ATOM     16  C   UNL     1      46.430   2.453   7.741  0.00  0.00    +0.000 A 
ATOM     17  C   UNL     1      46.209   3.832   7.760  0.00  0.00    +0.000 A 
ATOM     18  C   UNL     1      45.260   4.355   8.637  0.00  0.00    +0.000 A 
ATOM     19  C   UNL     1      44.571   3.482   9.464  0.00  0.00    +0.000 A 
ATOM     20  N   UNL     1      44.754   2.146   9.460  0.00  0.00    +0.000 NA
ATOM     21  C   UNL     1      45.672   1.658   8.592  0.00  0.00    +0.000 A 
BRANCH  16  23
ATOM     22  N   UNL     1      48.474   2.542   6.436  0.00  0.00    +0.000 N 
ATOM     23  C   UNL     1      47.412   1.795   6.858  0.00  0.00    +0.000 C 
ATOM     24  O   UNL     1      47.303   0.615   6.551  0.00  0.00    +0.000 OA
ATOM     25  H   UNL     1      49.198   2.041   5.934  0.00  0.00    +0.000 HD
ATOM     26  H   UNL     1      48.730   3.418   6.869  0.00  0.00    +0.000 HD
ENDBRANCH  16  23
ENDBRANCH  15  19
ENDBRANCH   1  15
TORSDOF 5
ENDMDL
MODEL 4
REMARK VINA RESULT:    -8.150      2.544      3.126
REMARK INTER + INTRA:         -11.274
REMARK INTER:                 -10.486
REMARK INTRA:                  -0.788
REMARK UNBOUND:                -0.742
REMARK  Name = 
REMARK  5 active torsions:
REMARK  status: ('A' for Active; 'I' for Inactive)
REMARK    1  A    between atoms: C_2  and  C_4
REMARK    2  A    between atoms: C_7  and  O_8
REMARK    3  A    between atoms: O_8  and  C_9
REMARK    4  A    between atoms: C_9  and  C_10
REMARK    5  A    between atoms: C_14  and  C_15
REMARK                            x       y       z     vdW  Elec       q    Type
REMARK                         _______ _______ _______ _____ _____    ______ ____
ROOT
ATOM      1  C   UNL     1      44.172   3.064  11.269  0.00  0.00    +0.000 C 
ENDROOT
BRANCH   1   2
ATOM      2  C   UNL     1      44.480   4.537  11.430  0.00  0.00    +0.000 A 
ATOM      3  C   UNL     1      43.474   5.488  11.221  0.00  0.00    +0.000 A 
ATOM      4  C   UNL     1      43.740   6.842  11.404  0.00  0.00    +0.000 A 
ATOM      5  C   UNL     1      45.008   7.258  11.816  0.00  0.00    +0.000 A 
ATOM      6  C   UNL     1      46.033   6.330  12.077  0.00  0.00    +0.000 A 
ATOM      7  C   UNL     1      45.740   4.969  11.874  0.00  0.00    +0.000 A 
BRANCH   6   8
ATOM      8  C   UNL     1      47.356   6.757  12.571  0.00  0.00    +0.000 A 
ATOM      9  C   UNL     1      47.828   6.382  13.836  0.00  0.00    +0.000 A 
ATOM     10  N   UNL     1      49.037   6.721  14.351  0.00  0.00    +0.000 NA
ATOM     11  C   UNL     1      49.839   7.469  13.561  0.00  0.00    +0.000 A 
ATOM     12  C   UNL     1      49.482   7.892  12.291  0.00  0.00    +0.000 A 
ATOM     13 CL   UNL     1      50.562   8.828  11.340  0.00  0.00    +0.000 Cl
ATOM     14  C   UNL     1      48.229   7.536  11.798  0.00  0.00    +0.000 A 
ENDBRANCH   6   8
ENDBRANCH   1   2
BRANCH   1  15
ATOM     15  O   UNL     1      43.694   2.803   9.946  0.00  0.00    +0.000 OA
BRANCH  15  19
ATOM     16  C   UNL     1      46.771   2.454   7.235  0.00  0.00    +0.000 A 
ATOM     17  C   UNL     1      46.071   3.658   7.336  0.00  0.00    +0.000 A 
ATOM     18  C   UNL     1      45.028   3.761   8.254  0.00  0.00    +0.000 A 
ATOM     19  C   UNL     1      44.725   2.659   9.039  0.00  0.00    +0.000 A 
ATOM     20  N   UNL     1      45.375   1.480   8.955  0.00  0.00    +0.000 NA
ATOM     21  C   UNL     1      46.378   1.399   8.048  0.00  0.00    +0.000 A 
BRANCH  16  23
ATOM     22  N   UNL     1      49.039   2.947   6.526  0.00  0.00    +0.000 N 
ATOM     23  C   UNL     1      47.894   2.238   6.303  0.00  0.00    +0.000 C 
ATOM     24  O   UNL     1      47.819   1.423   5.392  0.00  0.00    +0.000 OA
ATOM     25  H   UNL     1      49.837   2.697   5.953  0.00  0.00    +0.000 HD
ATOM     26  H   UNL     1      49.226   3.421   7.399  0.00  0.00    +0.000 HD
ENDBRANCH  16  23
ENDBRANCH  15  19
ENDBRANCH   1  15
TORSDOF 5
ENDMDL
MODEL 5
REMARK VINA RESULT:    -7.688      2.297      2.751
REMARK INTER + INTRA:         -10.677
REMARK INTER:                  -9.931
REMARK INTRA:                  -0.746
REMARK UNBOUND:                -0.742
REMARK  Name = 
REMARK  5 active torsions:
REMARK  status: ('A' for Active; 'I' for Inactive)
REMARK    1  A    between atoms: C_2  and  C_4
REMARK    2  A    between atoms: C_7  and  O_8
REMARK    3  A    between atoms: O_8  and  C_9
REMARK    4  A    between atoms: C_9  and  C_10
REMARK    5  A    between atoms: C_14  and  C_15
REMARK                            x       y       z     vdW  Elec       q    Type
REMARK                         _______ _______ _______ _____ _____    ______ ____
ROOT
ATOM      1  C   UNL     1      44.775   4.614  11.596  0.00  0.00    +0.000 C 
ENDROOT
BRANCH   1   2
ATOM      2  C   UNL     1      45.319   6.021  11.715  0.00  0.00    +0.000 A 
ATOM      3  C   UNL     1      44.487   7.116  11.455  0.00  0.00    +0.000 A 
ATOM      4  C   UNL     1      44.970   8.413  11.599  0.00  0.00    +0.000 A 
ATOM      5  C   UNL     1      46.284   8.629  12.024  0.00  0.00    +0.000 A 
ATOM      6  C   UNL     1      47.137   7.556  12.334  0.00  0.00    +0.000 A 
ATOM      7  C   UNL     1      46.627   6.255  12.169  0.00  0.00    +0.000 A 
BRANCH   6   8
ATOM      8  C   UNL     1      48.505   7.776  12.841  0.00  0.00    +0.000 A 
ATOM      9  C   UNL     1      49.444   8.533  12.129  0.00  0.00    +0.000 A 
ATOM     10  N   UNL     1      50.712   8.792  12.538  0.00  0.00    +0.000 NA
ATOM     11  C   UNL     1      51.073   8.282  13.735  0.00  0.00    +0.000 A 
ATOM     12  C   UNL     1      50.228   7.525  14.531  0.00  0.00    +0.000 A 
ATOM     13 CL   UNL     1      50.755   6.922  16.050  0.00  0.00    +0.000 Cl
ATOM     14  C   UNL     1      48.938   7.268  14.076  0.00  0.00    +0.000 A 
ENDBRANCH   6   8
ENDBRANCH   1   2
BRANCH   1  15
ATOM     15  O   UNL     1      44.123   4.443  10.333  0.00  0.00    +0.000 OA
BRANCH  15  19
ATOM     16  C   UNL     1      46.508   2.479   7.615  0.00  0.00    +0.000 A 
ATOM     17  C   UNL     1      46.398   3.870   7.561  0.00  0.00    +0.000 A 
ATOM     18  C   UNL     1      45.583   4.523   8.484  0.00  0.00    +0.000 A 
ATOM     19  C   UNL     1      44.910   3.762   9.428  0.00  0.00    +0.000 A 
ATOM     20  N   UNL     1      44.988   2.417   9.496  0.00  0.00    +0.000 NA
ATOM     21  C   UNL     1      45.776   1.803   8.583  0.00  0.00    +0.000 A 
BRANCH  16  23
ATOM     22  N   UNL     1      48.388   2.331   6.087  0.00  0.00    +0.000 N 
ATOM     23  C   UNL     1      47.346   1.689   6.692  0.00  0.00    +0.000 C 
ATOM     24  O   UNL     1      47.142   0.496   6.509  0.00  0.00    +0.000 OA
ATOM     25  H   UNL     1      49.022   1.746   5.555  0.00  0.00    +0.000 HD
ATOM     26  H   UNL     1      48.737   3.224   6.406  0.00  0.00    +0.000 HD
ENDBRANCH  16  23
ENDBRANCH  15  19
ENDBRANCH   1  15
TORSDOF 5
ENDMDL
MODEL 6
REMARK VINA RESULT:    -7.594      3.730      8.500
REMARK INTER + INTRA:         -10.555
REMARK INTER:                 -10.019
REMARK INTRA:                  -0.536
REMARK UNBOUND:                -0.742
REMARK  Name = 
REMARK  5 active torsions:
REMARK  status: ('A' for Active; 'I' for Inactive)
REMARK    1  A    between atoms: C_2  and  C_4
REMARK    2  A    between atoms: C_7  and  O_8
REMARK    3  A    between atoms: O_8  and  C_9
REMARK    4  A    between atoms: C_9  and  C_10
REMARK    5  A    between atoms: C_14  and  C_15
REMARK                            x       y       z     vdW  Elec       q    Type
REMARK                         _______ _______ _______ _____ _____    ______ ____
ROOT
ATOM      1  C   UNL     1      46.002   5.168  13.981  0.00  0.00    +0.000 C 
ENDROOT
BRANCH   1   2
ATOM      2  C   UNL     1      45.107   4.843  12.806  0.00  0.00    +0.000 A 
ATOM      3  C   UNL     1      43.743   5.151  12.860  0.00  0.00    +0.000 A 
ATOM      4  C   UNL     1      42.920   4.889  11.769  0.00  0.00    +0.000 A 
ATOM      5  C   UNL     1      43.456   4.335  10.604  0.00  0.00    +0.000 A 
ATOM      6  C   UNL     1      44.829   4.050  10.495  0.00  0.00    +0.000 A 
ATOM      7  C   UNL     1      45.635   4.314  11.617  0.00  0.00    +0.000 A 
BRANCH   6   8
ATOM      8  C   UNL     1      45.414   3.521   9.247  0.00  0.00    +0.000 A 
ATOM      9  C   UNL     1      45.750   4.358   8.176  0.00  0.00    +0.000 A 
ATOM     10  N   UNL     1      46.305   3.949   7.008  0.00  0.00    +0.000 NA
ATOM     11  C   UNL     1      46.556   2.626   6.893  0.00  0.00    +0.000 A 
ATOM     12  C   UNL     1      46.272   1.704   7.888  0.00  0.00    +0.000 A 
ATOM     13 CL   UNL     1      46.634   0.040   7.674  0.00  0.00    +0.000 Cl
ATOM     14  C   UNL     1      45.692   2.157   9.070  0.00  0.00    +0.000 A 
ENDBRANCH   6   8
ENDBRANCH   1   2
BRANCH   1  15
ATOM     15  O   UNL     1      46.620   3.976  14.475  0.00  0.00    +0.000 OA
BRANCH  15  19
ATOM     16  C   UNL     1      48.368   4.613  18.146  0.00  0.00    +0.000 A 
ATOM     17  C   UNL     1      48.603   5.511  17.102  0.00  0.00    +0.000 A 
ATOM     18  C   UNL     1      48.009   5.281  15.862  0.00  0.00    +0.000 A 
ATOM     19  C   UNL     1      47.200   4.164  15.712  0.00  0.00    +0.000 A 
ATOM     20  N   UNL     1      46.965   3.274  16.698  0.00  0.00    +0.000 NA
ATOM     21  C   UNL     1      47.561   3.511  17.891  0.00  0.00    +0.000 A 
BRANCH  16  23
ATOM     22  N   UNL     1      48.573   3.846  20.439  0.00  0.00    +0.000 N 
ATOM     23  C   UNL     1      48.940   4.764  19.497  0.00  0.00    +0.000 C 
ATOM     24  O   UNL     1      49.745   5.649  19.753  0.00  0.00    +0.000 OA
ATOM     25  H   UNL     1      49.068   3.893  21.323  0.00  0.00    +0.000 HD
ATOM     26  H   UNL     1      48.128   2.971  20.203  0.00  0.00    +0.000 HD
ENDBRANCH  16  23
ENDBRANCH  15  19
ENDBRANCH   1  15
TORSDOF 5
ENDMDL
MODEL 7
REMARK VINA RESULT:    -7.072      3.623      7.841
REMARK INTER + INTRA:          -9.880
REMARK INTER:                  -9.338
REMARK INTRA:                  -0.542
REMARK UNBOUND:                -0.742
REMARK  Name = 
REMARK  5 active torsions:
REMARK  status: ('A' for Active; 'I' for Inactive)
REMARK    1  A    between atoms: C_2  and  C_4
REMARK    2  A    between atoms: C_7  and  O_8
REMARK    3  A    between atoms: O_8  and  C_9
REMARK    4  A    between atoms: C_9  and  C_10
REMARK    5  A    between atoms: C_14  and  C_15
REMARK                            x       y       z     vdW  Elec       q    Type
REMARK                         _______ _______ _______ _____ _____    ______ ____
ROOT
ATOM      1  C   UNL     1      46.196   7.256  12.235  0.00  0.00    +0.000 C 
ENDROOT
BRANCH   1   2
ATOM      2  C   UNL     1      45.267   6.275  11.554  0.00  0.00    +0.000 A 
ATOM      3  C   UNL     1      43.884   6.373  11.746  0.00  0.00    +0.000 A 
ATOM      4  C   UNL     1      43.021   5.499  11.093  0.00  0.00    +0.000 A 
ATOM      5  C   UNL     1      43.530   4.528  10.226  0.00  0.00    +0.000 A 
ATOM      6  C   UNL     1      44.910   4.424   9.976  0.00  0.00    +0.000 A 
ATOM      7  C   UNL     1      45.760   5.313  10.656  0.00  0.00    +0.000 A 
BRANCH   6   8
ATOM      8  C   UNL     1      45.450   3.442   9.015  0.00  0.00    +0.000 A 
ATOM      9  C   UNL     1      45.423   2.065   9.273  0.00  0.00    +0.000 A 
ATOM     10  N   UNL     1      45.884   1.104   8.433  0.00  0.00    +0.000 NA
ATOM     11  C   UNL     1      46.394   1.528   7.256  0.00  0.00    +0.000 A 
ATOM     12  C   UNL     1      46.466   2.862   6.890  0.00  0.00    +0.000 A 
ATOM     13 CL   UNL     1      47.115   3.324   5.369  0.00  0.00    +0.000 Cl
ATOM     14  C   UNL     1      45.995   3.824   7.780  0.00  0.00    +0.000 A 
ENDBRANCH   6   8
ENDBRANCH   1   2
BRANCH   1  15
ATOM     15  O   UNL     1      47.488   6.667  12.414  0.00  0.00    +0.000 OA
BRANCH  15  19
ATOM     16  C   UNL     1      47.968   5.094  16.187  0.00  0.00    +0.000 A 
ATOM     17  C   UNL     1      47.146   4.441  15.264  0.00  0.00    +0.000 A 
ATOM     18  C   UNL     1      46.988   4.988  13.991  0.00  0.00    +0.000 A 
ATOM     19  C   UNL     1      47.658   6.163  13.687  0.00  0.00    +0.000 A 
ATOM     20  N   UNL     1      48.448   6.821  14.561  0.00  0.00    +0.000 NA
ATOM     21  C   UNL     1      48.578   6.278  15.795  0.00  0.00    +0.000 A 
BRANCH  16  23
ATOM     22  N   UNL     1      47.158   4.626  18.426  0.00  0.00    +0.000 N 
ATOM     23  C   UNL     1      48.209   4.601  17.556  0.00  0.00    +0.000 C 
ATOM     24  O   UNL     1      49.296   4.146  17.887  0.00  0.00    +0.000 OA
ATOM     25  H   UNL     1      47.308   4.173  19.320  0.00  0.00    +0.000 HD
ATOM     26  H   UNL     1      46.202   4.747  18.122  0.00  0.00    +0.000 HD
ENDBRANCH  16  23
ENDBRANCH  15  19
ENDBRANCH   1  15
TORSDOF 5
ENDMDL
MODEL 8
REMARK VINA RESULT:    -6.847      3.856      8.300
REMARK INTER + INTRA:          -9.590
REMARK INTER:                  -8.917
REMARK INTRA:                  -0.673
REMARK UNBOUND:                -0.742
REMARK  Name = 
REMARK  5 active torsions:
REMARK  status: ('A' for Active; 'I' for Inactive)
REMARK    1  A    between atoms: C_2  and  C_4
REMARK    2  A    between atoms: C_7  and  O_8
REMARK    3  A    between atoms: O_8  and  C_9
REMARK    4  A    between atoms: C_9  and  C_10
REMARK    5  A    between atoms: C_14  and  C_15
REMARK                            x       y       z     vdW  Elec       q    Type
REMARK                         _______ _______ _______ _____ _____    ______ ____
ROOT
ATOM      1  C   UNL     1      47.966   7.558  14.017  0.00  0.00    +0.000 C 
ENDROOT
BRANCH   1   2
ATOM      2  C   UNL     1      46.772   7.543  13.088  0.00  0.00    +0.000 A 
ATOM      3  C   UNL     1      46.029   8.711  12.886  0.00  0.00    +0.000 A 
ATOM      4  C   UNL     1      44.952   8.715  12.004  0.00  0.00    +0.000 A 
ATOM      5  C   UNL     1      44.620   7.555  11.299  0.00  0.00    +0.000 A 
ATOM      6  C   UNL     1      45.367   6.373  11.443  0.00  0.00    +0.000 A 
ATOM      7  C   UNL     1      46.443   6.394  12.349  0.00  0.00    +0.000 A 
BRANCH   6   8
ATOM      8  C   UNL     1      45.060   5.162  10.657  0.00  0.00    +0.000 A 
ATOM      9  C   UNL     1      44.179   4.180  11.127  0.00  0.00    +0.000 A 
ATOM     10  N   UNL     1      43.835   3.052  10.456  0.00  0.00    +0.000 NA
ATOM     11  C   UNL     1      44.389   2.887   9.234  0.00  0.00    +0.000 A 
ATOM     12  C   UNL     1      45.268   3.794   8.664  0.00  0.00    +0.000 A 
ATOM     13 CL   UNL     1      45.919   3.523   7.099  0.00  0.00    +0.000 Cl
ATOM     14  C   UNL     1      45.608   4.936   9.385  0.00  0.00    +0.000 A 
ENDBRANCH   6   8
ENDBRANCH   1   2
BRANCH   1  15
ATOM     15  O   UNL     1      48.503   6.238  14.150  0.00  0.00    +0.000 OA
BRANCH  15  19
ATOM     16  C   UNL     1      48.621   5.066  18.093  0.00  0.00    +0.000 A 
ATOM     17  C   UNL     1      49.160   6.300  17.721  0.00  0.00    +0.000 A 
ATOM     18  C   UNL     1      49.118   6.682  16.382  0.00  0.00    +0.000 A 
ATOM     19  C   UNL     1      48.538   5.820  15.464  0.00  0.00    +0.000 A 
ATOM     20  N   UNL     1      48.021   4.618  15.792  0.00  0.00    +0.000 NA
ATOM     21  C   UNL     1      48.082   4.262  17.097  0.00  0.00    +0.000 A 
BRANCH  16  23
ATOM     22  N   UNL     1      48.254   3.261  19.674  0.00  0.00    +0.000 N 
ATOM     23  C   UNL     1      48.607   4.566  19.481  0.00  0.00    +0.000 C 
ATOM     24  O   UNL     1      48.941   5.278  20.418  0.00  0.00    +0.000 OA
ATOM     25  H   UNL     1      48.368   2.904  20.615  0.00  0.00    +0.000 HD
ATOM     26  H   UNL     1      48.227   2.587  18.922  0.00  0.00    +0.000 HD
ENDBRANCH  16  23
ENDBRANCH  15  19
ENDBRANCH   1  15
TORSDOF 5
ENDMDL
MODEL 9
REMARK VINA RESULT:    -6.779      3.584      7.613
REMARK INTER + INTRA:          -9.502
REMARK INTER:                  -8.781
REMARK INTRA:                  -0.721
REMARK UNBOUND:                -0.742
REMARK  Name = 
REMARK  5 active torsions:
REMARK  status: ('A' for Active; 'I' for Inactive)
REMARK    1  A    between atoms: C_2  and  C_4
REMARK    2  A    between atoms: C_7  and  O_8
REMARK    3  A    between atoms: O_8  and  C_9
REMARK    4  A    between atoms: C_9  and  C_10
REMARK    5  A    between atoms: C_14  and  C_15
REMARK                            x       y       z     vdW  Elec       q    Type
REMARK                         _______ _______ _______ _____ _____    ______ ____
ROOT
ATOM      1  C   UNL     1      46.010   5.000  13.971  0.00  0.00    +0.000 C 
ENDROOT
BRANCH   1   2
ATOM      2  C   UNL     1      45.115   4.741  12.779  0.00  0.00    +0.000 A 
ATOM      3  C   UNL     1      43.766   5.112  12.825  0.00  0.00    +0.000 A 
ATOM      4  C   UNL     1      42.946   4.912  11.718  0.00  0.00    +0.000 A 
ATOM      5  C   UNL     1      43.471   4.357  10.548  0.00  0.00    +0.000 A 
ATOM      6  C   UNL     1      44.830   4.010  10.449  0.00  0.00    +0.000 A 
ATOM      7  C   UNL     1      45.634   4.213  11.585  0.00  0.00    +0.000 A 
BRANCH   6   8
ATOM      8  C   UNL     1      45.405   3.481   9.197  0.00  0.00    +0.000 A 
ATOM      9  C   UNL     1      45.710   4.314   8.114  0.00  0.00    +0.000 A 
ATOM     10  N   UNL     1      46.255   3.904   6.941  0.00  0.00    +0.000 NA
ATOM     11  C   UNL     1      46.527   2.585   6.833  0.00  0.00    +0.000 A 
ATOM     12  C   UNL     1      46.275   1.667   7.840  0.00  0.00    +0.000 A 
ATOM     13 CL   UNL     1      46.663   0.007   7.636  0.00  0.00    +0.000 Cl
ATOM     14  C   UNL     1      45.705   2.121   9.027  0.00  0.00    +0.000 A 
ENDBRANCH   6   8
ENDBRANCH   1   2
BRANCH   1  15
ATOM     15  O   UNL     1      47.375   5.094  13.551  0.00  0.00    +0.000 OA
BRANCH  15  19
ATOM     16  C   UNL     1      48.606   9.001  13.149  0.00  0.00    +0.000 A 
ATOM     17  C   UNL     1      48.307   8.248  12.010  0.00  0.00    +0.000 A 
ATOM     18  C   UNL     1      47.896   6.925  12.160  0.00  0.00    +0.000 A 
ATOM     19  C   UNL     1      47.797   6.404  13.441  0.00  0.00    +0.000 A 
ATOM     20  N   UNL     1      48.090   7.102  14.557  0.00  0.00    +0.000 NA
ATOM     21  C   UNL     1      48.498   8.382  14.387  0.00  0.00    +0.000 A 
BRANCH  16  23
ATOM     22  N   UNL     1      48.470  11.271  13.996  0.00  0.00    +0.000 N 
ATOM     23  C   UNL     1      49.043  10.409  13.105  0.00  0.00    +0.000 C 
ATOM     24  O   UNL     1      49.914  10.782  12.331  0.00  0.00    +0.000 OA
ATOM     25  H   UNL     1      48.869  12.202  14.034  0.00  0.00    +0.000 HD
ATOM     26  H   UNL     1      47.953  10.955  14.804  0.00  0.00    +0.000 HD
ENDBRANCH  16  23
ENDBRANCH  15  19
ENDBRANCH   1  15
TORSDOF 5
ENDMDL
