MODEL 1
REMARK VINA RESULT:    -7.289      0.000      0.000
REMARK INTER + INTRA:         -12.238
REMARK INTER:                 -10.698
REMARK INTRA:                  -1.539
REMARK UNBOUND:                -1.539
REMARK  Name = 
REMARK  9 active torsions:
REMARK  status: ('A' for Active; 'I' for Inactive)
REMARK    1  A    between atoms: C_1  and  C_2
REMARK    2  A    between atoms: C_2  and  O_3
REMARK    3  A    between atoms: O_3  and  C_4
REMARK    4  A    between atoms: C_9  and  C_10
REMARK    5  A    between atoms: N_12  and  C_13
REMARK    6  A    between atoms: C_13  and  C_14
REMARK    7  A    between atoms: C_17  and  C_18
REMARK    8  A    between atoms: C_18  and  N_19
REMARK    9  A    between atoms: C_20  and  C_22
REMARK                            x       y       z     vdW  Elec       q    Type
REMARK                         _______ _______ _______ _____ _____    ______ ____
ROOT
ATOM      1  C   UNL     1      49.990   7.532  15.369  0.00  0.00    +0.000 A 
ATOM      2  C   UNL     1      50.114   8.563  14.428  0.00  0.00    +0.000 A 
ATOM      3  C   UNL     1      49.202   8.679  13.372  0.00  0.00    +0.000 A 
ATOM      4  C   UNL     1      48.134   7.781  13.250  0.00  0.00    +0.000 A 
ATOM      5  C   UNL     1      48.012   6.750  14.191  0.00  0.00    +0.000 A 
ATOM      6  C   UNL     1      48.924   6.633  15.245  0.00  0.00    +0.000 A 
ENDROOT
BRANCH   1   7
ATOM      7  C   UNL     1      50.966   7.410  16.514  0.00  0.00    +0.000 C 
BRANCH   7  10
ATOM      8  C   UNL     1      50.980   5.243  17.684  0.00  0.00    +0.000 C 
ATOM      9  O   UNL     1      50.206   5.649  18.544  0.00  0.00    +0.000 OA
ATOM     10  N   UNL     1      51.429   6.053  16.667  0.00  0.00    +0.000 N 
ATOM     11  H   UNL     1      52.071   5.669  15.982  0.00  0.00    +0.000 HD
BRANCH   8  17
ATOM     12  C   UNL     1      50.708   2.712  17.212  0.00  0.00    +0.000 A 
ATOM     13  C   UNL     1      51.235   1.418  17.359  0.00  0.00    +0.000 A 
ATOM     14  C   UNL     1      52.487   1.210  17.942  0.00  0.00    +0.000 A 
ATOM     15  C   UNL     1      53.235   2.294  18.381  0.00  0.00    +0.000 A 
ATOM     16  C   UNL     1      52.720   3.583  18.260  0.00  0.00    +0.000 A 
ATOM     17  C   UNL     1      51.450   3.813  17.694  0.00  0.00    +0.000 A 
BRANCH  12  18
ATOM     18  O   UNL     1      49.492   2.959  16.620  0.00  0.00    +0.000 OA
BRANCH  18  20
ATOM     19  C   UNL     1      47.274   3.757  17.016  0.00  0.00    +0.000 C 
ATOM     20  C   UNL     1      48.317   2.723  17.398  0.00  0.00    +0.000 C 
ENDBRANCH  18  20
ENDBRANCH  12  18
ENDBRANCH   8  17
ENDBRANCH   7  10
ENDBRANCH   1   7
BRANCH   4  21
ATOM     21  C   UNL     1      47.152   7.886  12.111  0.00  0.00    +0.000 C 
BRANCH  21  22
ATOM     22  N   UNL     1      46.538   6.612  11.829  0.00  0.00    +0.000 N 
ATOM     23  C   UNL     1      45.188   6.497  11.623  0.00  0.00    +0.000 C 
ATOM     24  O   UNL     1      44.444   7.475  11.620  0.00  0.00    +0.000 OA
ATOM     25  H   UNL     1      47.077   5.784  12.063  0.00  0.00    +0.000 HD
BRANCH  23  26
ATOM     26  C   UNL     1      44.680   5.147  11.340  0.00  0.00    +0.000 A 
ATOM     27  C   UNL     1      43.906   4.487  12.286  0.00  0.00    +0.000 A 
ATOM     28  S   UNL     1      43.356   2.957  11.773  0.00  0.00    +0.000 S 
ATOM     29  C   UNL     1      44.178   3.098  10.290  0.00  0.00    +0.000 A 
ATOM     30  N   UNL     1      44.141   2.097   9.370  0.00  0.00    +0.000 NA
ATOM     31  C   UNL     1      44.833   2.325   8.302  0.00  0.00    +0.000 A 
ATOM     32  N   UNL     1      45.556   3.467   8.071  0.00  0.00    +0.000 N 
ATOM     33  C   UNL     1      45.599   4.515   8.960  0.00  0.00    +0.000 A 
ATOM     34  O   UNL     1      46.223   5.541   8.702  0.00  0.00    +0.000 OA
ATOM     35  C   UNL     1      44.846   4.305  10.180  0.00  0.00    +0.000 A 
ATOM     36  H   UNL     1      46.070   3.588   7.212  0.00  0.00    +0.000 HD
ENDBRANCH  23  26
ENDBRANCH  21  22
ENDBRANCH   4  21
TORSDOF 8
ENDMDL
MODEL 2
REMARK VINA RESULT:    -6.736      2.917      8.612
REMARK INTER + INTRA:         -11.425
REMARK INTER:                  -9.661
REMARK INTRA:                  -1.764
REMARK UNBOUND:                -1.539
REMARK  Name = 
REMARK  9 active torsions:
REMARK  status: ('A' for Active; 'I' for Inactive)
REMARK    1  A    between atoms: C_1  and  C_2
REMARK    2  A    between atoms: C_2  and  O_3
REMARK    3  A    between atoms: O_3  and  C_4
REMARK    4  A    between atoms: C_9  and  C_10
REMARK    5  A    between atoms: N_12  and  C_13
REMARK    6  A    between atoms: C_13  and  C_14
REMARK    7  A    between atoms: C_17  and  C_18
REMARK    8  A    between atoms: C_18  and  N_19
REMARK    9  A    between atoms: C_20  and  C_22
REMARK                            x       y       z     vdW  Elec       q    Type
REMARK                         _______ _______ _______ _____ _____    ______ ____
ROOT
ATOM      1  C   UNL     1      48.260   8.003  13.472  0.00  0.00    +0.000 A 
ATOM      2  C   UNL     1      47.754   8.935  14.387  0.00  0.00    +0.000 A 
ATOM      3  C   UNL     1      48.192   8.941  15.717  0.00  0.00    +0.000 A 
ATOM      4  C   UNL     1      49.162   8.029  16.152  0.00  0.00    +0.000 A 
ATOM      5  C   UNL     1      49.667   7.097  15.236  0.00  0.00    +0.000 A 
ATOM      6  C   UNL     1      49.228   7.090  13.908  0.00  0.00    +0.000 A 
ENDROOT
BRANCH   1   7
ATOM      7  C   UNL     1      47.798   8.001  12.036  0.00  0.00    +0.000 C 
BRANCH   7  10
ATOM      8  C   UNL     1      45.877   6.618  11.354  0.00  0.00    +0.000 C 
ATOM      9  O   UNL     1      45.109   7.574  11.411  0.00  0.00    +0.000 OA
ATOM     10  N   UNL     1      47.209   6.735  11.675  0.00  0.00    +0.000 N 
ATOM     11  H   UNL     1      47.802   5.914  11.614  0.00  0.00    +0.000 HD
BRANCH   8  17
ATOM     12  C   UNL     1      45.205   4.147  11.728  0.00  0.00    +0.000 A 
ATOM     13  C   UNL     1      44.818   2.926  11.150  0.00  0.00    +0.000 A 
ATOM     14  C   UNL     1      44.581   2.819   9.778  0.00  0.00    +0.000 A 
ATOM     15  C   UNL     1      44.721   3.933   8.962  0.00  0.00    +0.000 A 
ATOM     16  C   UNL     1      45.122   5.148   9.515  0.00  0.00    +0.000 A 
ATOM     17  C   UNL     1      45.386   5.272  10.894  0.00  0.00    +0.000 A 
BRANCH  12  18
ATOM     18  O   UNL     1      45.421   4.298  13.077  0.00  0.00    +0.000 OA
BRANCH  18  20
ATOM     19  C   UNL     1      46.965   4.511  14.888  0.00  0.00    +0.000 C 
ATOM     20  C   UNL     1      46.625   3.753  13.619  0.00  0.00    +0.000 C 
ENDBRANCH  18  20
ENDBRANCH  12  18
ENDBRANCH   8  17
ENDBRANCH   7  10
ENDBRANCH   1   7
BRANCH   4  21
ATOM     21  C   UNL     1      49.634   8.015  17.584  0.00  0.00    +0.000 C 
BRANCH  21  22
ATOM     22  N   UNL     1      50.593   6.963  17.809  0.00  0.00    +0.000 N 
ATOM     23  C   UNL     1      50.279   5.853  18.550  0.00  0.00    +0.000 C 
ATOM     24  O   UNL     1      49.156   5.678  19.017  0.00  0.00    +0.000 OA
ATOM     25  H   UNL     1      51.569   7.191  17.648  0.00  0.00    +0.000 HD
BRANCH  23  26
ATOM     26  C   UNL     1      51.339   4.847  18.706  0.00  0.00    +0.000 A 
ATOM     27  C   UNL     1      52.477   5.150  19.442  0.00  0.00    +0.000 A 
ATOM     28  S   UNL     1      53.576   3.852  19.567  0.00  0.00    +0.000 S 
ATOM     29  C   UNL     1      52.596   2.856  18.597  0.00  0.00    +0.000 A 
ATOM     30  N   UNL     1      52.976   1.588  18.286  0.00  0.00    +0.000 NA
ATOM     31  C   UNL     1      52.151   0.955  17.518  0.00  0.00    +0.000 A 
ATOM     32  N   UNL     1      50.978   1.476  17.036  0.00  0.00    +0.000 N 
ATOM     33  C   UNL     1      50.541   2.742  17.348  0.00  0.00    +0.000 A 
ATOM     34  O   UNL     1      49.464   3.162  16.933  0.00  0.00    +0.000 OA
ATOM     35  C   UNL     1      51.436   3.499  18.200  0.00  0.00    +0.000 A 
ATOM     36  H   UNL     1      50.372   0.928  16.446  0.00  0.00    +0.000 HD
ENDBRANCH  23  26
ENDBRANCH  21  22
ENDBRANCH   4  21
TORSDOF 8
ENDMDL
MODEL 3
REMARK VINA RESULT:    -6.585      2.866      9.102
REMARK INTER + INTRA:         -11.204
REMARK INTER:                  -9.865
REMARK INTRA:                  -1.339
REMARK UNBOUND:                -1.539
REMARK  Name = 
REMARK  9 active torsions:
REMARK  status: ('A' for Active; 'I' for Inactive)
REMARK    1  A    between atoms: C_1  and  C_2
REMARK    2  A    between atoms: C_2  and  O_3
REMARK    3  A    between atoms: O_3  and  C_4
REMARK    4  A    between atoms: C_9  and  C_10
REMARK    5  A    between atoms: N_12  and  C_13
REMARK    6  A    between atoms: C_13  and  C_14
REMARK    7  A    between atoms: C_17  and  C_18
REMARK    8  A    between atoms: C_18  and  N_19
REMARK    9  A    between atoms: C_20  and  C_22
REMARK                            x       y       z     vdW  Elec       q    Type
REMARK                         _______ _______ _______ _____ _____    ______ ____
ROOT
ATOM      1  C   UNL     1      48.625   7.526  12.958  0.00  0.00    +0.000 A 
ATOM      2  C   UNL     1      48.291   6.925  14.179  0.00  0.00    +0.000 A 
ATOM      3  C   UNL     1      49.165   6.991  15.270  0.00  0.00    +0.000 A 
ATOM      4  C   UNL     1      50.381   7.681  15.170  0.00  0.00    +0.000 A 
ATOM      5  C   UNL     1      50.714   8.280  13.948  0.00  0.00    +0.000 A 
ATOM      6  C   UNL     1      49.841   8.213  12.857  0.00  0.00    +0.000 A 
ENDROOT
BRANCH   1   7
ATOM      7  C   UNL     1      47.681   7.465  11.783  0.00  0.00    +0.000 C 
BRANCH   7  10
ATOM      8  C   UNL     1      45.532   6.288  11.523  0.00  0.00    +0.000 C 
ATOM      9  O   UNL     1      44.938   7.332  11.271  0.00  0.00    +0.000 OA
ATOM     10  N   UNL     1      46.876   6.269  11.818  0.00  0.00    +0.000 N 
ATOM     11  H   UNL     1      47.319   5.380  12.022  0.00  0.00    +0.000 HD
BRANCH   8  17
ATOM     12  C   UNL     1      44.765   4.095  10.383  0.00  0.00    +0.000 A 
ATOM     13  C   UNL     1      43.980   2.933  10.462  0.00  0.00    +0.000 A 
ATOM     14  C   UNL     1      43.271   2.618  11.623  0.00  0.00    +0.000 A 
ATOM     15  C   UNL     1      43.341   3.457  12.727  0.00  0.00    +0.000 A 
ATOM     16  C   UNL     1      44.101   4.624  12.660  0.00  0.00    +0.000 A 
ATOM     17  C   UNL     1      44.806   4.970  11.490  0.00  0.00    +0.000 A 
BRANCH  12  18
ATOM     18  O   UNL     1      45.498   4.425   9.268  0.00  0.00    +0.000 OA
BRANCH  18  20
ATOM     19  C   UNL     1      46.442   3.413   7.319  0.00  0.00    +0.000 C 
ATOM     20  C   UNL     1      45.158   3.781   8.039  0.00  0.00    +0.000 C 
ENDBRANCH  18  20
ENDBRANCH  12  18
ENDBRANCH   8  17
ENDBRANCH   7  10
ENDBRANCH   1   7
BRANCH   4  21
ATOM     21  C   UNL     1      51.337   7.750  16.333  0.00  0.00    +0.000 C 
BRANCH  21  22
ATOM     22  N   UNL     1      51.870   6.448  16.651  0.00  0.00    +0.000 N 
ATOM     23  C   UNL     1      52.237   6.116  17.929  0.00  0.00    +0.000 C 
ATOM     24  O   UNL     1      52.087   6.890  18.872  0.00  0.00    +0.000 OA
ATOM     25  H   UNL     1      52.222   5.896  15.874  0.00  0.00    +0.000 HD
BRANCH  23  26
ATOM     26  C   UNL     1      52.763   4.758  18.129  0.00  0.00    +0.000 A 
ATOM     27  C   UNL     1      54.053   4.581  18.612  0.00  0.00    +0.000 A 
ATOM     28  S   UNL     1      54.480   2.945  18.836  0.00  0.00    +0.000 S 
ATOM     29  C   UNL     1      52.976   2.415  18.244  0.00  0.00    +0.000 A 
ATOM     30  N   UNL     1      52.691   1.088  18.145  0.00  0.00    +0.000 NA
ATOM     31  C   UNL     1      51.524   0.827  17.652  0.00  0.00    +0.000 A 
ATOM     32  N   UNL     1      50.617   1.774  17.253  0.00  0.00    +0.000 N 
ATOM     33  C   UNL     1      50.852   3.125  17.361  0.00  0.00    +0.000 A 
ATOM     34  O   UNL     1      50.000   3.946  17.033  0.00  0.00    +0.000 OA
ATOM     35  C   UNL     1      52.152   3.471  17.900  0.00  0.00    +0.000 A 
ATOM     36  H   UNL     1      49.718   1.506  16.883  0.00  0.00    +0.000 HD
ENDBRANCH  23  26
ENDBRANCH  21  22
ENDBRANCH   4  21
TORSDOF 8
ENDMDL
MODEL 4
REMARK VINA RESULT:    -6.520      1.908      3.334
REMARK INTER + INTRA:         -11.108
REMARK INTER:                  -9.566
REMARK INTRA:                  -1.542
REMARK UNBOUND:                -1.539
REMARK  Name = 
REMARK  9 active torsions:
REMARK  status: ('A' for Active; 'I' for Inactive)
REMARK    1  A    between atoms: C_1  and  C_2
REMARK    2  A    between atoms: C_2  and  O_3
REMARK    3  A    between atoms: O_3  and  C_4
REMARK    4  A    between atoms: C_9  and  C_10
REMARK    5  A    between atoms: N_12  and  C_13
REMARK    6  A    between atoms: C_13  and  C_14
REMARK    7  A    between atoms: C_17  and  C_18
REMARK    8  A    between atoms: C_18  and  N_19
REMARK    9  A    between atoms: C_20  and  C_22
REMARK                            x       y       z     vdW  Elec       q    Type
REMARK                         _______ _______ _______ _____ _____    ______ ____
ROOT
ATOM      1  C   UNL     1      48.953   4.912  17.297  0.00  0.00    +0.000 A 
ATOM      2  C   UNL     1      49.677   6.036  16.877  0.00  0.00    +0.000 A 
ATOM      3  C   UNL     1      49.357   6.686  15.679  0.00  0.00    +0.000 A 
ATOM      4  C   UNL     1      48.291   6.238  14.888  0.00  0.00    +0.000 A 
ATOM      5  C   UNL     1      47.569   5.113  15.308  0.00  0.00    +0.000 A 
ATOM      6  C   UNL     1      47.889   4.463  16.504  0.00  0.00    +0.000 A 
ENDROOT
BRANCH   1   7
ATOM      7  C   UNL     1      49.289   4.216  18.592  0.00  0.00    +0.000 C 
BRANCH   7  10
ATOM      8  C   UNL     1      50.954   2.586  17.794  0.00  0.00    +0.000 C 
ATOM      9  O   UNL     1      50.116   1.985  17.129  0.00  0.00    +0.000 OA
ATOM     10  N   UNL     1      50.626   3.675  18.567  0.00  0.00    +0.000 N 
ATOM     11  H   UNL     1      51.355   4.135  19.100  0.00  0.00    +0.000 HD
BRANCH   8  17
ATOM     12  C   UNL     1      53.500   3.046  17.718  0.00  0.00    +0.000 A 
ATOM     13  C   UNL     1      54.796   2.513  17.609  0.00  0.00    +0.000 A 
ATOM     14  C   UNL     1      55.009   1.134  17.576  0.00  0.00    +0.000 A 
ATOM     15  C   UNL     1      53.930   0.264  17.659  0.00  0.00    +0.000 A 
ATOM     16  C   UNL     1      52.636   0.775  17.749  0.00  0.00    +0.000 A 
ATOM     17  C   UNL     1      52.398   2.164  17.762  0.00  0.00    +0.000 A 
BRANCH  12  18
ATOM     18  O   UNL     1      53.253   4.397  17.780  0.00  0.00    +0.000 OA
BRANCH  18  20
ATOM     19  C   UNL     1      53.179   5.991  19.559  0.00  0.00    +0.000 C 
ATOM     20  C   UNL     1      54.078   5.182  18.643  0.00  0.00    +0.000 C 
ENDBRANCH  18  20
ENDBRANCH  12  18
ENDBRANCH   8  17
ENDBRANCH   7  10
ENDBRANCH   1   7
BRANCH   4  21
ATOM     21  C   UNL     1      47.943   6.920  13.589  0.00  0.00    +0.000 C 
BRANCH  21  22
ATOM     22  N   UNL     1      47.261   6.020  12.692  0.00  0.00    +0.000 N 
ATOM     23  C   UNL     1      46.285   6.465  11.837  0.00  0.00    +0.000 C 
ATOM     24  O   UNL     1      45.979   7.652  11.759  0.00  0.00    +0.000 OA
ATOM     25  H   UNL     1      47.320   5.030  12.905  0.00  0.00    +0.000 HD
BRANCH  23  26
ATOM     26  C   UNL     1      45.665   5.454  10.969  0.00  0.00    +0.000 A 
ATOM     27  C   UNL     1      45.778   5.565   9.589  0.00  0.00    +0.000 A 
ATOM     28  S   UNL     1      45.048   4.280   8.737  0.00  0.00    +0.000 S 
ATOM     29  C   UNL     1      44.508   3.558  10.180  0.00  0.00    +0.000 A 
ATOM     30  N   UNL     1      43.779   2.410  10.159  0.00  0.00    +0.000 NA
ATOM     31  C   UNL     1      43.410   1.989  11.324  0.00  0.00    +0.000 A 
ATOM     32  N   UNL     1      43.708   2.612  12.509  0.00  0.00    +0.000 N 
ATOM     33  C   UNL     1      44.466   3.758  12.579  0.00  0.00    +0.000 A 
ATOM     34  O   UNL     1      44.749   4.266  13.660  0.00  0.00    +0.000 OA
ATOM     35  C   UNL     1      44.897   4.277  11.297  0.00  0.00    +0.000 A 
ATOM     36  H   UNL     1      43.398   2.228  13.388  0.00  0.00    +0.000 HD
ENDBRANCH  23  26
ENDBRANCH  21  22
ENDBRANCH   4  21
TORSDOF 8
ENDMDL
MODEL 5
REMARK VINA RESULT:    -6.268      2.863      5.384
REMARK INTER + INTRA:         -10.739
REMARK INTER:                  -8.674
REMARK INTRA:                  -2.065
REMARK UNBOUND:                -1.539
REMARK  Name = 
REMARK  9 active torsions:
REMARK  status: ('A' for Active; 'I' for Inactive)
REMARK    1  A    between atoms: C_1  and  C_2
REMARK    2  A    between atoms: C_2  and  O_3
REMARK    3  A    between atoms: O_3  and  C_4
REMARK    4  A    between atoms: C_9  and  C_10
REMARK    5  A    between atoms: N_12  and  C_13
REMARK    6  A    between atoms: C_13  and  C_14
REMARK    7  A    between atoms: C_17  and  C_18
REMARK    8  A    between atoms: C_18  and  N_19
REMARK    9  A    between atoms: C_20  and  C_22
REMARK                            x       y       z     vdW  Elec       q    Type
REMARK                         _______ _______ _______ _____ _____    ______ ____
ROOT
ATOM      1  C   UNL     1      50.995   4.407  18.613  0.00  0.00    +0.000 A 
ATOM      2  C   UNL     1      49.853   5.176  18.871  0.00  0.00    +0.000 A 
ATOM      3  C   UNL     1      48.621   4.841  18.297  0.00  0.00    +0.000 A 
ATOM      4  C   UNL     1      48.503   3.715  17.471  0.00  0.00    +0.000 A 
ATOM      5  C   UNL     1      49.646   2.948  17.213  0.00  0.00    +0.000 A 
ATOM      6  C   UNL     1      50.877   3.284  17.785  0.00  0.00    +0.000 A 
ENDROOT
BRANCH   1   7
ATOM      7  C   UNL     1      52.322   4.761  19.239  0.00  0.00    +0.000 C 
BRANCH   7  10
ATOM      8  C   UNL     1      53.397   6.370  17.715  0.00  0.00    +0.000 C 
ATOM      9  O   UNL     1      53.730   5.481  16.937  0.00  0.00    +0.000 OA
ATOM     10  N   UNL     1      52.729   6.099  18.886  0.00  0.00    +0.000 N 
ATOM     11  H   UNL     1      52.479   6.869  19.497  0.00  0.00    +0.000 HD
BRANCH   8  17
ATOM     12  C   UNL     1      52.709   8.800  17.150  0.00  0.00    +0.000 A 
ATOM     13  C   UNL     1      53.124  10.091  16.781  0.00  0.00    +0.000 A 
ATOM     14  C   UNL     1      54.478  10.416  16.687  0.00  0.00    +0.000 A 
ATOM     15  C   UNL     1      55.442   9.456  16.967  0.00  0.00    +0.000 A 
ATOM     16  C   UNL     1      55.049   8.165  17.315  0.00  0.00    +0.000 A 
ATOM     17  C   UNL     1      53.687   7.811  17.395  0.00  0.00    +0.000 A 
BRANCH  12  18
ATOM     18  O   UNL     1      51.387   8.450  17.279  0.00  0.00    +0.000 OA
BRANCH  18  20
ATOM     19  C   UNL     1      50.358   6.989  15.692  0.00  0.00    +0.000 C 
ATOM     20  C   UNL     1      50.588   8.433  16.095  0.00  0.00    +0.000 C 
ENDBRANCH  18  20
ENDBRANCH  12  18
ENDBRANCH   8  17
ENDBRANCH   7  10
ENDBRANCH   1   7
BRANCH   4  21
ATOM     21  C   UNL     1      47.185   3.349  16.836  0.00  0.00    +0.000 C 
BRANCH  21  22
ATOM     22  N   UNL     1      46.769   4.346  15.881  0.00  0.00    +0.000 N 
ATOM     23  C   UNL     1      46.861   4.128  14.531  0.00  0.00    +0.000 C 
ATOM     24  O   UNL     1      47.255   3.059  14.069  0.00  0.00    +0.000 OA
ATOM     25  H   UNL     1      46.676   5.297  16.225  0.00  0.00    +0.000 HD
BRANCH  23  26
ATOM     26  C   UNL     1      46.402   5.218  13.658  0.00  0.00    +0.000 A 
ATOM     27  C   UNL     1      47.216   6.324  13.447  0.00  0.00    +0.000 A 
ATOM     28  S   UNL     1      46.553   7.464  12.366  0.00  0.00    +0.000 S 
ATOM     29  C   UNL     1      45.133   6.546  12.182  0.00  0.00    +0.000 A 
ATOM     30  N   UNL     1      44.117   6.980  11.389  0.00  0.00    +0.000 NA
ATOM     31  C   UNL     1      43.086   6.199  11.364  0.00  0.00    +0.000 A 
ATOM     32  N   UNL     1      42.984   5.021  12.060  0.00  0.00    +0.000 N 
ATOM     33  C   UNL     1      43.996   4.532  12.851  0.00  0.00    +0.000 A 
ATOM     34  O   UNL     1      43.887   3.453  13.427  0.00  0.00    +0.000 OA
ATOM     35  C   UNL     1      45.172   5.376  12.920  0.00  0.00    +0.000 A 
ATOM     36  H   UNL     1      42.155   4.451  11.993  0.00  0.00    +0.000 HD
ENDBRANCH  23  26
ENDBRANCH  21  22
ENDBRANCH   4  21
TORSDOF 8
ENDMDL
MODEL 6
REMARK VINA RESULT:    -6.150      3.070      8.452
REMARK INTER + INTRA:         -10.566
REMARK INTER:                  -9.957
REMARK INTRA:                  -0.609
REMARK UNBOUND:                -1.539
REMARK  Name = 
REMARK  9 active torsions:
REMARK  status: ('A' for Active; 'I' for Inactive)
REMARK    1  A    between atoms: C_1  and  C_2
REMARK    2  A    between atoms: C_2  and  O_3
REMARK    3  A    between atoms: O_3  and  C_4
REMARK    4  A    between atoms: C_9  and  C_10
REMARK    5  A    between atoms: N_12  and  C_13
REMARK    6  A    between atoms: C_13  and  C_14
REMARK    7  A    between atoms: C_17  and  C_18
REMARK    8  A    between atoms: C_18  and  N_19
REMARK    9  A    between atoms: C_20  and  C_22
REMARK                            x       y       z     vdW  Elec       q    Type
REMARK                         _______ _______ _______ _____ _____    ______ ____
ROOT
ATOM      1  C   UNL     1      44.826   7.118  11.697  0.00  0.00    +0.000 A 
ATOM      2  C   UNL     1      45.201   8.467  11.717  0.00  0.00    +0.000 A 
ATOM      3  C   UNL     1      46.275   8.899  12.506  0.00  0.00    +0.000 A 
ATOM      4  C   UNL     1      47.008   7.984  13.273  0.00  0.00    +0.000 A 
ATOM      5  C   UNL     1      46.631   6.635  13.253  0.00  0.00    +0.000 A 
ATOM      6  C   UNL     1      45.557   6.205  12.466  0.00  0.00    +0.000 A 
ENDROOT
BRANCH   1   7
ATOM      7  C   UNL     1      43.676   6.648  10.840  0.00  0.00    +0.000 C 
BRANCH   7  10
ATOM      8  C   UNL     1      45.073   5.217   9.403  0.00  0.00    +0.000 C 
ATOM      9  O   UNL     1      45.829   6.145   9.134  0.00  0.00    +0.000 OA
ATOM     10  N   UNL     1      43.972   5.386  10.209  0.00  0.00    +0.000 N 
ATOM     11  H   UNL     1      43.377   4.587  10.399  0.00  0.00    +0.000 HD
BRANCH   8  17
ATOM     12  C   UNL     1      44.755   2.649   9.365  0.00  0.00    +0.000 A 
ATOM     13  C   UNL     1      45.164   1.414   8.833  0.00  0.00    +0.000 A 
ATOM     14  C   UNL     1      46.113   1.346   7.811  0.00  0.00    +0.000 A 
ATOM     15  C   UNL     1      46.666   2.513   7.301  0.00  0.00    +0.000 A 
ATOM     16  C   UNL     1      46.287   3.745   7.829  0.00  0.00    +0.000 A 
ATOM     17  C   UNL     1      45.346   3.834   8.875  0.00  0.00    +0.000 A 
BRANCH  12  18
ATOM     18  O   UNL     1      43.805   2.757  10.352  0.00  0.00    +0.000 OA
BRANCH  18  20
ATOM     19  C   UNL     1      43.327   3.288  12.632  0.00  0.00    +0.000 C 
ATOM     20  C   UNL     1      44.210   2.487  11.695  0.00  0.00    +0.000 C 
ENDBRANCH  18  20
ENDBRANCH  12  18
ENDBRANCH   8  17
ENDBRANCH   7  10
ENDBRANCH   1   7
BRANCH   4  21
ATOM     21  C   UNL     1      48.159   8.436  14.137  0.00  0.00    +0.000 C 
BRANCH  21  22
ATOM     22  N   UNL     1      48.283   7.614  15.315  0.00  0.00    +0.000 N 
ATOM     23  C   UNL     1      49.478   7.042  15.666  0.00  0.00    +0.000 C 
ATOM     24  O   UNL     1      50.508   7.238  15.025  0.00  0.00    +0.000 OA
ATOM     25  H   UNL     1      47.422   7.248  15.709  0.00  0.00    +0.000 HD
BRANCH  23  26
ATOM     26  C   UNL     1      49.480   6.228  16.890  0.00  0.00    +0.000 A 
ATOM     27  C   UNL     1      50.255   6.615  17.976  0.00  0.00    +0.000 A 
ATOM     28  S   UNL     1      50.096   5.589  19.330  0.00  0.00    +0.000 S 
ATOM     29  C   UNL     1      49.029   4.561  18.494  0.00  0.00    +0.000 A 
ATOM     30  N   UNL     1      48.523   3.446  19.086  0.00  0.00    +0.000 NA
ATOM     31  C   UNL     1      47.749   2.741  18.327  0.00  0.00    +0.000 A 
ATOM     32  N   UNL     1      47.434   3.054  17.029  0.00  0.00    +0.000 N 
ATOM     33  C   UNL     1      47.901   4.185  16.401  0.00  0.00    +0.000 A 
ATOM     34  O   UNL     1      47.565   4.456  15.251  0.00  0.00    +0.000 OA
ATOM     35  C   UNL     1      48.782   5.006  17.207  0.00  0.00    +0.000 A 
ATOM     36  H   UNL     1      46.817   2.467  16.491  0.00  0.00    +0.000 HD
ENDBRANCH  23  26
ENDBRANCH  21  22
ENDBRANCH   4  21
TORSDOF 8
ENDMDL
MODEL 7
REMARK VINA RESULT:    -5.992      4.379      8.727
REMARK INTER + INTRA:         -10.334
REMARK INTER:                  -8.808
REMARK INTRA:                  -1.526
REMARK UNBOUND:                -1.539
REMARK  Name = 
REMARK  9 active torsions:
REMARK  status: ('A' for Active; 'I' for Inactive)
REMARK    1  A    between atoms: C_1  and  C_2
REMARK    2  A    between atoms: C_2  and  O_3
REMARK    3  A    between atoms: O_3  and  C_4
REMARK    4  A    between atoms: C_9  and  C_10
REMARK    5  A    between atoms: N_12  and  C_13
REMARK    6  A    between atoms: C_13  and  C_14
REMARK    7  A    between atoms: C_17  and  C_18
REMARK    8  A    between atoms: C_18  and  N_19
REMARK    9  A    between atoms: C_20  and  C_22
REMARK                            x       y       z     vdW  Elec       q    Type
REMARK                         _______ _______ _______ _____ _____    ______ ____
ROOT
ATOM      1  C   UNL     1      46.025   7.029  12.107  0.00  0.00    +0.000 A 
ATOM      2  C   UNL     1      46.774   8.211  12.172  0.00  0.00    +0.000 A 
ATOM      3  C   UNL     1      47.851   8.326  13.060  0.00  0.00    +0.000 A 
ATOM      4  C   UNL     1      48.214   7.252  13.883  0.00  0.00    +0.000 A 
ATOM      5  C   UNL     1      47.462   6.071  13.817  0.00  0.00    +0.000 A 
ATOM      6  C   UNL     1      46.386   5.957  12.932  0.00  0.00    +0.000 A 
ENDROOT
BRANCH   1   7
ATOM      7  C   UNL     1      44.870   6.899  11.144  0.00  0.00    +0.000 C 
BRANCH   7  10
ATOM      8  C   UNL     1      45.520   5.184   9.500  0.00  0.00    +0.000 C 
ATOM      9  O   UNL     1      46.239   5.973   8.893  0.00  0.00    +0.000 OA
ATOM     10  N   UNL     1      44.788   5.566  10.599  0.00  0.00    +0.000 N 
ATOM     11  H   UNL     1      44.206   4.877  11.064  0.00  0.00    +0.000 HD
BRANCH   8  17
ATOM     12  C   UNL     1      44.505   2.805   9.566  0.00  0.00    +0.000 A 
ATOM     13  C   UNL     1      44.594   1.468   9.139  0.00  0.00    +0.000 A 
ATOM     14  C   UNL     1      45.563   1.067   8.219  0.00  0.00    +0.000 A 
ATOM     15  C   UNL     1      46.456   1.997   7.703  0.00  0.00    +0.000 A 
ATOM     16  C   UNL     1      46.395   3.323   8.128  0.00  0.00    +0.000 A 
ATOM     17  C   UNL     1      45.438   3.743   9.073  0.00  0.00    +0.000 A 
BRANCH  12  18
ATOM     18  O   UNL     1      43.549   3.242  10.450  0.00  0.00    +0.000 OA
BRANCH  18  20
ATOM     19  C   UNL     1      43.632   3.401  12.833  0.00  0.00    +0.000 C 
ATOM     20  C   UNL     1      43.363   2.490  11.650  0.00  0.00    +0.000 C 
ENDBRANCH  18  20
ENDBRANCH  12  18
ENDBRANCH   8  17
ENDBRANCH   7  10
ENDBRANCH   1   7
BRANCH   4  21
ATOM     21  C   UNL     1      49.363   7.366  14.852  0.00  0.00    +0.000 C 
BRANCH  21  22
ATOM     22  N   UNL     1      50.621   7.501  14.160  0.00  0.00    +0.000 N 
ATOM     23  C   UNL     1      51.360   8.652  14.235  0.00  0.00    +0.000 C 
ATOM     24  O   UNL     1      51.015   9.604  14.931  0.00  0.00    +0.000 OA
ATOM     25  H   UNL     1      50.801   6.844  13.406  0.00  0.00    +0.000 HD
BRANCH  23  26
ATOM     26  C   UNL     1      52.626   8.669  13.489  0.00  0.00    +0.000 A 
ATOM     27  C   UNL     1      53.808   9.002  14.138  0.00  0.00    +0.000 A 
ATOM     28  S   UNL     1      55.186   8.917  13.137  0.00  0.00    +0.000 S 
ATOM     29  C   UNL     1      54.246   8.484  11.787  0.00  0.00    +0.000 A 
ATOM     30  N   UNL     1      54.820   8.279  10.571  0.00  0.00    +0.000 NA
ATOM     31  C   UNL     1      53.986   7.985   9.628  0.00  0.00    +0.000 A 
ATOM     32  N   UNL     1      52.629   7.874   9.795  0.00  0.00    +0.000 N 
ATOM     33  C   UNL     1      52.010   8.044  11.011  0.00  0.00    +0.000 A 
ATOM     34  O   UNL     1      50.798   7.896  11.132  0.00  0.00    +0.000 OA
ATOM     35  C   UNL     1      52.902   8.386  12.100  0.00  0.00    +0.000 A 
ATOM     36  H   UNL     1      52.031   7.632   9.019  0.00  0.00    +0.000 HD
ENDBRANCH  23  26
ENDBRANCH  21  22
ENDBRANCH   4  21
TORSDOF 8
ENDMDL
MODEL 8
REMARK VINA RESULT:    -5.655      3.470      9.216
REMARK INTER + INTRA:          -9.839
REMARK INTER:                  -9.046
REMARK INTRA:                  -0.794
REMARK UNBOUND:                -1.539
REMARK  Name = 
REMARK  9 active torsions:
REMARK  status: ('A' for Active; 'I' for Inactive)
REMARK    1  A    between atoms: C_1  and  C_2
REMARK    2  A    between atoms: C_2  and  O_3
REMARK    3  A    between atoms: O_3  and  C_4
REMARK    4  A    between atoms: C_9  and  C_10
REMARK    5  A    between atoms: N_12  and  C_13
REMARK    6  A    between atoms: C_13  and  C_14
REMARK    7  A    between atoms: C_17  and  C_18
REMARK    8  A    between atoms: C_18  and  N_19
REMARK    9  A    between atoms: C_20  and  C_22
REMARK                            x       y       z     vdW  Elec       q    Type
REMARK                         _______ _______ _______ _____ _____    ______ ____
ROOT
ATOM      1  C   UNL     1      46.482   6.440  12.195  0.00  0.00    +0.000 A 
ATOM      2  C   UNL     1      47.427   7.286  11.600  0.00  0.00    +0.000 A 
ATOM      3  C   UNL     1      48.613   7.614  12.268  0.00  0.00    +0.000 A 
ATOM      4  C   UNL     1      48.888   7.083  13.534  0.00  0.00    +0.000 A 
ATOM      5  C   UNL     1      47.941   6.237  14.129  0.00  0.00    +0.000 A 
ATOM      6  C   UNL     1      46.756   5.911  13.462  0.00  0.00    +0.000 A 
ENDROOT
BRANCH   1   7
ATOM      7  C   UNL     1      45.208   6.077  11.473  0.00  0.00    +0.000 C 
BRANCH   7  10
ATOM      8  C   UNL     1      45.737   5.071   9.288  0.00  0.00    +0.000 C 
ATOM      9  O   UNL     1      45.843   6.171   8.755  0.00  0.00    +0.000 OA
ATOM     10  N   UNL     1      45.397   4.934  10.614  0.00  0.00    +0.000 N 
ATOM     11  H   UNL     1      45.320   4.002  11.006  0.00  0.00    +0.000 HD
BRANCH   8  17
ATOM     12  C   UNL     1      45.797   2.502   8.980  0.00  0.00    +0.000 A 
ATOM     13  C   UNL     1      46.174   1.416   8.170  0.00  0.00    +0.000 A 
ATOM     14  C   UNL     1      46.720   1.616   6.902  0.00  0.00    +0.000 A 
ATOM     15  C   UNL     1      46.893   2.906   6.417  0.00  0.00    +0.000 A 
ATOM     16  C   UNL     1      46.543   3.995   7.213  0.00  0.00    +0.000 A 
ATOM     17  C   UNL     1      46.010   3.815   8.505  0.00  0.00    +0.000 A 
BRANCH  12  18
ATOM     18  O   UNL     1      45.232   2.344  10.222  0.00  0.00    +0.000 OA
BRANCH  18  20
ATOM     19  C   UNL     1      43.377   2.571  11.712  0.00  0.00    +0.000 C 
ATOM     20  C   UNL     1      43.809   2.244  10.295  0.00  0.00    +0.000 C 
ENDBRANCH  18  20
ENDBRANCH  12  18
ENDBRANCH   8  17
ENDBRANCH   7  10
ENDBRANCH   1   7
BRANCH   4  21
ATOM     21  C   UNL     1      50.155   7.437  14.271  0.00  0.00    +0.000 C 
BRANCH  21  22
ATOM     22  N   UNL     1      49.906   7.632  15.678  0.00  0.00    +0.000 N 
ATOM     23  C   UNL     1      50.476   6.823  16.626  0.00  0.00    +0.000 C 
ATOM     24  O   UNL     1      51.261   5.925  16.329  0.00  0.00    +0.000 OA
ATOM     25  H   UNL     1      49.095   8.191  15.925  0.00  0.00    +0.000 HD
BRANCH  23  26
ATOM     26  C   UNL     1      50.149   7.123  18.027  0.00  0.00    +0.000 A 
ATOM     27  C   UNL     1      50.965   7.976  18.760  0.00  0.00    +0.000 A 
ATOM     28  S   UNL     1      50.410   8.258  20.347  0.00  0.00    +0.000 S 
ATOM     29  C   UNL     1      49.089   7.209  20.129  0.00  0.00    +0.000 A 
ATOM     30  N   UNL     1      48.206   6.975  21.138  0.00  0.00    +0.000 NA
ATOM     31  C   UNL     1      47.268   6.135  20.845  0.00  0.00    +0.000 A 
ATOM     32  N   UNL     1      47.133   5.510  19.631  0.00  0.00    +0.000 N 
ATOM     33  C   UNL     1      47.984   5.738  18.576  0.00  0.00    +0.000 A 
ATOM     34  O   UNL     1      47.808   5.193  17.490  0.00  0.00    +0.000 OA
ATOM     35  C   UNL     1      49.061   6.666  18.857  0.00  0.00    +0.000 A 
ATOM     36  H   UNL     1      46.373   4.869  19.462  0.00  0.00    +0.000 HD
ENDBRANCH  23  26
ENDBRANCH  21  22
ENDBRANCH   4  21
TORSDOF 8
ENDMDL
MODEL 9
REMARK VINA RESULT:    -5.245     11.050     13.660
REMARK INTER + INTRA:          -9.237
REMARK INTER:                  -7.556
REMARK INTRA:                  -1.681
REMARK UNBOUND:                -1.539
REMARK  Name = 
REMARK  9 active torsions:
REMARK  status: ('A' for Active; 'I' for Inactive)
REMARK    1  A    between atoms: C_1  and  C_2
REMARK    2  A    between atoms: C_2  and  O_3
REMARK    3  A    between atoms: O_3  and  C_4
REMARK    4  A    between atoms: C_9  and  C_10
REMARK    5  A    between atoms: N_12  and  C_13
REMARK    6  A    between atoms: C_13  and  C_14
REMARK    7  A    between atoms: C_17  and  C_18
REMARK    8  A    between atoms: C_18  and  N_19
REMARK    9  A    between atoms: C_20  and  C_22
REMARK                            x       y       z     vdW  Elec       q    Type
REMARK                         _______ _______ _______ _____ _____    ______ ____
ROOT
ATOM      1  C   UNL     1      41.240  -3.602  14.600  0.00  0.00    +0.000 A 
ATOM      2  C   UNL     1      40.594  -2.419  14.982  0.00  0.00    +0.000 A 
ATOM      3  C   UNL     1      40.324  -2.156  16.331  0.00  0.00    +0.000 A 
ATOM      4  C   UNL     1      40.715  -3.062  17.326  0.00  0.00    +0.000 A 
ATOM      5  C   UNL     1      41.359  -4.246  16.942  0.00  0.00    +0.000 A 
ATOM      6  C   UNL     1      41.628  -4.508  15.595  0.00  0.00    +0.000 A 
ENDROOT
BRANCH   1   7
ATOM      7  C   UNL     1      41.542  -3.883  13.149  0.00  0.00    +0.000 C 
BRANCH   7  10
ATOM      8  C   UNL     1      40.363  -2.528  11.463  0.00  0.00    +0.000 C 
ATOM      9  O   UNL     1      41.276  -1.710  11.415  0.00  0.00    +0.000 OA
ATOM     10  N   UNL     1      40.399  -3.610  12.312  0.00  0.00    +0.000 N 
ATOM     11  H   UNL     1      39.618  -4.256  12.316  0.00  0.00    +0.000 HD
BRANCH   8  17
ATOM     12  C   UNL     1      38.172  -1.395  10.679  0.00  0.00    +0.000 A 
ATOM     13  C   UNL     1      37.063  -1.434   9.816  0.00  0.00    +0.000 A 
ATOM     14  C   UNL     1      36.949  -2.416   8.830  0.00  0.00    +0.000 A 
ATOM     15  C   UNL     1      37.946  -3.372   8.686  0.00  0.00    +0.000 A 
ATOM     16  C   UNL     1      39.043  -3.360   9.545  0.00  0.00    +0.000 A 
ATOM     17  C   UNL     1      39.166  -2.390  10.561  0.00  0.00    +0.000 A 
BRANCH  12  18
ATOM     18  O   UNL     1      38.332  -0.430  11.643  0.00  0.00    +0.000 OA
BRANCH  18  20
ATOM     19  C   UNL     1      37.265  -1.325  13.586  0.00  0.00    +0.000 C 
ATOM     20  C   UNL     1      37.250  -0.215  12.552  0.00  0.00    +0.000 C 
ENDBRANCH  18  20
ENDBRANCH  12  18
ENDBRANCH   8  17
ENDBRANCH   7  10
ENDBRANCH   1   7
BRANCH   4  21
ATOM     21  C   UNL     1      40.419  -2.798  18.781  0.00  0.00    +0.000 C 
BRANCH  21  22
ATOM     22  N   UNL     1      40.154  -1.400  19.016  0.00  0.00    +0.000 N 
ATOM     23  C   UNL     1      38.899  -0.955  19.343  0.00  0.00    +0.000 C 
ATOM     24  O   UNL     1      37.954  -1.724  19.498  0.00  0.00    +0.000 OA
ATOM     25  H   UNL     1      40.839  -0.739  18.663  0.00  0.00    +0.000 HD
BRANCH  23  26
ATOM     26  C   UNL     1      38.754   0.492  19.562  0.00  0.00    +0.000 A 
ATOM     27  C   UNL     1      38.942   1.021  20.832  0.00  0.00    +0.000 A 
ATOM     28  S   UNL     1      38.790   2.718  20.895  0.00  0.00    +0.000 S 
ATOM     29  C   UNL     1      38.414   2.801  19.239  0.00  0.00    +0.000 A 
ATOM     30  N   UNL     1      38.140   3.992  18.641  0.00  0.00    +0.000 NA
ATOM     31  C   UNL     1      37.842   3.905  17.386  0.00  0.00    +0.000 A 
ATOM     32  N   UNL     1      37.795   2.733  16.675  0.00  0.00    +0.000 N 
ATOM     33  C   UNL     1      38.091   1.511  17.231  0.00  0.00    +0.000 A 
ATOM     34  O   UNL     1      38.081   0.486  16.555  0.00  0.00    +0.000 OA
ATOM     35  C   UNL     1      38.424   1.553  18.641  0.00  0.00    +0.000 A 
ATOM     36  H   UNL     1      37.563   2.732  15.694  0.00  0.00    +0.000 HD
ENDBRANCH  23  26
ENDBRANCH  21  22
ENDBRANCH   4  21
TORSDOF 8
ENDMDL
