MODEL 1
REMARK VINA RESULT:    -8.697      0.000      0.000
REMARK INTER + INTRA:         -13.422
REMARK INTER:                 -12.256
REMARK INTRA:                  -1.166
REMARK UNBOUND:                -1.166
REMARK  Name = 
REMARK  7 active torsions:
REMARK  status: ('A' for Active; 'I' for Inactive)
REMARK    1  A    between atoms: C_2  and  C_3
REMARK    2  A    between atoms: C_6  and  O_7
REMARK    3  A    between atoms: O_7  and  C_8
REMARK    4  A    between atoms: C_8  and  C_9
REMARK    5  A    between atoms: C_12  and  C_13
REMARK    6  A    between atoms: C_13  and  N_14
REMARK    7  A    between atoms: C_15  and  C_17
REMARK                            x       y       z     vdW  Elec       q    Type
REMARK                         _______ _______ _______ _____ _____    ______ ____
ROOT
ATOM      1  C   UNL     1      44.716   4.517  12.027  0.00  0.00    +0.000 A 
ATOM      2  C   UNL     1      45.736   3.939  12.795  0.00  0.00    +0.000 A 
ATOM      3  C   UNL     1      46.785   4.719  13.300  0.00  0.00    +0.000 A 
ATOM      4  C   UNL     1      46.826   6.101  13.065  0.00  0.00    +0.000 A 
ATOM      5  C   UNL     1      45.812   6.675  12.284  0.00  0.00    +0.000 A 
ATOM      6  C   UNL     1      44.763   5.895  11.783  0.00  0.00    +0.000 A 
ENDROOT
BRANCH   1   7
ATOM      7  C   UNL     1      43.580   3.678  11.482  0.00  0.00    +0.000 C 
BRANCH   7   8
ATOM      8  O   UNL     1      43.481   3.871  10.071  0.00  0.00    +0.000 OA
BRANCH   8  12
ATOM      9  C   UNL     1      46.509   2.424   7.577  0.00  0.00    +0.000 A 
ATOM     10  C   UNL     1      45.833   1.517   8.400  0.00  0.00    +0.000 A 
ATOM     11  C   UNL     1      44.810   1.959   9.255  0.00  0.00    +0.000 A 
ATOM     12  C   UNL     1      44.458   3.309   9.291  0.00  0.00    +0.000 A 
ATOM     13  C   UNL     1      45.141   4.211   8.469  0.00  0.00    +0.000 A 
ATOM     14  C   UNL     1      46.161   3.776   7.615  0.00  0.00    +0.000 A 
BRANCH   9  16
ATOM     15  N   UNL     1      48.387   1.591   5.990  0.00  0.00    +0.000 NA
ATOM     16  C   UNL     1      47.549   1.966   6.700  0.00  0.00    +0.000 C 
ENDBRANCH   9  16
ENDBRANCH   8  12
ENDBRANCH   7   8
ENDBRANCH   1   7
BRANCH   4  17
ATOM     17  C   UNL     1      47.937   6.963  13.614  0.00  0.00    +0.000 C 
BRANCH  17  18
ATOM     18  N   UNL     1      47.926   6.988  15.055  0.00  0.00    +0.000 N 
ATOM     19  C   UNL     1      49.074   6.829  15.789  0.00  0.00    +0.000 C 
ATOM     20  O   UNL     1      50.176   6.686  15.265  0.00  0.00    +0.000 OA
ATOM     21  H   UNL     1      47.033   6.810  15.502  0.00  0.00    +0.000 HD
BRANCH  19  22
ATOM     22  C   UNL     1      48.924   6.909  17.248  0.00  0.00    +0.000 A 
ATOM     23  C   UNL     1      48.743   8.139  17.866  0.00  0.00    +0.000 A 
ATOM     24  S   UNL     1      48.532   8.030  19.558  0.00  0.00    +0.000 S 
ATOM     25  C   UNL     1      48.731   6.342  19.527  0.00  0.00    +0.000 A 
ATOM     26  N   UNL     1      48.692   5.607  20.674  0.00  0.00    +0.000 NA
ATOM     27  C   UNL     1      48.888   4.343  20.504  0.00  0.00    +0.000 A 
ATOM     28  N   UNL     1      49.110   3.742  19.293  0.00  0.00    +0.000 N 
ATOM     29  C   UNL     1      49.122   4.433  18.106  0.00  0.00    +0.000 A 
ATOM     30  O   UNL     1      49.269   3.854  17.037  0.00  0.00    +0.000 OA
ATOM     31  C   UNL     1      48.928   5.862  18.244  0.00  0.00    +0.000 A 
ATOM     32  H   UNL     1      49.241   2.741  19.227  0.00  0.00    +0.000 HD
ENDBRANCH  19  22
ENDBRANCH  17  18
ENDBRANCH   4  17
TORSDOF 7
ENDMDL
MODEL 2
REMARK VINA RESULT:    -8.052      1.687      2.404
REMARK INTER + INTRA:         -12.513
REMARK INTER:                 -11.388
REMARK INTRA:                  -1.125
REMARK UNBOUND:                -1.166
REMARK  Name = 
REMARK  7 active torsions:
REMARK  status: ('A' for Active; 'I' for Inactive)
REMARK    1  A    between atoms: C_2  and  C_3
REMARK    2  A    between atoms: C_6  and  O_7
REMARK    3  A    between atoms: O_7  and  C_8
REMARK    4  A    between atoms: C_8  and  C_9
REMARK    5  A    between atoms: C_12  and  C_13
REMARK    6  A    between atoms: C_13  and  N_14
REMARK    7  A    between atoms: C_15  and  C_17
REMARK                            x       y       z     vdW  Elec       q    Type
REMARK                         _______ _______ _______ _____ _____    ______ ____
ROOT
ATOM      1  C   UNL     1      44.688   4.190  12.362  0.00  0.00    +0.000 A 
ATOM      2  C   UNL     1      45.714   3.364  12.841  0.00  0.00    +0.000 A 
ATOM      3  C   UNL     1      46.828   3.908  13.495  0.00  0.00    +0.000 A 
ATOM      4  C   UNL     1      46.930   5.291  13.703  0.00  0.00    +0.000 A 
ATOM      5  C   UNL     1      45.910   6.116  13.211  0.00  0.00    +0.000 A 
ATOM      6  C   UNL     1      44.797   5.572  12.560  0.00  0.00    +0.000 A 
ENDROOT
BRANCH   1   7
ATOM      7  C   UNL     1      43.483   3.606  11.656  0.00  0.00    +0.000 C 
BRANCH   7   8
ATOM      8  O   UNL     1      43.496   4.003  10.285  0.00  0.00    +0.000 OA
BRANCH   8  12
ATOM      9  C   UNL     1      46.441   2.512   7.720  0.00  0.00    +0.000 A 
ATOM     10  C   UNL     1      45.680   1.602   8.461  0.00  0.00    +0.000 A 
ATOM     11  C   UNL     1      44.682   2.058   9.336  0.00  0.00    +0.000 A 
ATOM     12  C   UNL     1      44.439   3.426   9.475  0.00  0.00    +0.000 A 
ATOM     13  C   UNL     1      45.206   4.331   8.734  0.00  0.00    +0.000 A 
ATOM     14  C   UNL     1      46.202   3.881   7.860  0.00  0.00    +0.000 A 
BRANCH   9  16
ATOM     15  N   UNL     1      48.282   1.664   6.096  0.00  0.00    +0.000 NA
ATOM     16  C   UNL     1      47.457   2.041   6.821  0.00  0.00    +0.000 C 
ENDBRANCH   9  16
ENDBRANCH   8  12
ENDBRANCH   7   8
ENDBRANCH   1   7
BRANCH   4  17
ATOM     17  C   UNL     1      48.113   5.896  14.421  0.00  0.00    +0.000 C 
BRANCH  17  18
ATOM     18  N   UNL     1      47.861   6.036  15.833  0.00  0.00    +0.000 N 
ATOM     19  C   UNL     1      48.831   6.473  16.699  0.00  0.00    +0.000 C 
ATOM     20  O   UNL     1      49.954   6.797  16.322  0.00  0.00    +0.000 OA
ATOM     21  H   UNL     1      47.074   5.514  16.205  0.00  0.00    +0.000 HD
BRANCH  19  22
ATOM     22  C   UNL     1      48.429   6.600  18.107  0.00  0.00    +0.000 A 
ATOM     23  C   UNL     1      48.460   5.494  18.946  0.00  0.00    +0.000 A 
ATOM     24  S   UNL     1      48.013   5.844  20.556  0.00  0.00    +0.000 S 
ATOM     25  C   UNL     1      47.710   7.473  20.174  0.00  0.00    +0.000 A 
ATOM     26  N   UNL     1      47.259   8.345  21.118  0.00  0.00    +0.000 NA
ATOM     27  C   UNL     1      47.044   9.540  20.680  0.00  0.00    +0.000 A 
ATOM     28  N   UNL     1      47.246   9.947  19.388  0.00  0.00    +0.000 N 
ATOM     29  C   UNL     1      47.733   9.116  18.409  0.00  0.00    +0.000 A 
ATOM     30  O   UNL     1      47.953   9.529  17.277  0.00  0.00    +0.000 OA
ATOM     31  C   UNL     1      47.971   7.755  18.845  0.00  0.00    +0.000 A 
ATOM     32  H   UNL     1      47.071  10.905  19.113  0.00  0.00    +0.000 HD
ENDBRANCH  19  22
ENDBRANCH  17  18
ENDBRANCH   4  17
TORSDOF 7
ENDMDL
MODEL 3
REMARK VINA RESULT:    -7.334      2.717      4.510
REMARK INTER + INTRA:         -11.501
REMARK INTER:                 -10.103
REMARK INTRA:                  -1.398
REMARK UNBOUND:                -1.166
REMARK  Name = 
REMARK  7 active torsions:
REMARK  status: ('A' for Active; 'I' for Inactive)
REMARK    1  A    between atoms: C_2  and  C_3
REMARK    2  A    between atoms: C_6  and  O_7
REMARK    3  A    between atoms: O_7  and  C_8
REMARK    4  A    between atoms: C_8  and  C_9
REMARK    5  A    between atoms: C_12  and  C_13
REMARK    6  A    between atoms: C_13  and  N_14
REMARK    7  A    between atoms: C_15  and  C_17
REMARK                            x       y       z     vdW  Elec       q    Type
REMARK                         _______ _______ _______ _____ _____    ______ ____
ROOT
ATOM      1  C   UNL     1      44.900   4.327  12.254  0.00  0.00    +0.000 A 
ATOM      2  C   UNL     1      45.724   3.369  12.860  0.00  0.00    +0.000 A 
ATOM      3  C   UNL     1      46.747   3.754  13.738  0.00  0.00    +0.000 A 
ATOM      4  C   UNL     1      46.955   5.106  14.046  0.00  0.00    +0.000 A 
ATOM      5  C   UNL     1      46.139   6.064  13.427  0.00  0.00    +0.000 A 
ATOM      6  C   UNL     1      45.117   5.679  12.552  0.00  0.00    +0.000 A 
ENDROOT
BRANCH   1   7
ATOM      7  C   UNL     1      43.794   3.916  11.306  0.00  0.00    +0.000 C 
BRANCH   7   8
ATOM      8  O   UNL     1      44.043   4.471  10.014  0.00  0.00    +0.000 OA
BRANCH   8  12
ATOM      9  C   UNL     1      46.769   2.664   7.410  0.00  0.00    +0.000 A 
ATOM     10  C   UNL     1      46.003   1.845   8.247  0.00  0.00    +0.000 A 
ATOM     11  C   UNL     1      45.077   2.409   9.138  0.00  0.00    +0.000 A 
ATOM     12  C   UNL     1      44.911   3.794   9.198  0.00  0.00    +0.000 A 
ATOM     13  C   UNL     1      45.682   4.607   8.362  0.00  0.00    +0.000 A 
ATOM     14  C   UNL     1      46.607   4.050   7.471  0.00  0.00    +0.000 A 
BRANCH   9  16
ATOM     15  N   UNL     1      48.474   1.617   5.755  0.00  0.00    +0.000 NA
ATOM     16  C   UNL     1      47.710   2.082   6.495  0.00  0.00    +0.000 C 
ENDBRANCH   9  16
ENDBRANCH   8  12
ENDBRANCH   7   8
ENDBRANCH   1   7
BRANCH   4  17
ATOM     17  C   UNL     1      48.039   5.541  15.002  0.00  0.00    +0.000 C 
BRANCH  17  18
ATOM     18  N   UNL     1      48.490   6.880  14.720  0.00  0.00    +0.000 N 
ATOM     19  C   UNL     1      49.764   7.291  15.019  0.00  0.00    +0.000 C 
ATOM     20  O   UNL     1      50.600   6.539  15.514  0.00  0.00    +0.000 OA
ATOM     21  H   UNL     1      47.768   7.582  14.595  0.00  0.00    +0.000 HD
BRANCH  19  22
ATOM     22  C   UNL     1      50.101   8.672  14.648  0.00  0.00    +0.000 A 
ATOM     23  C   UNL     1      50.516   9.575  15.618  0.00  0.00    +0.000 A 
ATOM     24  S   UNL     1      50.916  11.114  14.993  0.00  0.00    +0.000 S 
ATOM     25  C   UNL     1      50.494  10.641  13.415  0.00  0.00    +0.000 A 
ATOM     26  N   UNL     1      50.576  11.516  12.373  0.00  0.00    +0.000 NA
ATOM     27  C   UNL     1      50.196  11.030  11.239  0.00  0.00    +0.000 A 
ATOM     28  N   UNL     1      49.751   9.749  11.047  0.00  0.00    +0.000 N 
ATOM     29  C   UNL     1      49.685   8.820  12.057  0.00  0.00    +0.000 A 
ATOM     30  O   UNL     1      49.334   7.668  11.838  0.00  0.00    +0.000 OA
ATOM     31  C   UNL     1      50.081   9.323  13.358  0.00  0.00    +0.000 A 
ATOM     32  H   UNL     1      49.482   9.425  10.127  0.00  0.00    +0.000 HD
ENDBRANCH  19  22
ENDBRANCH  17  18
ENDBRANCH   4  17
TORSDOF 7
ENDMDL
MODEL 4
REMARK VINA RESULT:    -6.950      3.092      8.998
REMARK INTER + INTRA:         -10.960
REMARK INTER:                  -9.514
REMARK INTRA:                  -1.446
REMARK UNBOUND:                -1.166
REMARK  Name = 
REMARK  7 active torsions:
REMARK  status: ('A' for Active; 'I' for Inactive)
REMARK    1  A    between atoms: C_2  and  C_3
REMARK    2  A    between atoms: C_6  and  O_7
REMARK    3  A    between atoms: O_7  and  C_8
REMARK    4  A    between atoms: C_8  and  C_9
REMARK    5  A    between atoms: C_12  and  C_13
REMARK    6  A    between atoms: C_13  and  N_14
REMARK    7  A    between atoms: C_15  and  C_17
REMARK                            x       y       z     vdW  Elec       q    Type
REMARK                         _______ _______ _______ _____ _____    ______ ____
ROOT
ATOM      1  C   UNL     1      49.673   8.298  15.677  0.00  0.00    +0.000 A 
ATOM      2  C   UNL     1      50.365   7.764  14.582  0.00  0.00    +0.000 A 
ATOM      3  C   UNL     1      49.739   7.623  13.335  0.00  0.00    +0.000 A 
ATOM      4  C   UNL     1      48.411   8.033  13.152  0.00  0.00    +0.000 A 
ATOM      5  C   UNL     1      47.716   8.554  14.253  0.00  0.00    +0.000 A 
ATOM      6  C   UNL     1      48.342   8.697  15.496  0.00  0.00    +0.000 A 
ENDROOT
BRANCH   1   7
ATOM      7  C   UNL     1      50.346   8.453  17.024  0.00  0.00    +0.000 C 
BRANCH   7   8
ATOM      8  O   UNL     1      49.719   7.589  17.972  0.00  0.00    +0.000 OA
BRANCH   8  12
ATOM      9  C   UNL     1      50.634   3.533  17.539  0.00  0.00    +0.000 A 
ATOM     10  C   UNL     1      49.292   3.923  17.477  0.00  0.00    +0.000 A 
ATOM     11  C   UNL     1      48.939   5.275  17.620  0.00  0.00    +0.000 A 
ATOM     12  C   UNL     1      49.924   6.242  17.824  0.00  0.00    +0.000 A 
ATOM     13  C   UNL     1      51.263   5.844  17.889  0.00  0.00    +0.000 A 
ATOM     14  C   UNL     1      51.621   4.498  17.747  0.00  0.00    +0.000 A 
BRANCH   9  16
ATOM     15  N   UNL     1      51.275   1.031  17.266  0.00  0.00    +0.000 NA
ATOM     16  C   UNL     1      50.991   2.150  17.386  0.00  0.00    +0.000 C 
ENDBRANCH   9  16
ENDBRANCH   8  12
ENDBRANCH   7   8
ENDBRANCH   1   7
BRANCH   4  17
ATOM     17  C   UNL     1      47.723   7.907  11.814  0.00  0.00    +0.000 C 
BRANCH  17  18
ATOM     18  N   UNL     1      46.986   6.673  11.710  0.00  0.00    +0.000 N 
ATOM     19  C   UNL     1      45.615   6.648  11.721  0.00  0.00    +0.000 C 
ATOM     20  O   UNL     1      44.938   7.671  11.789  0.00  0.00    +0.000 OA
ATOM     21  H   UNL     1      47.491   5.825  11.946  0.00  0.00    +0.000 HD
BRANCH  19  22
ATOM     22  C   UNL     1      44.992   5.325  11.575  0.00  0.00    +0.000 A 
ATOM     23  C   UNL     1      44.306   4.754  12.639  0.00  0.00    +0.000 A 
ATOM     24  S   UNL     1      43.604   3.242  12.268  0.00  0.00    +0.000 S 
ATOM     25  C   UNL     1      44.240   3.275  10.691  0.00  0.00    +0.000 A 
ATOM     26  N   UNL     1      44.033   2.241   9.827  0.00  0.00    +0.000 NA
ATOM     27  C   UNL     1      44.598   2.388   8.676  0.00  0.00    +0.000 A 
ATOM     28  N   UNL     1      45.344   3.475   8.304  0.00  0.00    +0.000 N 
ATOM     29  C   UNL     1      45.552   4.557   9.125  0.00  0.00    +0.000 A 
ATOM     30  O   UNL     1      46.178   5.535   8.739  0.00  0.00    +0.000 OA
ATOM     31  C   UNL     1      44.954   4.432  10.440  0.00  0.00    +0.000 A 
ATOM     32  H   UNL     1      45.749   3.535   7.379  0.00  0.00    +0.000 HD
ENDBRANCH  19  22
ENDBRANCH  17  18
ENDBRANCH   4  17
TORSDOF 7
ENDMDL
MODEL 5
REMARK VINA RESULT:    -6.740      4.804      8.292
REMARK INTER + INTRA:         -10.663
REMARK INTER:                  -9.617
REMARK INTRA:                  -1.047
REMARK UNBOUND:                -1.166
REMARK  Name = 
REMARK  7 active torsions:
REMARK  status: ('A' for Active; 'I' for Inactive)
REMARK    1  A    between atoms: C_2  and  C_3
REMARK    2  A    between atoms: C_6  and  O_7
REMARK    3  A    between atoms: O_7  and  C_8
REMARK    4  A    between atoms: C_8  and  C_9
REMARK    5  A    between atoms: C_12  and  C_13
REMARK    6  A    between atoms: C_13  and  N_14
REMARK    7  A    between atoms: C_15  and  C_17
REMARK                            x       y       z     vdW  Elec       q    Type
REMARK                         _______ _______ _______ _____ _____    ______ ____
ROOT
ATOM      1  C   UNL     1      50.455   8.712  11.397  0.00  0.00    +0.000 A 
ATOM      2  C   UNL     1      49.531   9.766  11.417  0.00  0.00    +0.000 A 
ATOM      3  C   UNL     1      48.232   9.574  11.909  0.00  0.00    +0.000 A 
ATOM      4  C   UNL     1      47.836   8.327  12.413  0.00  0.00    +0.000 A 
ATOM      5  C   UNL     1      48.757   7.271  12.380  0.00  0.00    +0.000 A 
ATOM      6  C   UNL     1      50.054   7.464  11.890  0.00  0.00    +0.000 A 
ENDROOT
BRANCH   1   7
ATOM      7  C   UNL     1      51.858   8.916  10.867  0.00  0.00    +0.000 C 
BRANCH   7   8
ATOM      8  O   UNL     1      52.566   7.676  10.907  0.00  0.00    +0.000 OA
BRANCH   8  12
ATOM      9  C   UNL     1      53.575   5.650   7.391  0.00  0.00    +0.000 A 
ATOM     10  C   UNL     1      52.741   6.770   7.299  0.00  0.00    +0.000 A 
ATOM     11  C   UNL     1      52.375   7.479   8.454  0.00  0.00    +0.000 A 
ATOM     12  C   UNL     1      52.840   7.074   9.707  0.00  0.00    +0.000 A 
ATOM     13  C   UNL     1      53.670   5.951   9.792  0.00  0.00    +0.000 A 
ATOM     14  C   UNL     1      54.038   5.241   8.644  0.00  0.00    +0.000 A 
BRANCH   9  16
ATOM     15  N   UNL     1      54.253   4.346   5.251  0.00  0.00    +0.000 NA
ATOM     16  C   UNL     1      53.952   4.932   6.207  0.00  0.00    +0.000 C 
ENDBRANCH   9  16
ENDBRANCH   8  12
ENDBRANCH   7   8
ENDBRANCH   1   7
BRANCH   4  17
ATOM     17  C   UNL     1      46.448   8.104  12.965  0.00  0.00    +0.000 C 
BRANCH  17  18
ATOM     18  N   UNL     1      45.957   6.787  12.647  0.00  0.00    +0.000 N 
ATOM     19  C   UNL     1      44.952   6.592  11.734  0.00  0.00    +0.000 C 
ATOM     20  O   UNL     1      44.435   7.520  11.116  0.00  0.00    +0.000 OA
ATOM     21  H   UNL     1      46.144   6.059  13.329  0.00  0.00    +0.000 HD
BRANCH  19  22
ATOM     22  C   UNL     1      44.570   5.196  11.481  0.00  0.00    +0.000 A 
ATOM     23  C   UNL     1      43.840   4.489  12.427  0.00  0.00    +0.000 A 
ATOM     24  S   UNL     1      43.442   2.902  11.937  0.00  0.00    +0.000 S 
ATOM     25  C   UNL     1      44.279   3.089  10.469  0.00  0.00    +0.000 A 
ATOM     26  N   UNL     1      44.359   2.068   9.570  0.00  0.00    +0.000 NA
ATOM     27  C   UNL     1      45.050   2.341   8.514  0.00  0.00    +0.000 A 
ATOM     28  N   UNL     1      45.662   3.542   8.269  0.00  0.00    +0.000 N 
ATOM     29  C   UNL     1      45.581   4.612   9.127  0.00  0.00    +0.000 A 
ATOM     30  O   UNL     1      46.094   5.689   8.849  0.00  0.00    +0.000 OA
ATOM     31  C   UNL     1      44.832   4.350  10.339  0.00  0.00    +0.000 A 
ATOM     32  H   UNL     1      46.177   3.696   7.412  0.00  0.00    +0.000 HD
ENDBRANCH  19  22
ENDBRANCH  17  18
ENDBRANCH   4  17
TORSDOF 7
ENDMDL
MODEL 6
REMARK VINA RESULT:    -6.427      3.902      8.992
REMARK INTER + INTRA:         -10.223
REMARK INTER:                  -9.200
REMARK INTRA:                  -1.023
REMARK UNBOUND:                -1.166
REMARK  Name = 
REMARK  7 active torsions:
REMARK  status: ('A' for Active; 'I' for Inactive)
REMARK    1  A    between atoms: C_2  and  C_3
REMARK    2  A    between atoms: C_6  and  O_7
REMARK    3  A    between atoms: O_7  and  C_8
REMARK    4  A    between atoms: C_8  and  C_9
REMARK    5  A    between atoms: C_12  and  C_13
REMARK    6  A    between atoms: C_13  and  N_14
REMARK    7  A    between atoms: C_15  and  C_17
REMARK                            x       y       z     vdW  Elec       q    Type
REMARK                         _______ _______ _______ _____ _____    ______ ____
ROOT
ATOM      1  C   UNL     1      48.707   5.546  17.220  0.00  0.00    +0.000 A 
ATOM      2  C   UNL     1      47.901   4.849  16.311  0.00  0.00    +0.000 A 
ATOM      3  C   UNL     1      47.684   5.343  15.016  0.00  0.00    +0.000 A 
ATOM      4  C   UNL     1      48.289   6.537  14.597  0.00  0.00    +0.000 A 
ATOM      5  C   UNL     1      49.084   7.239  15.512  0.00  0.00    +0.000 A 
ATOM      6  C   UNL     1      49.302   6.744  16.803  0.00  0.00    +0.000 A 
ENDROOT
BRANCH   1   7
ATOM      7  C   UNL     1      48.944   5.015  18.617  0.00  0.00    +0.000 C 
BRANCH   7   8
ATOM      8  O   UNL     1      50.347   4.979  18.882  0.00  0.00    +0.000 OA
BRANCH   8  12
ATOM      9  C   UNL     1      52.689   1.719  17.714  0.00  0.00    +0.000 A 
ATOM     10  C   UNL     1      51.342   1.742  17.336  0.00  0.00    +0.000 A 
ATOM     11  C   UNL     1      50.518   2.816  17.708  0.00  0.00    +0.000 A 
ATOM     12  C   UNL     1      51.036   3.873  18.459  0.00  0.00    +0.000 A 
ATOM     13  C   UNL     1      52.382   3.842  18.837  0.00  0.00    +0.000 A 
ATOM     14  C   UNL     1      53.207   2.774  18.469  0.00  0.00    +0.000 A 
BRANCH   9  16
ATOM     15  N   UNL     1      54.212  -0.265  17.017  0.00  0.00    +0.000 NA
ATOM     16  C   UNL     1      53.529   0.622  17.326  0.00  0.00    +0.000 C 
ENDBRANCH   9  16
ENDBRANCH   8  12
ENDBRANCH   7   8
ENDBRANCH   1   7
BRANCH   4  17
ATOM     17  C   UNL     1      48.084   7.077  13.202  0.00  0.00    +0.000 C 
BRANCH  17  18
ATOM     18  N   UNL     1      47.375   6.140  12.369  0.00  0.00    +0.000 N 
ATOM     19  C   UNL     1      46.208   6.478  11.732  0.00  0.00    +0.000 C 
ATOM     20  O   UNL     1      45.717   7.602  11.810  0.00  0.00    +0.000 OA
ATOM     21  H   UNL     1      47.581   5.157  12.518  0.00  0.00    +0.000 HD
BRANCH  19  22
ATOM     22  C   UNL     1      45.607   5.437  10.888  0.00  0.00    +0.000 A 
ATOM     23  C   UNL     1      45.704   5.515   9.505  0.00  0.00    +0.000 A 
ATOM     24  S   UNL     1      44.995   4.190   8.693  0.00  0.00    +0.000 S 
ATOM     25  C   UNL     1      44.487   3.496  10.160  0.00  0.00    +0.000 A 
ATOM     26  N   UNL     1      43.778   2.332  10.180  0.00  0.00    +0.000 NA
ATOM     27  C   UNL     1      43.433   1.938  11.359  0.00  0.00    +0.000 A 
ATOM     28  N   UNL     1      43.738   2.594  12.523  0.00  0.00    +0.000 N 
ATOM     29  C   UNL     1      44.479   3.751  12.558  0.00  0.00    +0.000 A 
ATOM     30  O   UNL     1      44.778   4.280  13.621  0.00  0.00    +0.000 OA
ATOM     31  C   UNL     1      44.873   4.247  11.255  0.00  0.00    +0.000 A 
ATOM     32  H   UNL     1      43.449   2.223  13.419  0.00  0.00    +0.000 HD
ENDBRANCH  19  22
ENDBRANCH  17  18
ENDBRANCH   4  17
TORSDOF 7
ENDMDL
MODEL 7
REMARK VINA RESULT:    -5.777      6.020      8.436
REMARK INTER + INTRA:          -9.306
REMARK INTER:                  -8.348
REMARK INTRA:                  -0.958
REMARK UNBOUND:                -1.166
REMARK  Name = 
REMARK  7 active torsions:
REMARK  status: ('A' for Active; 'I' for Inactive)
REMARK    1  A    between atoms: C_2  and  C_3
REMARK    2  A    between atoms: C_6  and  O_7
REMARK    3  A    between atoms: O_7  and  C_8
REMARK    4  A    between atoms: C_8  and  C_9
REMARK    5  A    between atoms: C_12  and  C_13
REMARK    6  A    between atoms: C_13  and  N_14
REMARK    7  A    between atoms: C_15  and  C_17
REMARK                            x       y       z     vdW  Elec       q    Type
REMARK                         _______ _______ _______ _____ _____    ______ ____
ROOT
ATOM      1  C   UNL     1      48.780   3.441  16.785  0.00  0.00    +0.000 A 
ATOM      2  C   UNL     1      49.304   2.146  16.663  0.00  0.00    +0.000 A 
ATOM      3  C   UNL     1      50.589   1.844  17.137  0.00  0.00    +0.000 A 
ATOM      4  C   UNL     1      51.369   2.825  17.763  0.00  0.00    +0.000 A 
ATOM      5  C   UNL     1      50.849   4.122  17.871  0.00  0.00    +0.000 A 
ATOM      6  C   UNL     1      49.566   4.424  17.401  0.00  0.00    +0.000 A 
ENDROOT
BRANCH   1   7
ATOM      7  C   UNL     1      47.394   3.771  16.276  0.00  0.00    +0.000 C 
BRANCH   7   8
ATOM      8  O   UNL     1      47.365   3.641  14.855  0.00  0.00    +0.000 OA
BRANCH   8  12
ATOM      9  C   UNL     1      45.673   6.738  12.613  0.00  0.00    +0.000 A 
ATOM     10  C   UNL     1      46.957   6.920  13.138  0.00  0.00    +0.000 A 
ATOM     11  C   UNL     1      47.562   5.907  13.899  0.00  0.00    +0.000 A 
ATOM     12  C   UNL     1      46.889   4.708  14.138  0.00  0.00    +0.000 A 
ATOM     13  C   UNL     1      45.605   4.534  13.613  0.00  0.00    +0.000 A 
ATOM     14  C   UNL     1      44.996   5.540  12.854  0.00  0.00    +0.000 A 
BRANCH   9  16
ATOM     15  N   UNL     1      44.562   8.613  11.201  0.00  0.00    +0.000 NA
ATOM     16  C   UNL     1      45.060   7.774  11.830  0.00  0.00    +0.000 C 
ENDBRANCH   9  16
ENDBRANCH   8  12
ENDBRANCH   7   8
ENDBRANCH   1   7
BRANCH   4  17
ATOM     17  C   UNL     1      52.748   2.516  18.297  0.00  0.00    +0.000 C 
BRANCH  17  18
ATOM     18  N   UNL     1      53.111   1.141  18.062  0.00  0.00    +0.000 N 
ATOM     19  C   UNL     1      54.190   0.563  18.682  0.00  0.00    +0.000 C 
ATOM     20  O   UNL     1      54.888   1.170  19.489  0.00  0.00    +0.000 OA
ATOM     21  H   UNL     1      52.753   0.719  17.211  0.00  0.00    +0.000 HD
BRANCH  19  22
ATOM     22  C   UNL     1      54.426  -0.854  18.377  0.00  0.00    +0.000 A 
ATOM     23  C   UNL     1      54.182  -1.827  19.338  0.00  0.00    +0.000 A 
ATOM     24  S   UNL     1      54.461  -3.419  18.786  0.00  0.00    +0.000 S 
ATOM     25  C   UNL     1      54.971  -2.858  17.264  0.00  0.00    +0.000 A 
ATOM     26  N   UNL     1      55.389  -3.725  16.299  0.00  0.00    +0.000 NA
ATOM     27  C   UNL     1      55.775  -3.159  15.206  0.00  0.00    +0.000 A 
ATOM     28  N   UNL     1      55.775  -1.807  14.983  0.00  0.00    +0.000 N 
ATOM     29  C   UNL     1      55.330  -0.896  15.910  0.00  0.00    +0.000 A 
ATOM     30  O   UNL     1      55.293   0.301  15.655  0.00  0.00    +0.000 OA
ATOM     31  C   UNL     1      54.905  -1.480  17.165  0.00  0.00    +0.000 A 
ATOM     32  H   UNL     1      56.077  -1.428  14.095  0.00  0.00    +0.000 HD
ENDBRANCH  19  22
ENDBRANCH  17  18
ENDBRANCH   4  17
TORSDOF 7
ENDMDL
