MODEL 1
REMARK VINA RESULT:    -6.566      0.000      0.000
REMARK INTER + INTRA:         -10.189
REMARK INTER:                  -8.869
REMARK INTRA:                  -1.320
REMARK UNBOUND:                -1.320
REMARK  Name = 
REMARK  10 active torsions:
REMARK  status: ('A' for Active; 'I' for Inactive)
REMARK    1  A    between atoms: C_1  and  C_2
REMARK    2  A    between atoms: C_2  and  C_3
REMARK    3  A    between atoms: C_2  and  N_4
REMARK    4  A    between atoms: C_5  and  C_7
REMARK    5  A    between atoms: C_10  and  O_11
REMARK    6  A    between atoms: O_11  and  C_12
REMARK    7  A    between atoms: C_12  and  C_13
REMARK    8  A    between atoms: C_13  and  C_14
REMARK    9  A    between atoms: C_13  and  C_15
REMARK   10  A    between atoms: C_13  and  C_16
REMARK                            x       y       z     vdW  Elec       q    Type
REMARK                         _______ _______ _______ _____ _____    ______ ____
ROOT
ATOM      1  C   UNL     1      48.353   7.774  12.240  0.00  0.00    +0.000 A 
ATOM      2  C   UNL     1      47.123   8.423  12.066  0.00  0.00    +0.000 A 
ATOM      3  C   UNL     1      45.935   7.753  12.368  0.00  0.00    +0.000 A 
ATOM      4  C   UNL     1      45.965   6.441  12.838  0.00  0.00    +0.000 A 
ATOM      5  C   UNL     1      47.197   5.802  13.016  0.00  0.00    +0.000 A 
ATOM      6  C   UNL     1      48.388   6.471  12.734  0.00  0.00    +0.000 A 
ENDROOT
BRANCH   1   8
ATOM      7  N   UNL     1      50.715   7.647  11.604  0.00  0.00    +0.000 N 
ATOM      8  C   UNL     1      49.592   8.438  11.761  0.00  0.00    +0.000 C 
ATOM      9  O   UNL     1      49.556   9.628  11.511  0.00  0.00    +0.000 OA
ATOM     10  H   UNL     1      50.680   6.664  11.834  0.00  0.00    +0.000 HD
BRANCH   7  12
ATOM     11  C   UNL     1      52.911   8.514  12.298  0.00  0.00    +0.000 C 
ATOM     12  C   UNL     1      51.973   8.219  11.130  0.00  0.00    +0.000 C 
ATOM     13  C   UNL     1      52.675   7.296  10.133  0.00  0.00    +0.000 C 
ENDBRANCH   7  12
ENDBRANCH   1   8
BRANCH   4  14
ATOM     14  O   UNL     1      44.868   5.680  13.136  0.00  0.00    +0.000 OA
BRANCH  14  15
ATOM     15  C   UNL     1      44.950   4.285  12.806  0.00  0.00    +0.000 C 
BRANCH  15  16
ATOM     16  C   UNL     1      43.986   3.943  11.637  0.00  0.00    +0.000 C 
ATOM     17  C   UNL     1      43.273   2.601  11.922  0.00  0.00    +0.000 C 
ATOM     18  C   UNL     1      42.892   5.035  11.576  0.00  0.00    +0.000 C 
BRANCH  16  19
ATOM     19  C   UNL     1      44.776   3.804  10.319  0.00  0.00    +0.000 A 
ATOM     20  C   UNL     1      44.877   2.551   9.681  0.00  0.00    +0.000 A 
ATOM     21  C   UNL     1      45.494   2.418   8.435  0.00  0.00    +0.000 A 
ATOM     22  C   UNL     1      46.019   3.534   7.794  0.00  0.00    +0.000 A 
ATOM     23  C   UNL     1      45.958   4.776   8.414  0.00  0.00    +0.000 A 
ATOM     24  C   UNL     1      45.360   4.906   9.671  0.00  0.00    +0.000 A 
ENDBRANCH  16  19
ENDBRANCH  15  16
ENDBRANCH  14  15
ENDBRANCH   4  14
TORSDOF 6
ENDMDL
MODEL 2
REMARK VINA RESULT:    -6.242      3.710      4.740
REMARK INTER + INTRA:          -9.751
REMARK INTER:                  -8.934
REMARK INTRA:                  -0.818
REMARK UNBOUND:                -1.320
REMARK  Name = 
REMARK  10 active torsions:
REMARK  status: ('A' for Active; 'I' for Inactive)
REMARK    1  A    between atoms: C_1  and  C_2
REMARK    2  A    between atoms: C_2  and  C_3
REMARK    3  A    between atoms: C_2  and  N_4
REMARK    4  A    between atoms: C_5  and  C_7
REMARK    5  A    between atoms: C_10  and  O_11
REMARK    6  A    between atoms: O_11  and  C_12
REMARK    7  A    between atoms: C_12  and  C_13
REMARK    8  A    between atoms: C_13  and  C_14
REMARK    9  A    between atoms: C_13  and  C_15
REMARK   10  A    between atoms: C_13  and  C_16
REMARK                            x       y       z     vdW  Elec       q    Type
REMARK                         _______ _______ _______ _____ _____    ______ ____
ROOT
ATOM      1  C   UNL     1      48.256   5.454  15.833  0.00  0.00    +0.000 A 
ATOM      2  C   UNL     1      48.470   6.392  14.814  0.00  0.00    +0.000 A 
ATOM      3  C   UNL     1      47.722   6.322  13.636  0.00  0.00    +0.000 A 
ATOM      4  C   UNL     1      46.767   5.323  13.465  0.00  0.00    +0.000 A 
ATOM      5  C   UNL     1      46.553   4.393  14.490  0.00  0.00    +0.000 A 
ATOM      6  C   UNL     1      47.282   4.468  15.676  0.00  0.00    +0.000 A 
ENDROOT
BRANCH   1   8
ATOM      7  N   UNL     1      48.587   5.451  18.260  0.00  0.00    +0.000 N 
ATOM      8  C   UNL     1      49.167   5.440  17.005  0.00  0.00    +0.000 C 
ATOM      9  O   UNL     1      50.367   5.398  16.809  0.00  0.00    +0.000 OA
ATOM     10  H   UNL     1      47.583   5.490  18.354  0.00  0.00    +0.000 HD
BRANCH   7  12
ATOM     11  C   UNL     1      49.662   6.848  19.977  0.00  0.00    +0.000 C 
ATOM     12  C   UNL     1      49.412   5.431  19.466  0.00  0.00    +0.000 C 
ATOM     13  C   UNL     1      48.773   4.595  20.575  0.00  0.00    +0.000 C 
ENDBRANCH   7  12
ENDBRANCH   1   8
BRANCH   4  14
ATOM     14  O   UNL     1      46.001   5.140  12.347  0.00  0.00    +0.000 OA
BRANCH  14  15
ATOM     15  C   UNL     1      45.472   3.821  12.143  0.00  0.00    +0.000 C 
BRANCH  15  16
ATOM     16  C   UNL     1      44.407   3.828  11.013  0.00  0.00    +0.000 C 
ATOM     17  C   UNL     1      43.303   2.791  11.327  0.00  0.00    +0.000 C 
ATOM     18  C   UNL     1      43.730   5.220  10.994  0.00  0.00    +0.000 C 
BRANCH  16  19
ATOM     19  C   UNL     1      45.057   3.454   9.665  0.00  0.00    +0.000 A 
ATOM     20  C   UNL     1      45.564   4.460   8.818  0.00  0.00    +0.000 A 
ATOM     21  C   UNL     1      46.251   4.144   7.644  0.00  0.00    +0.000 A 
ATOM     22  C   UNL     1      46.453   2.814   7.291  0.00  0.00    +0.000 A 
ATOM     23  C   UNL     1      45.938   1.803   8.094  0.00  0.00    +0.000 A 
ATOM     24  C   UNL     1      45.232   2.120   9.258  0.00  0.00    +0.000 A 
ENDBRANCH  16  19
ENDBRANCH  15  16
ENDBRANCH  14  15
ENDBRANCH   4  14
TORSDOF 6
ENDMDL
MODEL 3
REMARK VINA RESULT:    -6.227      1.044      1.715
REMARK INTER + INTRA:          -9.730
REMARK INTER:                  -8.690
REMARK INTRA:                  -1.041
REMARK UNBOUND:                -1.320
REMARK  Name = 
REMARK  10 active torsions:
REMARK  status: ('A' for Active; 'I' for Inactive)
REMARK    1  A    between atoms: C_1  and  C_2
REMARK    2  A    between atoms: C_2  and  C_3
REMARK    3  A    between atoms: C_2  and  N_4
REMARK    4  A    between atoms: C_5  and  C_7
REMARK    5  A    between atoms: C_10  and  O_11
REMARK    6  A    between atoms: O_11  and  C_12
REMARK    7  A    between atoms: C_12  and  C_13
REMARK    8  A    between atoms: C_13  and  C_14
REMARK    9  A    between atoms: C_13  and  C_15
REMARK   10  A    between atoms: C_13  and  C_16
REMARK                            x       y       z     vdW  Elec       q    Type
REMARK                         _______ _______ _______ _____ _____    ______ ____
ROOT
ATOM      1  C   UNL     1      48.770   7.443  12.726  0.00  0.00    +0.000 A 
ATOM      2  C   UNL     1      48.478   6.664  13.854  0.00  0.00    +0.000 A 
ATOM      3  C   UNL     1      47.310   5.898  13.888  0.00  0.00    +0.000 A 
ATOM      4  C   UNL     1      46.430   5.907  12.807  0.00  0.00    +0.000 A 
ATOM      5  C   UNL     1      46.731   6.681  11.681  0.00  0.00    +0.000 A 
ATOM      6  C   UNL     1      47.905   7.434  11.632  0.00  0.00    +0.000 A 
ENDROOT
BRANCH   1   8
ATOM      7  N   UNL     1      51.188   7.816  12.843  0.00  0.00    +0.000 N 
ATOM      8  C   UNL     1      49.925   8.374  12.771  0.00  0.00    +0.000 C 
ATOM      9  O   UNL     1      49.711   9.571  12.721  0.00  0.00    +0.000 OA
ATOM     10  H   UNL     1      51.297   6.813  12.886  0.00  0.00    +0.000 HD
BRANCH   7  12
ATOM     11  C   UNL     1      52.961   8.713  14.294  0.00  0.00    +0.000 C 
ATOM     12  C   UNL     1      52.379   8.661  12.884  0.00  0.00    +0.000 C 
ATOM     13  C   UNL     1      53.451   8.176  11.908  0.00  0.00    +0.000 C 
ENDBRANCH   7  12
ENDBRANCH   1   8
BRANCH   4  14
ATOM     14  O   UNL     1      45.248   5.223  12.742  0.00  0.00    +0.000 OA
BRANCH  14  15
ATOM     15  C   UNL     1      45.303   3.903  12.178  0.00  0.00    +0.000 C 
BRANCH  15  16
ATOM     16  C   UNL     1      44.244   3.745  11.054  0.00  0.00    +0.000 C 
ATOM     17  C   UNL     1      43.272   2.595  11.409  0.00  0.00    +0.000 C 
ATOM     18  C   UNL     1      43.407   5.044  10.990  0.00  0.00    +0.000 C 
BRANCH  16  19
ATOM     19  C   UNL     1      44.933   3.403   9.716  0.00  0.00    +0.000 A 
ATOM     20  C   UNL     1      45.410   4.434   8.881  0.00  0.00    +0.000 A 
ATOM     21  C   UNL     1      46.130   4.151   7.718  0.00  0.00    +0.000 A 
ATOM     22  C   UNL     1      46.396   2.833   7.365  0.00  0.00    +0.000 A 
ATOM     23  C   UNL     1      45.912   1.798   8.157  0.00  0.00    +0.000 A 
ATOM     24  C   UNL     1      45.173   2.080   9.309  0.00  0.00    +0.000 A 
ENDBRANCH  16  19
ENDBRANCH  15  16
ENDBRANCH  14  15
ENDBRANCH   4  14
TORSDOF 6
ENDMDL
MODEL 4
REMARK VINA RESULT:    -6.005      3.749      4.855
REMARK INTER + INTRA:          -9.431
REMARK INTER:                  -8.668
REMARK INTRA:                  -0.763
REMARK UNBOUND:                -1.320
REMARK  Name = 
REMARK  10 active torsions:
REMARK  status: ('A' for Active; 'I' for Inactive)
REMARK    1  A    between atoms: C_1  and  C_2
REMARK    2  A    between atoms: C_2  and  C_3
REMARK    3  A    between atoms: C_2  and  N_4
REMARK    4  A    between atoms: C_5  and  C_7
REMARK    5  A    between atoms: C_10  and  O_11
REMARK    6  A    between atoms: O_11  and  C_12
REMARK    7  A    between atoms: C_12  and  C_13
REMARK    8  A    between atoms: C_13  and  C_14
REMARK    9  A    between atoms: C_13  and  C_15
REMARK   10  A    between atoms: C_13  and  C_16
REMARK                            x       y       z     vdW  Elec       q    Type
REMARK                         _______ _______ _______ _____ _____    ______ ____
ROOT
ATOM      1  C   UNL     1      48.256   5.656  16.046  0.00  0.00    +0.000 A 
ATOM      2  C   UNL     1      47.485   4.508  15.818  0.00  0.00    +0.000 A 
ATOM      3  C   UNL     1      46.863   4.322  14.581  0.00  0.00    +0.000 A 
ATOM      4  C   UNL     1      47.002   5.272  13.572  0.00  0.00    +0.000 A 
ATOM      5  C   UNL     1      47.779   6.413  13.803  0.00  0.00    +0.000 A 
ATOM      6  C   UNL     1      48.418   6.597  15.029  0.00  0.00    +0.000 A 
ENDROOT
BRANCH   1   8
ATOM      7  N   UNL     1      47.961   6.642  18.269  0.00  0.00    +0.000 N 
ATOM      8  C   UNL     1      48.772   5.920  17.412  0.00  0.00    +0.000 C 
ATOM      9  O   UNL     1      49.862   5.474  17.719  0.00  0.00    +0.000 OA
ATOM     10  H   UNL     1      47.068   6.987  17.950  0.00  0.00    +0.000 HD
BRANCH   7  12
ATOM     11  C   UNL     1      47.937   8.332  20.056  0.00  0.00    +0.000 C 
ATOM     12  C   UNL     1      48.390   6.937  19.633  0.00  0.00    +0.000 C 
ATOM     13  C   UNL     1      47.860   5.906  20.630  0.00  0.00    +0.000 C 
ENDBRANCH   7  12
ENDBRANCH   1   8
BRANCH   4  14
ATOM     14  O   UNL     1      46.417   5.209  12.337  0.00  0.00    +0.000 OA
BRANCH  14  15
ATOM     15  C   UNL     1      45.112   5.797  12.217  0.00  0.00    +0.000 C 
BRANCH  15  16
ATOM     16  C   UNL     1      44.103   4.770  11.636  0.00  0.00    +0.000 C 
ATOM     17  C   UNL     1      43.792   3.686  12.694  0.00  0.00    +0.000 C 
ATOM     18  C   UNL     1      42.776   5.509  11.339  0.00  0.00    +0.000 C 
BRANCH  16  19
ATOM     19  C   UNL     1      44.701   4.080  10.392  0.00  0.00    +0.000 A 
ATOM     20  C   UNL     1      44.572   2.686  10.224  0.00  0.00    +0.000 A 
ATOM     21  C   UNL     1      45.010   2.052   9.059  0.00  0.00    +0.000 A 
ATOM     22  C   UNL     1      45.581   2.795   8.033  0.00  0.00    +0.000 A 
ATOM     23  C   UNL     1      45.745   4.167   8.185  0.00  0.00    +0.000 A 
ATOM     24  C   UNL     1      45.327   4.799   9.360  0.00  0.00    +0.000 A 
ENDBRANCH  16  19
ENDBRANCH  15  16
ENDBRANCH  14  15
ENDBRANCH   4  14
TORSDOF 6
ENDMDL
MODEL 5
REMARK VINA RESULT:    -5.798      2.371      6.788
REMARK INTER + INTRA:          -9.151
REMARK INTER:                  -8.249
REMARK INTRA:                  -0.902
REMARK UNBOUND:                -1.320
REMARK  Name = 
REMARK  10 active torsions:
REMARK  status: ('A' for Active; 'I' for Inactive)
REMARK    1  A    between atoms: C_1  and  C_2
REMARK    2  A    between atoms: C_2  and  C_3
REMARK    3  A    between atoms: C_2  and  N_4
REMARK    4  A    between atoms: C_5  and  C_7
REMARK    5  A    between atoms: C_10  and  O_11
REMARK    6  A    between atoms: O_11  and  C_12
REMARK    7  A    between atoms: C_12  and  C_13
REMARK    8  A    between atoms: C_13  and  C_14
REMARK    9  A    between atoms: C_13  and  C_15
REMARK   10  A    between atoms: C_13  and  C_16
REMARK                            x       y       z     vdW  Elec       q    Type
REMARK                         _______ _______ _______ _____ _____    ______ ____
ROOT
ATOM      1  C   UNL     1      45.191   4.078  10.018  0.00  0.00    +0.000 A 
ATOM      2  C   UNL     1      44.801   3.665  11.299  0.00  0.00    +0.000 A 
ATOM      3  C   UNL     1      44.919   4.543  12.380  0.00  0.00    +0.000 A 
ATOM      4  C   UNL     1      45.427   5.826  12.192  0.00  0.00    +0.000 A 
ATOM      5  C   UNL     1      45.809   6.235  10.910  0.00  0.00    +0.000 A 
ATOM      6  C   UNL     1      45.676   5.371   9.823  0.00  0.00    +0.000 A 
ENDROOT
BRANCH   1   8
ATOM      7  N   UNL     1      46.265   3.155   8.019  0.00  0.00    +0.000 N 
ATOM      8  C   UNL     1      45.214   3.084   8.916  0.00  0.00    +0.000 C 
ATOM      9  O   UNL     1      44.331   2.250   8.865  0.00  0.00    +0.000 OA
ATOM     10  H   UNL     1      46.965   3.876   8.115  0.00  0.00    +0.000 HD
BRANCH   7  12
ATOM     11  C   UNL     1      46.893   2.900   5.654  0.00  0.00    +0.000 C 
ATOM     12  C   UNL     1      46.367   2.210   6.910  0.00  0.00    +0.000 C 
ATOM     13  C   UNL     1      47.270   1.026   7.257  0.00  0.00    +0.000 C 
ENDBRANCH   7  12
ENDBRANCH   1   8
BRANCH   4  14
ATOM     14  O   UNL     1      45.615   6.757  13.178  0.00  0.00    +0.000 OA
BRANCH  14  15
ATOM     15  C   UNL     1      46.377   7.921  12.820  0.00  0.00    +0.000 C 
BRANCH  15  16
ATOM     16  C   UNL     1      47.757   7.909  13.531  0.00  0.00    +0.000 C 
ATOM     17  C   UNL     1      47.756   8.928  14.694  0.00  0.00    +0.000 C 
ATOM     18  C   UNL     1      47.969   6.509  14.155  0.00  0.00    +0.000 C 
BRANCH  16  19
ATOM     19  C   UNL     1      48.872   8.303  12.539  0.00  0.00    +0.000 A 
ATOM     20  C   UNL     1      49.136   9.662  12.273  0.00  0.00    +0.000 A 
ATOM     21  C   UNL     1      50.206  10.048  11.463  0.00  0.00    +0.000 A 
ATOM     22  C   UNL     1      51.041   9.086  10.905  0.00  0.00    +0.000 A 
ATOM     23  C   UNL     1      50.785   7.739  11.129  0.00  0.00    +0.000 A 
ATOM     24  C   UNL     1      49.701   7.351  11.922  0.00  0.00    +0.000 A 
ENDBRANCH  16  19
ENDBRANCH  15  16
ENDBRANCH  14  15
ENDBRANCH   4  14
TORSDOF 6
ENDMDL
MODEL 6
REMARK VINA RESULT:    -5.739      3.167      4.092
REMARK INTER + INTRA:          -9.072
REMARK INTER:                  -8.373
REMARK INTRA:                  -0.699
REMARK UNBOUND:                -1.320
REMARK  Name = 
REMARK  10 active torsions:
REMARK  status: ('A' for Active; 'I' for Inactive)
REMARK    1  A    between atoms: C_1  and  C_2
REMARK    2  A    between atoms: C_2  and  C_3
REMARK    3  A    between atoms: C_2  and  N_4
REMARK    4  A    between atoms: C_5  and  C_7
REMARK    5  A    between atoms: C_10  and  O_11
REMARK    6  A    between atoms: O_11  and  C_12
REMARK    7  A    between atoms: C_12  and  C_13
REMARK    8  A    between atoms: C_13  and  C_14
REMARK    9  A    between atoms: C_13  and  C_15
REMARK   10  A    between atoms: C_13  and  C_16
REMARK                            x       y       z     vdW  Elec       q    Type
REMARK                         _______ _______ _______ _____ _____    ______ ____
ROOT
ATOM      1  C   UNL     1      48.223   8.447  14.476  0.00  0.00    +0.000 A 
ATOM      2  C   UNL     1      48.955   7.353  13.992  0.00  0.00    +0.000 A 
ATOM      3  C   UNL     1      48.472   6.619  12.905  0.00  0.00    +0.000 A 
ATOM      4  C   UNL     1      47.265   6.966  12.301  0.00  0.00    +0.000 A 
ATOM      5  C   UNL     1      46.543   8.063  12.785  0.00  0.00    +0.000 A 
ATOM      6  C   UNL     1      47.028   8.812  13.857  0.00  0.00    +0.000 A 
ENDROOT
BRANCH   1   8
ATOM      7  N   UNL     1      47.755   9.171  16.768  0.00  0.00    +0.000 N 
ATOM      8  C   UNL     1      48.664   9.112  15.727  0.00  0.00    +0.000 C 
ATOM      9  O   UNL     1      49.798   9.549  15.787  0.00  0.00    +0.000 OA
ATOM     10  H   UNL     1      46.827   8.792  16.653  0.00  0.00    +0.000 HD
BRANCH   7  12
ATOM     11  C   UNL     1      47.565  11.225  18.110  0.00  0.00    +0.000 C 
ATOM     12  C   UNL     1      48.112   9.801  18.037  0.00  0.00    +0.000 C 
ATOM     13  C   UNL     1      47.599   8.997  19.232  0.00  0.00    +0.000 C 
ENDBRANCH   7  12
ENDBRANCH   1   8
BRANCH   4  14
ATOM     14  O   UNL     1      46.683   6.304  11.255  0.00  0.00    +0.000 OA
BRANCH  14  15
ATOM     15  C   UNL     1      45.266   6.478  11.098  0.00  0.00    +0.000 C 
BRANCH  15  16
ATOM     16  C   UNL     1      44.541   5.105  11.123  0.00  0.00    +0.000 C 
ATOM     17  C   UNL     1      44.822   4.390  12.466  0.00  0.00    +0.000 C 
ATOM     18  C   UNL     1      43.017   5.359  11.054  0.00  0.00    +0.000 C 
BRANCH  16  19
ATOM     19  C   UNL     1      45.057   4.209   9.978  0.00  0.00    +0.000 A 
ATOM     20  C   UNL     1      44.906   2.809  10.050  0.00  0.00    +0.000 A 
ATOM     21  C   UNL     1      45.267   1.984   8.982  0.00  0.00    +0.000 A 
ATOM     22  C   UNL     1      45.781   2.538   7.815  0.00  0.00    +0.000 A 
ATOM     23  C   UNL     1      45.967   3.913   7.730  0.00  0.00    +0.000 A 
ATOM     24  C   UNL     1      45.626   4.737   8.807  0.00  0.00    +0.000 A 
ENDBRANCH  16  19
ENDBRANCH  15  16
ENDBRANCH  14  15
ENDBRANCH   4  14
TORSDOF 6
ENDMDL
MODEL 7
REMARK VINA RESULT:    -5.506      3.572      7.207
REMARK INTER + INTRA:          -8.757
REMARK INTER:                  -7.548
REMARK INTRA:                  -1.208
REMARK UNBOUND:                -1.320
REMARK  Name = 
REMARK  10 active torsions:
REMARK  status: ('A' for Active; 'I' for Inactive)
REMARK    1  A    between atoms: C_1  and  C_2
REMARK    2  A    between atoms: C_2  and  C_3
REMARK    3  A    between atoms: C_2  and  N_4
REMARK    4  A    between atoms: C_5  and  C_7
REMARK    5  A    between atoms: C_10  and  O_11
REMARK    6  A    between atoms: O_11  and  C_12
REMARK    7  A    between atoms: C_12  and  C_13
REMARK    8  A    between atoms: C_13  and  C_14
REMARK    9  A    between atoms: C_13  and  C_15
REMARK   10  A    between atoms: C_13  and  C_16
REMARK                            x       y       z     vdW  Elec       q    Type
REMARK                         _______ _______ _______ _____ _____    ______ ____
ROOT
ATOM      1  C   UNL     1      46.075   6.673  12.209  0.00  0.00    +0.000 A 
ATOM      2  C   UNL     1      45.859   7.959  12.721  0.00  0.00    +0.000 A 
ATOM      3  C   UNL     1      46.775   8.515  13.618  0.00  0.00    +0.000 A 
ATOM      4  C   UNL     1      47.902   7.795  14.010  0.00  0.00    +0.000 A 
ATOM      5  C   UNL     1      48.116   6.514  13.489  0.00  0.00    +0.000 A 
ATOM      6  C   UNL     1      47.216   5.961  12.579  0.00  0.00    +0.000 A 
ENDROOT
BRANCH   1   8
ATOM      7  N   UNL     1      45.372   4.930  10.638  0.00  0.00    +0.000 N 
ATOM      8  C   UNL     1      45.015   6.035  11.390  0.00  0.00    +0.000 C 
ATOM      9  O   UNL     1      43.889   6.492  11.436  0.00  0.00    +0.000 OA
ATOM     10  H   UNL     1      46.326   4.602  10.641  0.00  0.00    +0.000 HD
BRANCH   7  12
ATOM     11  C   UNL     1      44.926   4.007   8.401  0.00  0.00    +0.000 C 
ATOM     12  C   UNL     1      44.387   4.239   9.810  0.00  0.00    +0.000 C 
ATOM     13  C   UNL     1      43.972   2.900  10.423  0.00  0.00    +0.000 C 
ENDBRANCH   7  12
ENDBRANCH   1   8
BRANCH   4  14
ATOM     14  O   UNL     1      48.847   8.225  14.901  0.00  0.00    +0.000 OA
BRANCH  14  15
ATOM     15  C   UNL     1      49.824   7.256  15.312  0.00  0.00    +0.000 C 
BRANCH  15  16
ATOM     16  C   UNL     1      49.655   6.917  16.818  0.00  0.00    +0.000 C 
ATOM     17  C   UNL     1      51.003   7.108  17.552  0.00  0.00    +0.000 C 
ATOM     18  C   UNL     1      48.656   7.926  17.434  0.00  0.00    +0.000 C 
BRANCH  16  19
ATOM     19  C   UNL     1      49.212   5.449  16.988  0.00  0.00    +0.000 A 
ATOM     20  C   UNL     1      47.902   5.059  16.642  0.00  0.00    +0.000 A 
ATOM     21  C   UNL     1      47.508   3.719  16.686  0.00  0.00    +0.000 A 
ATOM     22  C   UNL     1      48.414   2.738  17.070  0.00  0.00    +0.000 A 
ATOM     23  C   UNL     1      49.703   3.100  17.444  0.00  0.00    +0.000 A 
ATOM     24  C   UNL     1      50.091   4.443  17.421  0.00  0.00    +0.000 A 
ENDBRANCH  16  19
ENDBRANCH  15  16
ENDBRANCH  14  15
ENDBRANCH   4  14
TORSDOF 6
ENDMDL
MODEL 8
REMARK VINA RESULT:    -5.352      2.795      7.140
REMARK INTER + INTRA:          -8.548
REMARK INTER:                  -7.939
REMARK INTRA:                  -0.610
REMARK UNBOUND:                -1.320
REMARK  Name = 
REMARK  10 active torsions:
REMARK  status: ('A' for Active; 'I' for Inactive)
REMARK    1  A    between atoms: C_1  and  C_2
REMARK    2  A    between atoms: C_2  and  C_3
REMARK    3  A    between atoms: C_2  and  N_4
REMARK    4  A    between atoms: C_5  and  C_7
REMARK    5  A    between atoms: C_10  and  O_11
REMARK    6  A    between atoms: O_11  and  C_12
REMARK    7  A    between atoms: C_12  and  C_13
REMARK    8  A    between atoms: C_13  and  C_14
REMARK    9  A    between atoms: C_13  and  C_15
REMARK   10  A    between atoms: C_13  and  C_16
REMARK                            x       y       z     vdW  Elec       q    Type
REMARK                         _______ _______ _______ _____ _____    ______ ____
ROOT
ATOM      1  C   UNL     1      45.284   4.092  10.052  0.00  0.00    +0.000 A 
ATOM      2  C   UNL     1      45.134   3.695  11.388  0.00  0.00    +0.000 A 
ATOM      3  C   UNL     1      45.328   4.622  12.415  0.00  0.00    +0.000 A 
ATOM      4  C   UNL     1      45.675   5.939  12.120  0.00  0.00    +0.000 A 
ATOM      5  C   UNL     1      45.816   6.331  10.784  0.00  0.00    +0.000 A 
ATOM      6  C   UNL     1      45.605   5.416   9.753  0.00  0.00    +0.000 A 
ENDROOT
BRANCH   1   8
ATOM      7  N   UNL     1      46.222   3.107   8.016  0.00  0.00    +0.000 N 
ATOM      8  C   UNL     1      45.236   3.063   8.984  0.00  0.00    +0.000 C 
ATOM      9  O   UNL     1      44.356   2.224   9.022  0.00  0.00    +0.000 OA
ATOM     10  H   UNL     1      46.924   3.832   8.039  0.00  0.00    +0.000 HD
BRANCH   7  12
ATOM     11  C   UNL     1      46.823   2.740   5.658  0.00  0.00    +0.000 C 
ATOM     12  C   UNL     1      46.253   2.126   6.934  0.00  0.00    +0.000 C 
ATOM     13  C   UNL     1      47.070   0.890   7.313  0.00  0.00    +0.000 C 
ENDBRANCH   7  12
ENDBRANCH   1   8
BRANCH   4  14
ATOM     14  O   UNL     1      45.918   6.921  13.042  0.00  0.00    +0.000 OA
BRANCH  14  15
ATOM     15  C   UNL     1      46.230   8.222  12.521  0.00  0.00    +0.000 C 
BRANCH  15  16
ATOM     16  C   UNL     1      47.718   8.575  12.790  0.00  0.00    +0.000 C 
ATOM     17  C   UNL     1      48.626   7.786  11.818  0.00  0.00    +0.000 C 
ATOM     18  C   UNL     1      47.923  10.078  12.484  0.00  0.00    +0.000 C 
BRANCH  16  19
ATOM     19  C   UNL     1      48.104   8.194  14.234  0.00  0.00    +0.000 A 
ATOM     20  C   UNL     1      48.669   6.932  14.509  0.00  0.00    +0.000 A 
ATOM     21  C   UNL     1      49.124   6.603  15.787  0.00  0.00    +0.000 A 
ATOM     22  C   UNL     1      49.032   7.528  16.820  0.00  0.00    +0.000 A 
ATOM     23  C   UNL     1      48.452   8.769  16.583  0.00  0.00    +0.000 A 
ATOM     24  C   UNL     1      47.976   9.091  15.308  0.00  0.00    +0.000 A 
ENDBRANCH  16  19
ENDBRANCH  15  16
ENDBRANCH  14  15
ENDBRANCH   4  14
TORSDOF 6
ENDMDL
MODEL 9
REMARK VINA RESULT:    -5.314      2.257      6.997
REMARK INTER + INTRA:          -8.498
REMARK INTER:                  -7.545
REMARK INTRA:                  -0.953
REMARK UNBOUND:                -1.320
REMARK  Name = 
REMARK  10 active torsions:
REMARK  status: ('A' for Active; 'I' for Inactive)
REMARK    1  A    between atoms: C_1  and  C_2
REMARK    2  A    between atoms: C_2  and  C_3
REMARK    3  A    between atoms: C_2  and  N_4
REMARK    4  A    between atoms: C_5  and  C_7
REMARK    5  A    between atoms: C_10  and  O_11
REMARK    6  A    between atoms: O_11  and  C_12
REMARK    7  A    between atoms: C_12  and  C_13
REMARK    8  A    between atoms: C_13  and  C_14
REMARK    9  A    between atoms: C_13  and  C_15
REMARK   10  A    between atoms: C_13  and  C_16
REMARK                            x       y       z     vdW  Elec       q    Type
REMARK                         _______ _______ _______ _____ _____    ______ ____
ROOT
ATOM      1  C   UNL     1      45.014   5.477  11.258  0.00  0.00    +0.000 A 
ATOM      2  C   UNL     1      45.950   5.196  12.263  0.00  0.00    +0.000 A 
ATOM      3  C   UNL     1      46.431   6.227  13.074  0.00  0.00    +0.000 A 
ATOM      4  C   UNL     1      45.989   7.535  12.887  0.00  0.00    +0.000 A 
ATOM      5  C   UNL     1      45.049   7.808  11.887  0.00  0.00    +0.000 A 
ATOM      6  C   UNL     1      44.550   6.780  11.085  0.00  0.00    +0.000 A 
ENDROOT
BRANCH   1   8
ATOM      7  N   UNL     1      45.485   4.185   9.231  0.00  0.00    +0.000 N 
ATOM      8  C   UNL     1      44.639   4.405  10.302  0.00  0.00    +0.000 C 
ATOM      9  O   UNL     1      43.629   3.762  10.516  0.00  0.00    +0.000 OA
ATOM     10  H   UNL     1      46.308   4.757   9.109  0.00  0.00    +0.000 HD
BRANCH   7  12
ATOM     11  C   UNL     1      45.993   3.365   6.967  0.00  0.00    +0.000 C 
ATOM     12  C   UNL     1      45.193   3.144   8.248  0.00  0.00    +0.000 C 
ATOM     13  C   UNL     1      45.488   1.748   8.798  0.00  0.00    +0.000 C 
ENDBRANCH   7  12
ENDBRANCH   1   8
BRANCH   4  14
ATOM     14  O   UNL     1      46.411   8.625  13.599  0.00  0.00    +0.000 OA
BRANCH  14  15
ATOM     15  C   UNL     1      47.815   8.692  13.891  0.00  0.00    +0.000 C 
BRANCH  15  16
ATOM     16  C   UNL     1      48.479   9.861  13.114  0.00  0.00    +0.000 C 
ATOM     17  C   UNL     1      47.420  10.581  12.247  0.00  0.00    +0.000 C 
ATOM     18  C   UNL     1      49.002  10.892  14.142  0.00  0.00    +0.000 C 
BRANCH  16  19
ATOM     19  C   UNL     1      49.585   9.322  12.183  0.00  0.00    +0.000 A 
ATOM     20  C   UNL     1      50.675  10.143  11.826  0.00  0.00    +0.000 A 
ATOM     21  C   UNL     1      51.741   9.648  11.073  0.00  0.00    +0.000 A 
ATOM     22  C   UNL     1      51.748   8.320  10.663  0.00  0.00    +0.000 A 
ATOM     23  C   UNL     1      50.673   7.497  10.977  0.00  0.00    +0.000 A 
ATOM     24  C   UNL     1      49.595   7.998  11.712  0.00  0.00    +0.000 A 
ENDBRANCH  16  19
ENDBRANCH  15  16
ENDBRANCH  14  15
ENDBRANCH   4  14
TORSDOF 6
ENDMDL
