MODEL 1
REMARK VINA RESULT:    -7.765      0.000      0.000
REMARK INTER + INTRA:         -11.161
REMARK INTER:                 -10.489
REMARK INTRA:                  -0.672
REMARK UNBOUND:                -0.672
REMARK  Name = 
REMARK  6 active torsions:
REMARK  status: ('A' for Active; 'I' for Inactive)
REMARK    1  A    between atoms: C_2  and  C_3
REMARK    2  A    between atoms: C_6  and  O_7
REMARK    3  A    between atoms: O_7  and  C_8
REMARK    4  A    between atoms: C_8  and  C_9
REMARK    5  A    between atoms: C_9  and  C_10
REMARK    6  A    between atoms: C_12  and  C_13
REMARK                            x       y       z     vdW  Elec       q    Type
REMARK                         _______ _______ _______ _____ _____    ______ ____
ROOT
ATOM      1  C   UNL     1      43.408   3.817  12.665  0.00  0.00    +0.000 C 
ENDROOT
BRANCH   1   2
ATOM      2  C   UNL     1      44.690   4.579  12.893  0.00  0.00    +0.000 A 
ATOM      3  C   UNL     1      44.773   5.938  12.595  0.00  0.00    +0.000 A 
ATOM      4  C   UNL     1      45.975   6.619  12.825  0.00  0.00    +0.000 A 
ATOM      5  C   UNL     1      47.054   5.910  13.359  0.00  0.00    +0.000 A 
ATOM      6  C   UNL     1      46.883   4.566  13.638  0.00  0.00    +0.000 A 
ATOM      7  N   UNL     1      45.732   3.894  13.421  0.00  0.00    +0.000 NA
BRANCH   4   8
ATOM      8  C   UNL     1      46.118   8.084  12.506  0.00  0.00    +0.000 C 
ATOM      9  F   UNL     1      46.105   8.884  13.607  0.00  0.00    +0.000 F 
ATOM     10  F   UNL     1      47.279   8.365  11.854  0.00  0.00    +0.000 F 
ATOM     11  F   UNL     1      45.118   8.540  11.702  0.00  0.00    +0.000 F 
ENDBRANCH   4   8
ENDBRANCH   1   2
BRANCH   1  12
ATOM     12  C   UNL     1      43.538   2.863  11.482  0.00  0.00    +0.000 C 
BRANCH  12  13
ATOM     13  O   UNL     1      43.497   3.601  10.249  0.00  0.00    +0.000 OA
BRANCH  13  17
ATOM     14  C   UNL     1      46.482   2.462   7.638  0.00  0.00    +0.000 A 
ATOM     15  C   UNL     1      46.146   3.811   7.753  0.00  0.00    +0.000 A 
ATOM     16  C   UNL     1      45.138   4.195   8.643  0.00  0.00    +0.000 A 
ATOM     17  C   UNL     1      44.501   3.209   9.383  0.00  0.00    +0.000 A 
ATOM     18  N   UNL     1      44.811   1.897   9.286  0.00  0.00    +0.000 NA
ATOM     19  C   UNL     1      45.792   1.552   8.423  0.00  0.00    +0.000 A 
BRANCH  14  21
ATOM     20  N   UNL     1      48.308   1.625   6.009  0.00  0.00    +0.000 NA
ATOM     21  C   UNL     1      47.495   2.007   6.739  0.00  0.00    +0.000 C 
ENDBRANCH  14  21
ENDBRANCH  13  17
ENDBRANCH  12  13
ENDBRANCH   1  12
TORSDOF 6
ENDMDL
MODEL 2
REMARK VINA RESULT:    -7.591      3.795      6.445
REMARK INTER + INTRA:         -10.926
REMARK INTER:                 -10.232
REMARK INTRA:                  -0.694
REMARK UNBOUND:                -0.672
REMARK  Name = 
REMARK  6 active torsions:
REMARK  status: ('A' for Active; 'I' for Inactive)
REMARK    1  A    between atoms: C_2  and  C_3
REMARK    2  A    between atoms: C_6  and  O_7
REMARK    3  A    between atoms: O_7  and  C_8
REMARK    4  A    between atoms: C_8  and  C_9
REMARK    5  A    between atoms: C_9  and  C_10
REMARK    6  A    between atoms: C_12  and  C_13
REMARK                            x       y       z     vdW  Elec       q    Type
REMARK                         _______ _______ _______ _____ _____    ______ ____
ROOT
ATOM      1  C   UNL     1      43.764   2.743  10.911  0.00  0.00    +0.000 C 
ENDROOT
BRANCH   1   2
ATOM      2  C   UNL     1      44.692   3.047   9.761  0.00  0.00    +0.000 A 
ATOM      3  C   UNL     1      45.349   2.020   9.086  0.00  0.00    +0.000 A 
ATOM      4  C   UNL     1      46.199   2.334   8.017  0.00  0.00    +0.000 A 
ATOM      5  C   UNL     1      46.352   3.676   7.657  0.00  0.00    +0.000 A 
ATOM      6  C   UNL     1      45.653   4.632   8.372  0.00  0.00    +0.000 A 
ATOM      7  N   UNL     1      44.832   4.346   9.405  0.00  0.00    +0.000 NA
BRANCH   4   8
ATOM      8  C   UNL     1      46.942   1.261   7.266  0.00  0.00    +0.000 C 
ATOM      9  F   UNL     1      48.296   1.383   7.340  0.00  0.00    +0.000 F 
ATOM     10  F   UNL     1      46.654   0.011   7.722  0.00  0.00    +0.000 F 
ATOM     11  F   UNL     1      46.640   1.253   5.938  0.00  0.00    +0.000 F 
ENDBRANCH   4   8
ENDBRANCH   1   2
BRANCH   1  12
ATOM     12  C   UNL     1      43.115   4.015  11.446  0.00  0.00    +0.000 C 
BRANCH  12  13
ATOM     13  O   UNL     1      43.391   4.155  12.850  0.00  0.00    +0.000 OA
BRANCH  13  17
ATOM     14  C   UNL     1      47.059   5.935  13.483  0.00  0.00    +0.000 A 
ATOM     15  C   UNL     1      46.041   6.658  12.862  0.00  0.00    +0.000 A 
ATOM     16  C   UNL     1      44.797   6.055  12.654  0.00  0.00    +0.000 A 
ATOM     17  C   UNL     1      44.621   4.744  13.074  0.00  0.00    +0.000 A 
ATOM     18  N   UNL     1      45.595   4.025  13.677  0.00  0.00    +0.000 NA
ATOM     19  C   UNL     1      46.787   4.634  13.871  0.00  0.00    +0.000 A 
BRANCH  14  21
ATOM     20  N   UNL     1      49.398   6.961  13.894  0.00  0.00    +0.000 NA
ATOM     21  C   UNL     1      48.354   6.494  13.713  0.00  0.00    +0.000 C 
ENDBRANCH  14  21
ENDBRANCH  13  17
ENDBRANCH  12  13
ENDBRANCH   1  12
TORSDOF 6
ENDMDL
MODEL 3
REMARK VINA RESULT:    -7.428      2.345      2.767
REMARK INTER + INTRA:         -10.706
REMARK INTER:                 -10.040
REMARK INTRA:                  -0.666
REMARK UNBOUND:                -0.672
REMARK  Name = 
REMARK  6 active torsions:
REMARK  status: ('A' for Active; 'I' for Inactive)
REMARK    1  A    between atoms: C_2  and  C_3
REMARK    2  A    between atoms: C_6  and  O_7
REMARK    3  A    between atoms: O_7  and  C_8
REMARK    4  A    between atoms: C_8  and  C_9
REMARK    5  A    between atoms: C_9  and  C_10
REMARK    6  A    between atoms: C_12  and  C_13
REMARK                            x       y       z     vdW  Elec       q    Type
REMARK                         _______ _______ _______ _____ _____    ______ ____
ROOT
ATOM      1  C   UNL     1      43.547   5.081  11.981  0.00  0.00    +0.000 C 
ENDROOT
BRANCH   1   2
ATOM      2  C   UNL     1      44.953   5.327  12.472  0.00  0.00    +0.000 A 
ATOM      3  C   UNL     1      45.421   4.708  13.628  0.00  0.00    +0.000 A 
ATOM      4  C   UNL     1      46.734   4.951  14.055  0.00  0.00    +0.000 A 
ATOM      5  C   UNL     1      47.536   5.804  13.293  0.00  0.00    +0.000 A 
ATOM      6  C   UNL     1      46.997   6.368  12.151  0.00  0.00    +0.000 A 
ATOM      7  N   UNL     1      45.734   6.145  11.728  0.00  0.00    +0.000 NA
BRANCH   4   8
ATOM      8  C   UNL     1      47.281   4.316  15.306  0.00  0.00    +0.000 C 
ATOM      9  F   UNL     1      46.381   4.264  16.327  0.00  0.00    +0.000 F 
ATOM     10  F   UNL     1      47.692   3.035  15.104  0.00  0.00    +0.000 F 
ATOM     11  F   UNL     1      48.362   4.983  15.796  0.00  0.00    +0.000 F 
ENDBRANCH   4   8
ENDBRANCH   1   2
BRANCH   1  12
ATOM     12  C   UNL     1      43.529   4.795  10.483  0.00  0.00    +0.000 C 
BRANCH  12  13
ATOM     13  O   UNL     1      43.605   3.377  10.253  0.00  0.00    +0.000 OA
BRANCH  13  17
ATOM     14  C   UNL     1      46.557   2.453   7.524  0.00  0.00    +0.000 A 
ATOM     15  C   UNL     1      46.141   3.777   7.665  0.00  0.00    +0.000 A 
ATOM     16  C   UNL     1      45.145   4.088   8.595  0.00  0.00    +0.000 A 
ATOM     17  C   UNL     1      44.599   3.057   9.347  0.00  0.00    +0.000 A 
ATOM     18  N   UNL     1      44.988   1.769   9.226  0.00  0.00    +0.000 NA
ATOM     19  C   UNL     1      45.957   1.495   8.323  0.00  0.00    +0.000 A 
BRANCH  14  21
ATOM     20  N   UNL     1      48.382   1.749   5.831  0.00  0.00    +0.000 NA
ATOM     21  C   UNL     1      47.564   2.072   6.584  0.00  0.00    +0.000 C 
ENDBRANCH  14  21
ENDBRANCH  13  17
ENDBRANCH  12  13
ENDBRANCH   1  12
TORSDOF 6
ENDMDL
MODEL 4
REMARK VINA RESULT:    -7.377      1.504      2.011
REMARK INTER + INTRA:         -10.636
REMARK INTER:                 -10.040
REMARK INTRA:                  -0.596
REMARK UNBOUND:                -0.672
REMARK  Name = 
REMARK  6 active torsions:
REMARK  status: ('A' for Active; 'I' for Inactive)
REMARK    1  A    between atoms: C_2  and  C_3
REMARK    2  A    between atoms: C_6  and  O_7
REMARK    3  A    between atoms: O_7  and  C_8
REMARK    4  A    between atoms: C_8  and  C_9
REMARK    5  A    between atoms: C_9  and  C_10
REMARK    6  A    between atoms: C_12  and  C_13
REMARK                            x       y       z     vdW  Elec       q    Type
REMARK                         _______ _______ _______ _____ _____    ______ ____
ROOT
ATOM      1  C   UNL     1      43.434   3.985  12.524  0.00  0.00    +0.000 C 
ENDROOT
BRANCH   1   2
ATOM      2  C   UNL     1      44.326   5.200  12.450  0.00  0.00    +0.000 A 
ATOM      3  C   UNL     1      45.562   5.216  13.094  0.00  0.00    +0.000 A 
ATOM      4  C   UNL     1      46.371   6.356  13.001  0.00  0.00    +0.000 A 
ATOM      5  C   UNL     1      45.911   7.442  12.252  0.00  0.00    +0.000 A 
ATOM      6  C   UNL     1      44.678   7.338  11.633  0.00  0.00    +0.000 A 
ATOM      7  N   UNL     1      43.886   6.248  11.715  0.00  0.00    +0.000 NA
BRANCH   4   8
ATOM      8  C   UNL     1      47.707   6.427  13.692  0.00  0.00    +0.000 C 
ATOM      9  F   UNL     1      47.983   7.651  14.219  0.00  0.00    +0.000 F 
ATOM     10  F   UNL     1      47.809   5.544  14.723  0.00  0.00    +0.000 F 
ATOM     11  F   UNL     1      48.740   6.142  12.852  0.00  0.00    +0.000 F 
ENDBRANCH   4   8
ENDBRANCH   1   2
BRANCH   1  12
ATOM     12  C   UNL     1      43.833   2.946  11.482  0.00  0.00    +0.000 C 
BRANCH  12  13
ATOM     13  O   UNL     1      43.583   3.453  10.160  0.00  0.00    +0.000 OA
BRANCH  13  17
ATOM     14  C   UNL     1      46.569   2.443   7.500  0.00  0.00    +0.000 A 
ATOM     15  C   UNL     1      46.136   3.767   7.578  0.00  0.00    +0.000 A 
ATOM     16  C   UNL     1      45.128   4.107   8.485  0.00  0.00    +0.000 A 
ATOM     17  C   UNL     1      44.588   3.105   9.278  0.00  0.00    +0.000 A 
ATOM     18  N   UNL     1      44.993   1.817   9.217  0.00  0.00    +0.000 NA
ATOM     19  C   UNL     1      45.973   1.514   8.336  0.00  0.00    +0.000 A 
BRANCH  14  21
ATOM     20  N   UNL     1      48.403   1.700   5.833  0.00  0.00    +0.000 NA
ATOM     21  C   UNL     1      47.588   2.032   6.586  0.00  0.00    +0.000 C 
ENDBRANCH  14  21
ENDBRANCH  13  17
ENDBRANCH  12  13
ENDBRANCH   1  12
TORSDOF 6
ENDMDL
MODEL 5
REMARK VINA RESULT:    -7.076      1.503      2.228
REMARK INTER + INTRA:         -10.230
REMARK INTER:                  -9.688
REMARK INTRA:                  -0.542
REMARK UNBOUND:                -0.672
REMARK  Name = 
REMARK  6 active torsions:
REMARK  status: ('A' for Active; 'I' for Inactive)
REMARK    1  A    between atoms: C_2  and  C_3
REMARK    2  A    between atoms: C_6  and  O_7
REMARK    3  A    between atoms: O_7  and  C_8
REMARK    4  A    between atoms: C_8  and  C_9
REMARK    5  A    between atoms: C_9  and  C_10
REMARK    6  A    between atoms: C_12  and  C_13
REMARK                            x       y       z     vdW  Elec       q    Type
REMARK                         _______ _______ _______ _____ _____    ______ ____
ROOT
ATOM      1  C   UNL     1      44.486   5.682  11.414  0.00  0.00    +0.000 C 
ENDROOT
BRANCH   1   2
ATOM      2  C   UNL     1      45.780   5.914  12.153  0.00  0.00    +0.000 A 
ATOM      3  C   UNL     1      46.707   6.845  11.689  0.00  0.00    +0.000 A 
ATOM      4  C   UNL     1      47.898   7.044  12.401  0.00  0.00    +0.000 A 
ATOM      5  C   UNL     1      48.110   6.303  13.566  0.00  0.00    +0.000 A 
ATOM      6  C   UNL     1      47.132   5.409  13.964  0.00  0.00    +0.000 A 
ATOM      7  N   UNL     1      45.981   5.205  13.288  0.00  0.00    +0.000 NA
BRANCH   4   8
ATOM      8  C   UNL     1      48.936   8.028  11.932  0.00  0.00    +0.000 C 
ATOM      9  F   UNL     1      49.753   7.534  10.961  0.00  0.00    +0.000 F 
ATOM     10  F   UNL     1      48.386   9.161  11.416  0.00  0.00    +0.000 F 
ATOM     11  F   UNL     1      49.758   8.435  12.938  0.00  0.00    +0.000 F 
ENDBRANCH   4   8
ENDBRANCH   1   2
BRANCH   1  12
ATOM     12  C   UNL     1      44.171   4.193  11.309  0.00  0.00    +0.000 C 
BRANCH  12  13
ATOM     13  O   UNL     1      43.643   3.893  10.006  0.00  0.00    +0.000 OA
BRANCH  13  17
ATOM     14  C   UNL     1      46.580   2.453   7.492  0.00  0.00    +0.000 A 
ATOM     15  C   UNL     1      45.990   1.597   8.422  0.00  0.00    +0.000 A 
ATOM     16  C   UNL     1      44.991   2.086   9.268  0.00  0.00    +0.000 A 
ATOM     17  C   UNL     1      44.623   3.419   9.153  0.00  0.00    +0.000 A 
ATOM     18  N   UNL     1      45.182   4.265   8.259  0.00  0.00    +0.000 NA
ATOM     19  C   UNL     1      46.142   3.766   7.448  0.00  0.00    +0.000 A 
BRANCH  14  21
ATOM     20  N   UNL     1      48.438   1.657   5.877  0.00  0.00    +0.000 NA
ATOM     21  C   UNL     1      47.612   2.014   6.606  0.00  0.00    +0.000 C 
ENDBRANCH  14  21
ENDBRANCH  13  17
ENDBRANCH  12  13
ENDBRANCH   1  12
TORSDOF 6
ENDMDL
MODEL 6
REMARK VINA RESULT:    -6.443      3.447      6.231
REMARK INTER + INTRA:          -9.374
REMARK INTER:                  -8.650
REMARK INTRA:                  -0.724
REMARK UNBOUND:                -0.672
REMARK  Name = 
REMARK  6 active torsions:
REMARK  status: ('A' for Active; 'I' for Inactive)
REMARK    1  A    between atoms: C_2  and  C_3
REMARK    2  A    between atoms: C_6  and  O_7
REMARK    3  A    between atoms: O_7  and  C_8
REMARK    4  A    between atoms: C_8  and  C_9
REMARK    5  A    between atoms: C_9  and  C_10
REMARK    6  A    between atoms: C_12  and  C_13
REMARK                            x       y       z     vdW  Elec       q    Type
REMARK                         _______ _______ _______ _____ _____    ______ ____
ROOT
ATOM      1  C   UNL     1      43.319   5.214  10.879  0.00  0.00    +0.000 C 
ENDROOT
BRANCH   1   2
ATOM      2  C   UNL     1      44.011   4.102  10.129  0.00  0.00    +0.000 A 
ATOM      3  C   UNL     1      44.968   4.388   9.157  0.00  0.00    +0.000 A 
ATOM      4  C   UNL     1      45.598   3.334   8.482  0.00  0.00    +0.000 A 
ATOM      5  C   UNL     1      45.249   2.023   8.818  0.00  0.00    +0.000 A 
ATOM      6  C   UNL     1      44.299   1.827   9.803  0.00  0.00    +0.000 A 
ATOM      7  N   UNL     1      43.681   2.832  10.461  0.00  0.00    +0.000 NA
BRANCH   4   8
ATOM      8  C   UNL     1      46.628   3.592   7.415  0.00  0.00    +0.000 C 
ATOM      9  F   UNL     1      46.123   3.549   6.151  0.00  0.00    +0.000 F 
ATOM     10  F   UNL     1      47.216   4.813   7.541  0.00  0.00    +0.000 F 
ATOM     11  F   UNL     1      47.642   2.684   7.442  0.00  0.00    +0.000 F 
ENDBRANCH   4   8
ENDBRANCH   1   2
BRANCH   1  12
ATOM     12  C   UNL     1      44.330   6.179  11.488  0.00  0.00    +0.000 C 
BRANCH  12  13
ATOM     13  O   UNL     1      45.102   5.509  12.499  0.00  0.00    +0.000 OA
BRANCH  13  17
ATOM     14  C   UNL     1      48.763   7.326  13.055  0.00  0.00    +0.000 A 
ATOM     15  C   UNL     1      48.090   7.490  11.844  0.00  0.00    +0.000 A 
ATOM     16  C   UNL     1      46.847   6.878  11.661  0.00  0.00    +0.000 A 
ATOM     17  C   UNL     1      46.325   6.120  12.699  0.00  0.00    +0.000 A 
ATOM     18  N   UNL     1      46.961   5.948  13.880  0.00  0.00    +0.000 NA
ATOM     19  C   UNL     1      48.160   6.555  14.034  0.00  0.00    +0.000 A 
BRANCH  14  21
ATOM     20  N   UNL     1      51.076   8.405  13.480  0.00  0.00    +0.000 NA
ATOM     21  C   UNL     1      50.041   7.919  13.298  0.00  0.00    +0.000 C 
ENDBRANCH  14  21
ENDBRANCH  13  17
ENDBRANCH  12  13
ENDBRANCH   1  12
TORSDOF 6
ENDMDL
MODEL 7
REMARK VINA RESULT:    -6.208      3.700      7.049
REMARK INTER + INTRA:          -9.058
REMARK INTER:                  -8.638
REMARK INTRA:                  -0.420
REMARK UNBOUND:                -0.672
REMARK  Name = 
REMARK  6 active torsions:
REMARK  status: ('A' for Active; 'I' for Inactive)
REMARK    1  A    between atoms: C_2  and  C_3
REMARK    2  A    between atoms: C_6  and  O_7
REMARK    3  A    between atoms: O_7  and  C_8
REMARK    4  A    between atoms: C_8  and  C_9
REMARK    5  A    between atoms: C_9  and  C_10
REMARK    6  A    between atoms: C_12  and  C_13
REMARK                            x       y       z     vdW  Elec       q    Type
REMARK                         _______ _______ _______ _____ _____    ______ ____
ROOT
ATOM      1  C   UNL     1      44.722   5.355  10.447  0.00  0.00    +0.000 C 
ENDROOT
BRANCH   1   2
ATOM      2  C   UNL     1      44.973   4.099   9.650  0.00  0.00    +0.000 A 
ATOM      3  C   UNL     1      45.826   4.115   8.547  0.00  0.00    +0.000 A 
ATOM      4  C   UNL     1      46.044   2.931   7.831  0.00  0.00    +0.000 A 
ATOM      5  C   UNL     1      45.404   1.764   8.258  0.00  0.00    +0.000 A 
ATOM      6  C   UNL     1      44.586   1.833   9.371  0.00  0.00    +0.000 A 
ATOM      7  N   UNL     1      44.362   2.967  10.070  0.00  0.00    +0.000 NA
BRANCH   4   8
ATOM      8  C   UNL     1      46.944   2.900   6.624  0.00  0.00    +0.000 C 
ATOM      9  F   UNL     1      46.765   3.958   5.786  0.00  0.00    +0.000 F 
ATOM     10  F   UNL     1      48.264   2.907   6.957  0.00  0.00    +0.000 F 
ATOM     11  F   UNL     1      46.756   1.786   5.864  0.00  0.00    +0.000 F 
ENDBRANCH   4   8
ENDBRANCH   1   2
BRANCH   1  12
ATOM     12  C   UNL     1      45.793   5.555  11.513  0.00  0.00    +0.000 C 
BRANCH  12  13
ATOM     13  O   UNL     1      45.532   4.699  12.639  0.00  0.00    +0.000 OA
BRANCH  13  17
ATOM     14  C   UNL     1      48.178   5.430  15.718  0.00  0.00    +0.000 A 
ATOM     15  C   UNL     1      48.143   6.292  14.622  0.00  0.00    +0.000 A 
ATOM     16  C   UNL     1      47.241   6.045  13.583  0.00  0.00    +0.000 A 
ATOM     17  C   UNL     1      46.409   4.939  13.680  0.00  0.00    +0.000 A 
ATOM     18  N   UNL     1      46.428   4.091  14.733  0.00  0.00    +0.000 NA
ATOM     19  C   UNL     1      47.305   4.355  15.727  0.00  0.00    +0.000 A 
BRANCH  14  21
ATOM     20  N   UNL     1      49.825   5.766  17.685  0.00  0.00    +0.000 NA
ATOM     21  C   UNL     1      49.084   5.624  16.806  0.00  0.00    +0.000 C 
ENDBRANCH  14  21
ENDBRANCH  13  17
ENDBRANCH  12  13
ENDBRANCH   1  12
TORSDOF 6
ENDMDL
MODEL 8
REMARK VINA RESULT:    -6.063      3.900      7.043
REMARK INTER + INTRA:          -8.861
REMARK INTER:                  -8.250
REMARK INTRA:                  -0.611
REMARK UNBOUND:                -0.672
REMARK  Name = 
REMARK  6 active torsions:
REMARK  status: ('A' for Active; 'I' for Inactive)
REMARK    1  A    between atoms: C_2  and  C_3
REMARK    2  A    between atoms: C_6  and  O_7
REMARK    3  A    between atoms: O_7  and  C_8
REMARK    4  A    between atoms: C_8  and  C_9
REMARK    5  A    between atoms: C_9  and  C_10
REMARK    6  A    between atoms: C_12  and  C_13
REMARK                            x       y       z     vdW  Elec       q    Type
REMARK                         _______ _______ _______ _____ _____    ______ ____
ROOT
ATOM      1  C   UNL     1      45.342   6.814  11.535  0.00  0.00    +0.000 C 
ENDROOT
BRANCH   1   2
ATOM      2  C   UNL     1      44.771   5.425  11.392  0.00  0.00    +0.000 A 
ATOM      3  C   UNL     1      45.076   4.641  10.281  0.00  0.00    +0.000 A 
ATOM      4  C   UNL     1      44.536   3.352  10.180  0.00  0.00    +0.000 A 
ATOM      5  C   UNL     1      43.714   2.890  11.211  0.00  0.00    +0.000 A 
ATOM      6  C   UNL     1      43.473   3.728  12.285  0.00  0.00    +0.000 A 
ATOM      7  N   UNL     1      43.983   4.973  12.395  0.00  0.00    +0.000 NA
BRANCH   4   8
ATOM      8  C   UNL     1      44.824   2.473   8.992  0.00  0.00    +0.000 C 
ATOM      9  F   UNL     1      44.436   3.018   7.805  0.00  0.00    +0.000 F 
ATOM     10  F   UNL     1      46.150   2.194   8.858  0.00  0.00    +0.000 F 
ATOM     11  F   UNL     1      44.195   1.269   9.072  0.00  0.00    +0.000 F 
ENDBRANCH   4   8
ENDBRANCH   1   2
BRANCH   1  12
ATOM     12  C   UNL     1      46.103   6.964  12.847  0.00  0.00    +0.000 C 
BRANCH  12  13
ATOM     13  O   UNL     1      47.246   6.092  12.855  0.00  0.00    +0.000 OA
BRANCH  13  17
ATOM     14  C   UNL     1      48.198   4.820  16.662  0.00  0.00    +0.000 A 
ATOM     15  C   UNL     1      48.659   6.058  16.215  0.00  0.00    +0.000 A 
ATOM     16  C   UNL     1      48.330   6.489  14.927  0.00  0.00    +0.000 A 
ATOM     17  C   UNL     1      47.553   5.659  14.131  0.00  0.00    +0.000 A 
ATOM     18  N   UNL     1      47.097   4.456  14.545  0.00  0.00    +0.000 NA
ATOM     19  C   UNL     1      47.424   4.064  15.797  0.00  0.00    +0.000 A 
BRANCH  14  21
ATOM     20  N   UNL     1      48.753   3.928  19.026  0.00  0.00    +0.000 NA
ATOM     21  C   UNL     1      48.510   4.320  17.964  0.00  0.00    +0.000 C 
ENDBRANCH  14  21
ENDBRANCH  13  17
ENDBRANCH  12  13
ENDBRANCH   1  12
TORSDOF 6
ENDMDL
MODEL 9
REMARK VINA RESULT:    -5.811      4.430      7.925
REMARK INTER + INTRA:          -8.521
REMARK INTER:                  -8.130
REMARK INTRA:                  -0.391
REMARK UNBOUND:                -0.672
REMARK  Name = 
REMARK  6 active torsions:
REMARK  status: ('A' for Active; 'I' for Inactive)
REMARK    1  A    between atoms: C_2  and  C_3
REMARK    2  A    between atoms: C_6  and  O_7
REMARK    3  A    between atoms: O_7  and  C_8
REMARK    4  A    between atoms: C_8  and  C_9
REMARK    5  A    between atoms: C_9  and  C_10
REMARK    6  A    between atoms: C_12  and  C_13
REMARK                            x       y       z     vdW  Elec       q    Type
REMARK                         _______ _______ _______ _____ _____    ______ ____
ROOT
ATOM      1  C   UNL     1      46.179   5.152  13.872  0.00  0.00    +0.000 C 
ENDROOT
BRANCH   1   2
ATOM      2  C   UNL     1      45.355   4.475  12.805  0.00  0.00    +0.000 A 
ATOM      3  C   UNL     1      45.666   4.635  11.456  0.00  0.00    +0.000 A 
ATOM      4  C   UNL     1      44.887   3.987  10.489  0.00  0.00    +0.000 A 
ATOM      5  C   UNL     1      43.823   3.188  10.915  0.00  0.00    +0.000 A 
ATOM      6  C   UNL     1      43.591   3.071  12.273  0.00  0.00    +0.000 A 
ATOM      7  N   UNL     1      44.331   3.691  13.217  0.00  0.00    +0.000 NA
BRANCH   4   8
ATOM      8  C   UNL     1      45.174   4.142   9.019  0.00  0.00    +0.000 C 
ATOM      9  F   UNL     1      45.971   5.208   8.730  0.00  0.00    +0.000 F 
ATOM     10  F   UNL     1      45.800   3.055   8.493  0.00  0.00    +0.000 F 
ATOM     11  F   UNL     1      44.041   4.314   8.284  0.00  0.00    +0.000 F 
ENDBRANCH   4   8
ENDBRANCH   1   2
BRANCH   1  12
ATOM     12  C   UNL     1      47.129   4.166  14.543  0.00  0.00    +0.000 C 
BRANCH  12  13
ATOM     13  O   UNL     1      46.566   3.711  15.786  0.00  0.00    +0.000 OA
BRANCH  13  17
ATOM     14  C   UNL     1      49.059   4.492  18.978  0.00  0.00    +0.000 A 
ATOM     15  C   UNL     1      49.480   3.621  17.974  0.00  0.00    +0.000 A 
ATOM     16  C   UNL     1      48.636   3.362  16.890  0.00  0.00    +0.000 A 
ATOM     17  C   UNL     1      47.397   3.986  16.856  0.00  0.00    +0.000 A 
ATOM     18  N   UNL     1      46.970   4.833  17.819  0.00  0.00    +0.000 NA
ATOM     19  C   UNL     1      47.807   5.070  18.854  0.00  0.00    +0.000 A 
BRANCH  14  21
ATOM     20  N   UNL     1      50.519   5.025  21.046  0.00  0.00    +0.000 NA
ATOM     21  C   UNL     1      49.873   4.788  20.115  0.00  0.00    +0.000 C 
ENDBRANCH  14  21
ENDBRANCH  13  17
ENDBRANCH  12  13
ENDBRANCH   1  12
TORSDOF 6
ENDMDL
