MODEL 1
REMARK VINA RESULT:    -7.510      0.000      0.000
REMARK INTER + INTRA:         -11.528
REMARK INTER:                 -10.583
REMARK INTRA:                  -0.945
REMARK UNBOUND:                -0.945
REMARK  Name = 
REMARK  11 active torsions:
REMARK  status: ('A' for Active; 'I' for Inactive)
REMARK    1  A    between atoms: C_1  and  O_2
REMARK    2  A    between atoms: O_2  and  C_3
REMARK    3  A    between atoms: C_5  and  C_6
REMARK    4  A    between atoms: C_6  and  N_7
REMARK    5  A    between atoms: C_8  and  C_10
REMARK    6  A    between atoms: C_17  and  C_18
REMARK    7  A    between atoms: C_18  and  N_19
REMARK    8  A    between atoms: C_20  and  C_22
REMARK    9  A    between atoms: C_24  and  C_25
REMARK   10  A    between atoms: C_24  and  C_26
REMARK   11  A    between atoms: N_27  and  C_28
REMARK                            x       y       z     vdW  Elec       q    Type
REMARK                         _______ _______ _______ _____ _____    ______ ____
ROOT
ATOM      1  C   UNL     1      45.589   8.142  12.332  0.00  0.00    +0.000 A 
ATOM      2  C   UNL     1      44.797   7.399  11.457  0.00  0.00    +0.000 A 
ATOM      3  C   UNL     1      45.014   6.033  11.334  0.00  0.00    +0.000 A 
ATOM      4  N   UNL     1      45.997   5.393  12.012  0.00  0.00    +0.000 NA
ATOM      5  C   UNL     1      46.771   6.141  12.836  0.00  0.00    +0.000 A 
ATOM      6  C   UNL     1      46.626   7.513  13.026  0.00  0.00    +0.000 A 
ENDROOT
BRANCH   1   8
ATOM      7  C   UNL     1      44.547  10.155  11.643  0.00  0.00    +0.000 C 
ATOM      8  O   UNL     1      45.438   9.491  12.537  0.00  0.00    +0.000 OA
ENDBRANCH   1   8
BRANCH   3   9
ATOM      9  C   UNL     1      44.144   5.216  10.408  0.00  0.00    +0.000 C 
BRANCH   9  10
ATOM     10  N   UNL     1      44.915   4.460   9.449  0.00  0.00    +0.000 N 
ATOM     11  C   UNL     1      44.820   3.095   9.291  0.00  0.00    +0.000 C 
ATOM     12  O   UNL     1      44.045   2.417   9.964  0.00  0.00    +0.000 OA
ATOM     13  H   UNL     1      45.463   4.980   8.777  0.00  0.00    +0.000 HD
BRANCH  11  14
ATOM     14  C   UNL     1      45.706   2.522   8.280  0.00  0.00    +0.000 A 
ATOM     15  C   UNL     1      46.159   1.216   8.204  0.00  0.00    +0.000 A 
ATOM     16  C   UNL     1      47.039   1.004   7.100  0.00  0.00    +0.000 A 
ATOM     17  C   UNL     1      47.233   2.152   6.368  0.00  0.00    +0.000 A 
ATOM     18  S   UNL     1      46.354   3.471   7.002  0.00  0.00    +0.000 S 
ENDBRANCH  11  14
ENDBRANCH   9  10
ENDBRANCH   3   9
BRANCH   6  19
ATOM     19  C   UNL     1      47.562   8.246  13.945  0.00  0.00    +0.000 C 
BRANCH  19  20
ATOM     20  N   UNL     1      47.869   7.509  15.150  0.00  0.00    +0.000 N 
ATOM     21  C   UNL     1      49.097   6.917  15.347  0.00  0.00    +0.000 C 
ATOM     22  O   UNL     1      50.013   6.937  14.541  0.00  0.00    +0.000 OA
ATOM     23  H   UNL     1      47.136   7.324  15.827  0.00  0.00    +0.000 HD
BRANCH  21  24
ATOM     24  C   UNL     1      49.253   6.180  16.655  0.00  0.00    +0.000 C 
ATOM     25  N   UNL     1      49.659   4.933  16.696  0.00  0.00    +0.000 NA
ATOM     26  C   UNL     1      49.748   4.595  18.154  0.00  0.00    +0.000 C 
ATOM     27  C   UNL     1      51.138   4.020  18.435  0.00  0.00    +0.000 C 
ATOM     28  C   UNL     1      48.665   3.551  18.446  0.00  0.00    +0.000 C 
ATOM     29  N   UNL     1      49.522   5.831  18.864  0.00  0.00    +0.000 N 
ATOM     30  C   UNL     1      49.584   6.000  20.297  0.00  0.00    +0.000 C 
ATOM     31  C   UNL     1      49.030   6.776  18.017  0.00  0.00    +0.000 C 
ATOM     32  O   UNL     1      48.514   7.842  18.259  0.00  0.00    +0.000 OA
ENDBRANCH  21  24
ENDBRANCH  19  20
ENDBRANCH   6  19
TORSDOF 7
ENDMDL
MODEL 2
REMARK VINA RESULT:    -7.170      1.780      2.648
REMARK INTER + INTRA:         -11.049
REMARK INTER:                 -10.208
REMARK INTRA:                  -0.842
REMARK UNBOUND:                -0.945
REMARK  Name = 
REMARK  11 active torsions:
REMARK  status: ('A' for Active; 'I' for Inactive)
REMARK    1  A    between atoms: C_1  and  O_2
REMARK    2  A    between atoms: O_2  and  C_3
REMARK    3  A    between atoms: C_5  and  C_6
REMARK    4  A    between atoms: C_6  and  N_7
REMARK    5  A    between atoms: C_8  and  C_10
REMARK    6  A    between atoms: C_17  and  C_18
REMARK    7  A    between atoms: C_18  and  N_19
REMARK    8  A    between atoms: C_20  and  C_22
REMARK    9  A    between atoms: C_24  and  C_25
REMARK   10  A    between atoms: C_24  and  C_26
REMARK   11  A    between atoms: N_27  and  C_28
REMARK                            x       y       z     vdW  Elec       q    Type
REMARK                         _______ _______ _______ _____ _____    ______ ____
ROOT
ATOM      1  C   UNL     1      46.786   5.577  13.164  0.00  0.00    +0.000 A 
ATOM      2  C   UNL     1      45.882   4.792  12.448  0.00  0.00    +0.000 A 
ATOM      3  C   UNL     1      45.051   5.394  11.511  0.00  0.00    +0.000 A 
ATOM      4  N   UNL     1      45.062   6.730  11.288  0.00  0.00    +0.000 NA
ATOM      5  C   UNL     1      45.930   7.475  12.015  0.00  0.00    +0.000 A 
ATOM      6  C   UNL     1      46.801   6.960  12.972  0.00  0.00    +0.000 A 
ENDROOT
BRANCH   1   8
ATOM      7  C   UNL     1      47.124   4.087  14.974  0.00  0.00    +0.000 C 
ATOM      8  O   UNL     1      47.660   5.072  14.095  0.00  0.00    +0.000 OA
ENDBRANCH   1   8
BRANCH   3   9
ATOM      9  C   UNL     1      44.087   4.548  10.712  0.00  0.00    +0.000 C 
BRANCH   9  10
ATOM     10  N   UNL     1      44.760   3.576   9.884  0.00  0.00    +0.000 N 
ATOM     11  C   UNL     1      45.479   3.895   8.754  0.00  0.00    +0.000 C 
ATOM     12  O   UNL     1      45.606   5.058   8.374  0.00  0.00    +0.000 OA
ATOM     13  H   UNL     1      44.805   2.625  10.224  0.00  0.00    +0.000 HD
BRANCH  11  14
ATOM     14  C   UNL     1      46.063   2.758   8.046  0.00  0.00    +0.000 A 
ATOM     15  C   UNL     1      46.040   1.428   8.429  0.00  0.00    +0.000 A 
ATOM     16  C   UNL     1      46.736   0.581   7.515  0.00  0.00    +0.000 A 
ATOM     17  C   UNL     1      47.271   1.287   6.463  0.00  0.00    +0.000 A 
ATOM     18  S   UNL     1      46.926   2.956   6.573  0.00  0.00    +0.000 S 
ENDBRANCH  11  14
ENDBRANCH   9  10
ENDBRANCH   3   9
BRANCH   6  19
ATOM     19  C   UNL     1      47.702   7.886  13.740  0.00  0.00    +0.000 C 
BRANCH  19  20
ATOM     20  N   UNL     1      47.871   7.499  15.123  0.00  0.00    +0.000 N 
ATOM     21  C   UNL     1      49.113   7.442  15.714  0.00  0.00    +0.000 C 
ATOM     22  O   UNL     1      50.165   7.682  15.143  0.00  0.00    +0.000 OA
ATOM     23  H   UNL     1      47.075   7.156  15.650  0.00  0.00    +0.000 HD
BRANCH  21  24
ATOM     24  C   UNL     1      49.117   7.014  17.161  0.00  0.00    +0.000 C 
ATOM     25  N   UNL     1      48.799   7.846  18.125  0.00  0.00    +0.000 NA
ATOM     26  C   UNL     1      48.856   7.034  19.383  0.00  0.00    +0.000 C 
ATOM     27  C   UNL     1      47.536   7.210  20.136  0.00  0.00    +0.000 C 
ATOM     28  C   UNL     1      50.026   7.568  20.217  0.00  0.00    +0.000 C 
ATOM     29  N   UNL     1      49.062   5.667  18.967  0.00  0.00    +0.000 N 
ATOM     30  C   UNL     1      49.111   4.520  19.843  0.00  0.00    +0.000 C 
ATOM     31  C   UNL     1      49.417   5.625  17.653  0.00  0.00    +0.000 C 
ATOM     32  O   UNL     1      49.881   4.717  17.004  0.00  0.00    +0.000 OA
ENDBRANCH  21  24
ENDBRANCH  19  20
ENDBRANCH   6  19
TORSDOF 7
ENDMDL
MODEL 3
REMARK VINA RESULT:    -7.072      1.498      2.106
REMARK INTER + INTRA:         -10.912
REMARK INTER:                 -10.460
REMARK INTRA:                  -0.452
REMARK UNBOUND:                -0.945
REMARK  Name = 
REMARK  11 active torsions:
REMARK  status: ('A' for Active; 'I' for Inactive)
REMARK    1  A    between atoms: C_1  and  O_2
REMARK    2  A    between atoms: O_2  and  C_3
REMARK    3  A    between atoms: C_5  and  C_6
REMARK    4  A    between atoms: C_6  and  N_7
REMARK    5  A    between atoms: C_8  and  C_10
REMARK    6  A    between atoms: C_17  and  C_18
REMARK    7  A    between atoms: C_18  and  N_19
REMARK    8  A    between atoms: C_20  and  C_22
REMARK    9  A    between atoms: C_24  and  C_25
REMARK   10  A    between atoms: C_24  and  C_26
REMARK   11  A    between atoms: N_27  and  C_28
REMARK                            x       y       z     vdW  Elec       q    Type
REMARK                         _______ _______ _______ _____ _____    ______ ____
ROOT
ATOM      1  C   UNL     1      46.587   5.533  12.909  0.00  0.00    +0.000 A 
ATOM      2  C   UNL     1      45.708   4.822  12.092  0.00  0.00    +0.000 A 
ATOM      3  C   UNL     1      44.851   5.516  11.247  0.00  0.00    +0.000 A 
ATOM      4  N   UNL     1      44.814   6.870  11.209  0.00  0.00    +0.000 NA
ATOM      5  C   UNL     1      45.659   7.538  12.032  0.00  0.00    +0.000 A 
ATOM      6  C   UNL     1      46.553   6.929  12.909  0.00  0.00    +0.000 A 
ENDROOT
BRANCH   1   8
ATOM      7  C   UNL     1      47.174   3.599  14.145  0.00  0.00    +0.000 C 
ATOM      8  O   UNL     1      47.483   4.937  13.761  0.00  0.00    +0.000 OA
ENDBRANCH   1   8
BRANCH   3   9
ATOM      9  C   UNL     1      43.913   4.755  10.339  0.00  0.00    +0.000 C 
BRANCH   9  10
ATOM     10  N   UNL     1      44.594   3.743   9.566  0.00  0.00    +0.000 N 
ATOM     11  C   UNL     1      45.549   4.017   8.612  0.00  0.00    +0.000 C 
ATOM     12  O   UNL     1      45.901   5.169   8.362  0.00  0.00    +0.000 OA
ATOM     13  H   UNL     1      44.445   2.778   9.826  0.00  0.00    +0.000 HD
BRANCH  11  14
ATOM     14  C   UNL     1      46.098   2.850   7.927  0.00  0.00    +0.000 A 
ATOM     15  C   UNL     1      46.115   1.541   8.379  0.00  0.00    +0.000 A 
ATOM     16  C   UNL     1      46.759   0.653   7.465  0.00  0.00    +0.000 A 
ATOM     17  C   UNL     1      47.215   1.308   6.344  0.00  0.00    +0.000 A 
ATOM     18  S   UNL     1      46.860   2.978   6.391  0.00  0.00    +0.000 S 
ENDBRANCH  11  14
ENDBRANCH   9  10
ENDBRANCH   3   9
BRANCH   6  19
ATOM     19  C   UNL     1      47.424   7.772  13.796  0.00  0.00    +0.000 C 
BRANCH  19  20
ATOM     20  N   UNL     1      47.886   7.071  14.973  0.00  0.00    +0.000 N 
ATOM     21  C   UNL     1      49.194   7.145  15.396  0.00  0.00    +0.000 C 
ATOM     22  O   UNL     1      50.073   7.772  14.826  0.00  0.00    +0.000 OA
ATOM     23  H   UNL     1      47.267   6.420  15.446  0.00  0.00    +0.000 HD
BRANCH  21  24
ATOM     24  C   UNL     1      49.514   6.349  16.638  0.00  0.00    +0.000 C 
ATOM     25  N   UNL     1      49.533   5.037  16.628  0.00  0.00    +0.000 NA
ATOM     26  C   UNL     1      49.953   4.638  18.009  0.00  0.00    +0.000 C 
ATOM     27  C   UNL     1      51.133   3.670  17.898  0.00  0.00    +0.000 C 
ATOM     28  C   UNL     1      48.753   3.948  18.669  0.00  0.00    +0.000 C 
ATOM     29  N   UNL     1      50.319   5.859  18.684  0.00  0.00    +0.000 N 
ATOM     30  C   UNL     1      50.855   5.953  20.023  0.00  0.00    +0.000 C 
ATOM     31  C   UNL     1      49.893   6.937  17.969  0.00  0.00    +0.000 C 
ATOM     32  O   UNL     1      49.806   8.098  18.293  0.00  0.00    +0.000 OA
ENDBRANCH  21  24
ENDBRANCH  19  20
ENDBRANCH   6  19
TORSDOF 7
ENDMDL
MODEL 4
REMARK VINA RESULT:    -7.057      2.959      9.402
REMARK INTER + INTRA:         -10.890
REMARK INTER:                  -9.746
REMARK INTRA:                  -1.145
REMARK UNBOUND:                -0.945
REMARK  Name = 
REMARK  11 active torsions:
REMARK  status: ('A' for Active; 'I' for Inactive)
REMARK    1  A    between atoms: C_1  and  O_2
REMARK    2  A    between atoms: O_2  and  C_3
REMARK    3  A    between atoms: C_5  and  C_6
REMARK    4  A    between atoms: C_6  and  N_7
REMARK    5  A    between atoms: C_8  and  C_10
REMARK    6  A    between atoms: C_17  and  C_18
REMARK    7  A    between atoms: C_18  and  N_19
REMARK    8  A    between atoms: C_20  and  C_22
REMARK    9  A    between atoms: C_24  and  C_25
REMARK   10  A    between atoms: C_24  and  C_26
REMARK   11  A    between atoms: N_27  and  C_28
REMARK                            x       y       z     vdW  Elec       q    Type
REMARK                         _______ _______ _______ _____ _____    ______ ____
ROOT
ATOM      1  C   UNL     1      46.098   7.118  12.438  0.00  0.00    +0.000 A 
ATOM      2  C   UNL     1      47.111   7.539  13.300  0.00  0.00    +0.000 A 
ATOM      3  C   UNL     1      47.802   6.597  14.052  0.00  0.00    +0.000 A 
ATOM      4  N   UNL     1      47.505   5.276  14.004  0.00  0.00    +0.000 NA
ATOM      5  C   UNL     1      46.499   4.894  13.179  0.00  0.00    +0.000 A 
ATOM      6  C   UNL     1      45.755   5.765  12.387  0.00  0.00    +0.000 A 
ENDROOT
BRANCH   1   8
ATOM      7  C   UNL     1      45.212   9.295  12.143  0.00  0.00    +0.000 C 
ATOM      8  O   UNL     1      45.374   7.970  11.642  0.00  0.00    +0.000 OA
ENDBRANCH   1   8
BRANCH   3   9
ATOM      9  C   UNL     1      48.918   7.041  14.969  0.00  0.00    +0.000 C 
BRANCH   9  10
ATOM     10  N   UNL     1      48.569   6.915  16.364  0.00  0.00    +0.000 N 
ATOM     11  C   UNL     1      49.040   5.917  17.187  0.00  0.00    +0.000 C 
ATOM     12  O   UNL     1      49.817   5.054  16.780  0.00  0.00    +0.000 OA
ATOM     13  H   UNL     1      48.046   7.672  16.785  0.00  0.00    +0.000 HD
BRANCH  11  14
ATOM     14  C   UNL     1      48.545   5.957  18.561  0.00  0.00    +0.000 A 
ATOM     15  C   UNL     1      47.780   6.950  19.150  0.00  0.00    +0.000 A 
ATOM     16  C   UNL     1      47.497   6.683  20.523  0.00  0.00    +0.000 A 
ATOM     17  C   UNL     1      48.053   5.497  20.943  0.00  0.00    +0.000 A 
ATOM     18  S   UNL     1      48.901   4.709  19.688  0.00  0.00    +0.000 S 
ENDBRANCH  11  14
ENDBRANCH   9  10
ENDBRANCH   3   9
BRANCH   6  19
ATOM     19  C   UNL     1      44.642   5.232  11.530  0.00  0.00    +0.000 C 
BRANCH  19  20
ATOM     20  N   UNL     1      45.096   4.299  10.524  0.00  0.00    +0.000 N 
ATOM     21  C   UNL     1      45.636   4.724   9.330  0.00  0.00    +0.000 C 
ATOM     22  O   UNL     1      45.762   5.893   9.003  0.00  0.00    +0.000 OA
ATOM     23  H   UNL     1      44.920   3.307  10.642  0.00  0.00    +0.000 HD
BRANCH  21  24
ATOM     24  C   UNL     1      46.055   3.624   8.386  0.00  0.00    +0.000 C 
ATOM     25  N   UNL     1      46.810   3.866   7.340  0.00  0.00    +0.000 NA
ATOM     26  C   UNL     1      47.054   2.528   6.711  0.00  0.00    +0.000 C 
ATOM     27  C   UNL     1      48.561   2.347   6.521  0.00  0.00    +0.000 C 
ATOM     28  C   UNL     1      46.337   2.525   5.356  0.00  0.00    +0.000 C 
ATOM     29  N   UNL     1      46.504   1.552   7.621  0.00  0.00    +0.000 N 
ATOM     30  C   UNL     1      46.572   0.119   7.459  0.00  0.00    +0.000 C 
ATOM     31  C   UNL     1      45.722   2.167   8.552  0.00  0.00    +0.000 C 
ATOM     32  O   UNL     1      44.926   1.696   9.330  0.00  0.00    +0.000 OA
ENDBRANCH  21  24
ENDBRANCH  19  20
ENDBRANCH   6  19
TORSDOF 7
ENDMDL
MODEL 5
REMARK VINA RESULT:    -7.047      3.107      9.528
REMARK INTER + INTRA:         -10.876
REMARK INTER:                  -9.841
REMARK INTRA:                  -1.035
REMARK UNBOUND:                -0.945
REMARK  Name = 
REMARK  11 active torsions:
REMARK  status: ('A' for Active; 'I' for Inactive)
REMARK    1  A    between atoms: C_1  and  O_2
REMARK    2  A    between atoms: O_2  and  C_3
REMARK    3  A    between atoms: C_5  and  C_6
REMARK    4  A    between atoms: C_6  and  N_7
REMARK    5  A    between atoms: C_8  and  C_10
REMARK    6  A    between atoms: C_17  and  C_18
REMARK    7  A    between atoms: C_18  and  N_19
REMARK    8  A    between atoms: C_20  and  C_22
REMARK    9  A    between atoms: C_24  and  C_25
REMARK   10  A    between atoms: C_24  and  C_26
REMARK   11  A    between atoms: N_27  and  C_28
REMARK                            x       y       z     vdW  Elec       q    Type
REMARK                         _______ _______ _______ _____ _____    ______ ____
ROOT
ATOM      1  C   UNL     1      46.498   5.869  13.167  0.00  0.00    +0.000 A 
ATOM      2  C   UNL     1      47.457   6.157  14.139  0.00  0.00    +0.000 A 
ATOM      3  C   UNL     1      48.164   7.350  14.065  0.00  0.00    +0.000 A 
ATOM      4  N   UNL     1      47.980   8.238  13.057  0.00  0.00    +0.000 NA
ATOM      5  C   UNL     1      47.063   7.923  12.111  0.00  0.00    +0.000 A 
ATOM      6  C   UNL     1      46.305   6.754  12.105  0.00  0.00    +0.000 A 
ENDROOT
BRANCH   1   8
ATOM      7  C   UNL     1      46.461   3.501  13.213  0.00  0.00    +0.000 C 
ATOM      8  O   UNL     1      45.736   4.727  13.166  0.00  0.00    +0.000 OA
ENDBRANCH   1   8
BRANCH   3   9
ATOM      9  C   UNL     1      49.186   7.683  15.126  0.00  0.00    +0.000 C 
BRANCH   9  10
ATOM     10  N   UNL     1      48.761   7.284  16.447  0.00  0.00    +0.000 N 
ATOM     11  C   UNL     1      49.251   6.183  17.113  0.00  0.00    +0.000 C 
ATOM     12  O   UNL     1      50.114   5.459  16.619  0.00  0.00    +0.000 OA
ATOM     13  H   UNL     1      48.158   7.918  16.955  0.00  0.00    +0.000 HD
BRANCH  11  14
ATOM     14  C   UNL     1      48.670   5.942  18.432  0.00  0.00    +0.000 A 
ATOM     15  C   UNL     1      47.368   6.192  18.834  0.00  0.00    +0.000 A 
ATOM     16  C   UNL     1      47.145   5.865  20.205  0.00  0.00    +0.000 A 
ATOM     17  C   UNL     1      48.280   5.377  20.810  0.00  0.00    +0.000 A 
ATOM     18  S   UNL     1      49.600   5.306  19.729  0.00  0.00    +0.000 S 
ENDBRANCH  11  14
ENDBRANCH   9  10
ENDBRANCH   3   9
BRANCH   6  19
ATOM     19  C   UNL     1      45.335   6.497  10.986  0.00  0.00    +0.000 C 
BRANCH  19  20
ATOM     20  N   UNL     1      45.808   5.514  10.037  0.00  0.00    +0.000 N 
ATOM     21  C   UNL     1      44.972   4.559   9.502  0.00  0.00    +0.000 C 
ATOM     22  O   UNL     1      43.791   4.436   9.784  0.00  0.00    +0.000 OA
ATOM     23  H   UNL     1      46.800   5.448   9.833  0.00  0.00    +0.000 HD
BRANCH  21  24
ATOM     24  C   UNL     1      45.624   3.605   8.532  0.00  0.00    +0.000 C 
ATOM     25  N   UNL     1      46.401   4.033   7.564  0.00  0.00    +0.000 NA
ATOM     26  C   UNL     1      46.896   2.795   6.879  0.00  0.00    +0.000 C 
ATOM     27  C   UNL     1      48.422   2.862   6.798  0.00  0.00    +0.000 C 
ATOM     28  C   UNL     1      46.283   2.777   5.474  0.00  0.00    +0.000 C 
ATOM     29  N   UNL     1      46.446   1.686   7.685  0.00  0.00    +0.000 N 
ATOM     30  C   UNL     1      46.751   0.294   7.446  0.00  0.00    +0.000 C 
ATOM     31  C   UNL     1      45.515   2.107   8.586  0.00  0.00    +0.000 C 
ATOM     32  O   UNL     1      44.752   1.466   9.270  0.00  0.00    +0.000 OA
ENDBRANCH  21  24
ENDBRANCH  19  20
ENDBRANCH   6  19
TORSDOF 7
ENDMDL
MODEL 6
REMARK VINA RESULT:    -6.673      4.613      9.433
REMARK INTER + INTRA:         -10.349
REMARK INTER:                  -9.360
REMARK INTRA:                  -0.990
REMARK UNBOUND:                -0.945
REMARK  Name = 
REMARK  11 active torsions:
REMARK  status: ('A' for Active; 'I' for Inactive)
REMARK    1  A    between atoms: C_1  and  O_2
REMARK    2  A    between atoms: O_2  and  C_3
REMARK    3  A    between atoms: C_5  and  C_6
REMARK    4  A    between atoms: C_6  and  N_7
REMARK    5  A    between atoms: C_8  and  C_10
REMARK    6  A    between atoms: C_17  and  C_18
REMARK    7  A    between atoms: C_18  and  N_19
REMARK    8  A    between atoms: C_20  and  C_22
REMARK    9  A    between atoms: C_24  and  C_25
REMARK   10  A    between atoms: C_24  and  C_26
REMARK   11  A    between atoms: N_27  and  C_28
REMARK                            x       y       z     vdW  Elec       q    Type
REMARK                         _______ _______ _______ _____ _____    ______ ____
ROOT
ATOM      1  C   UNL     1      49.815   4.794  17.851  0.00  0.00    +0.000 A 
ATOM      2  C   UNL     1      51.186   4.594  18.023  0.00  0.00    +0.000 A 
ATOM      3  C   UNL     1      51.723   3.333  17.797  0.00  0.00    +0.000 A 
ATOM      4  N   UNL     1      50.957   2.272  17.446  0.00  0.00    +0.000 NA
ATOM      5  C   UNL     1      49.625   2.485  17.312  0.00  0.00    +0.000 A 
ATOM      6  C   UNL     1      48.998   3.713  17.514  0.00  0.00    +0.000 A 
ENDROOT
BRANCH   1   8
ATOM      7  C   UNL     1      49.982   7.014  18.660  0.00  0.00    +0.000 C 
ATOM      8  O   UNL     1      49.195   6.005  18.031  0.00  0.00    +0.000 OA
ENDBRANCH   1   8
BRANCH   3   9
ATOM      9  C   UNL     1      53.210   3.113  17.956  0.00  0.00    +0.000 C 
BRANCH   9  10
ATOM     10  N   UNL     1      53.627   1.810  17.496  0.00  0.00    +0.000 N 
ATOM     11  C   UNL     1      54.199   0.855  18.306  0.00  0.00    +0.000 C 
ATOM     12  O   UNL     1      54.385   1.051  19.506  0.00  0.00    +0.000 OA
ATOM     13  H   UNL     1      53.373   1.544  16.554  0.00  0.00    +0.000 HD
BRANCH  11  14
ATOM     14  C   UNL     1      54.570  -0.390  17.637  0.00  0.00    +0.000 A 
ATOM     15  C   UNL     1      54.835  -0.572  16.290  0.00  0.00    +0.000 A 
ATOM     16  C   UNL     1      55.139  -1.929  15.969  0.00  0.00    +0.000 A 
ATOM     17  C   UNL     1      55.098  -2.743  17.078  0.00  0.00    +0.000 A 
ATOM     18  S   UNL     1      54.705  -1.873  18.494  0.00  0.00    +0.000 S 
ENDBRANCH  11  14
ENDBRANCH   9  10
ENDBRANCH   3   9
BRANCH   6  19
ATOM     19  C   UNL     1      47.507   3.826  17.364  0.00  0.00    +0.000 C 
BRANCH  19  20
ATOM     20  N   UNL     1      47.108   4.576  16.194  0.00  0.00    +0.000 N 
ATOM     21  C   UNL     1      47.158   4.032  14.930  0.00  0.00    +0.000 C 
ATOM     22  O   UNL     1      47.553   2.905  14.675  0.00  0.00    +0.000 OA
ATOM     23  H   UNL     1      46.886   5.562  16.281  0.00  0.00    +0.000 HD
BRANCH  21  24
ATOM     24  C   UNL     1      46.714   4.949  13.817  0.00  0.00    +0.000 C 
ATOM     25  N   UNL     1      47.205   6.160  13.686  0.00  0.00    +0.000 NA
ATOM     26  C   UNL     1      46.571   6.710  12.445  0.00  0.00    +0.000 C 
ATOM     27  C   UNL     1      47.677   7.230  11.524  0.00  0.00    +0.000 C 
ATOM     28  C   UNL     1      45.647   7.855  12.875  0.00  0.00    +0.000 C 
ATOM     29  N   UNL     1      45.843   5.615  11.849  0.00  0.00    +0.000 N 
ATOM     30  C   UNL     1      45.130   5.664  10.593  0.00  0.00    +0.000 C 
ATOM     31  C   UNL     1      45.738   4.585  12.733  0.00  0.00    +0.000 C 
ATOM     32  O   UNL     1      45.031   3.605  12.701  0.00  0.00    +0.000 OA
ENDBRANCH  21  24
ENDBRANCH  19  20
ENDBRANCH   6  19
TORSDOF 7
ENDMDL
MODEL 7
REMARK VINA RESULT:    -6.515      3.540      6.206
REMARK INTER + INTRA:         -10.127
REMARK INTER:                  -9.371
REMARK INTRA:                  -0.755
REMARK UNBOUND:                -0.945
REMARK  Name = 
REMARK  11 active torsions:
REMARK  status: ('A' for Active; 'I' for Inactive)
REMARK    1  A    between atoms: C_1  and  O_2
REMARK    2  A    between atoms: O_2  and  C_3
REMARK    3  A    between atoms: C_5  and  C_6
REMARK    4  A    between atoms: C_6  and  N_7
REMARK    5  A    between atoms: C_8  and  C_10
REMARK    6  A    between atoms: C_17  and  C_18
REMARK    7  A    between atoms: C_18  and  N_19
REMARK    8  A    between atoms: C_20  and  C_22
REMARK    9  A    between atoms: C_24  and  C_25
REMARK   10  A    between atoms: C_24  and  C_26
REMARK   11  A    between atoms: N_27  and  C_28
REMARK                            x       y       z     vdW  Elec       q    Type
REMARK                         _______ _______ _______ _____ _____    ______ ____
ROOT
ATOM      1  C   UNL     1      44.556   5.846  11.853  0.00  0.00    +0.000 A 
ATOM      2  C   UNL     1      44.045   7.005  11.269  0.00  0.00    +0.000 A 
ATOM      3  C   UNL     1      44.617   8.233  11.578  0.00  0.00    +0.000 A 
ATOM      4  N   UNL     1      45.641   8.352  12.458  0.00  0.00    +0.000 NA
ATOM      5  C   UNL     1      46.103   7.214  13.032  0.00  0.00    +0.000 A 
ATOM      6  C   UNL     1      45.594   5.942  12.782  0.00  0.00    +0.000 A 
ENDROOT
BRANCH   1   8
ATOM      7  C   UNL     1      44.244   4.120  10.261  0.00  0.00    +0.000 C 
ATOM      8  O   UNL     1      44.071   4.588  11.596  0.00  0.00    +0.000 OA
ENDBRANCH   1   8
BRANCH   3   9
ATOM      9  C   UNL     1      44.087   9.491  10.931  0.00  0.00    +0.000 C 
BRANCH   9  10
ATOM     10  N   UNL     1      42.780   9.856  11.423  0.00  0.00    +0.000 N 
ATOM     11  C   UNL     1      41.828  10.506  10.670  0.00  0.00    +0.000 C 
ATOM     12  O   UNL     1      42.032  10.814   9.496  0.00  0.00    +0.000 OA
ATOM     13  H   UNL     1      42.509   9.507  12.333  0.00  0.00    +0.000 HD
BRANCH  11  14
ATOM     14  C   UNL     1      40.579  10.804  11.366  0.00  0.00    +0.000 A 
ATOM     15  C   UNL     1      40.431  11.402  12.606  0.00  0.00    +0.000 A 
ATOM     16  C   UNL     1      39.064  11.516  13.000  0.00  0.00    +0.000 A 
ATOM     17  C   UNL     1      38.209  11.002  12.052  0.00  0.00    +0.000 A 
ATOM     18  S   UNL     1      39.050  10.397  10.695  0.00  0.00    +0.000 S 
ENDBRANCH  11  14
ENDBRANCH   9  10
ENDBRANCH   3   9
BRANCH   6  19
ATOM     19  C   UNL     1      46.167   4.752  13.499  0.00  0.00    +0.000 C 
BRANCH  19  20
ATOM     20  N   UNL     1      46.922   5.108  14.680  0.00  0.00    +0.000 N 
ATOM     21  C   UNL     1      47.571   4.162  15.440  0.00  0.00    +0.000 C 
ATOM     22  O   UNL     1      47.557   2.962  15.215  0.00  0.00    +0.000 OA
ATOM     23  H   UNL     1      46.892   6.061  15.027  0.00  0.00    +0.000 HD
BRANCH  21  24
ATOM     24  C   UNL     1      48.309   4.698  16.643  0.00  0.00    +0.000 C 
ATOM     25  N   UNL     1      49.606   4.896  16.622  0.00  0.00    +0.000 NA
ATOM     26  C   UNL     1      49.936   5.489  17.957  0.00  0.00    +0.000 C 
ATOM     27  C   UNL     1      50.733   6.776  17.734  0.00  0.00    +0.000 C 
ATOM     28  C   UNL     1      50.781   4.459  18.716  0.00  0.00    +0.000 C 
ATOM     29  N   UNL     1      48.672   5.743  18.606  0.00  0.00    +0.000 N 
ATOM     30  C   UNL     1      48.499   6.378  19.891  0.00  0.00    +0.000 C 
ATOM     31  C   UNL     1      47.668   5.110  17.939  0.00  0.00    +0.000 C 
ATOM     32  O   UNL     1      46.528   4.893  18.278  0.00  0.00    +0.000 OA
ENDBRANCH  21  24
ENDBRANCH  19  20
ENDBRANCH   6  19
TORSDOF 7
ENDMDL
MODEL 8
REMARK VINA RESULT:    -6.347      2.631      4.689
REMARK INTER + INTRA:          -9.889
REMARK INTER:                  -8.836
REMARK INTRA:                  -1.053
REMARK UNBOUND:                -0.945
REMARK  Name = 
REMARK  11 active torsions:
REMARK  status: ('A' for Active; 'I' for Inactive)
REMARK    1  A    between atoms: C_1  and  O_2
REMARK    2  A    between atoms: O_2  and  C_3
REMARK    3  A    between atoms: C_5  and  C_6
REMARK    4  A    between atoms: C_6  and  N_7
REMARK    5  A    between atoms: C_8  and  C_10
REMARK    6  A    between atoms: C_17  and  C_18
REMARK    7  A    between atoms: C_18  and  N_19
REMARK    8  A    between atoms: C_20  and  C_22
REMARK    9  A    between atoms: C_24  and  C_25
REMARK   10  A    between atoms: C_24  and  C_26
REMARK   11  A    between atoms: N_27  and  C_28
REMARK                            x       y       z     vdW  Elec       q    Type
REMARK                         _______ _______ _______ _____ _____    ______ ____
ROOT
ATOM      1  C   UNL     1      48.134   5.686  15.114  0.00  0.00    +0.000 A 
ATOM      2  C   UNL     1      47.552   5.973  13.878  0.00  0.00    +0.000 A 
ATOM      3  C   UNL     1      47.578   7.277  13.400  0.00  0.00    +0.000 A 
ATOM      4  N   UNL     1      48.122   8.296  14.108  0.00  0.00    +0.000 NA
ATOM      5  C   UNL     1      48.656   7.997  15.317  0.00  0.00    +0.000 A 
ATOM      6  C   UNL     1      48.679   6.721  15.876  0.00  0.00    +0.000 A 
ENDROOT
BRANCH   1   8
ATOM      7  C   UNL     1      47.044   4.058  16.445  0.00  0.00    +0.000 C 
ATOM      8  O   UNL     1      48.175   4.428  15.661  0.00  0.00    +0.000 OA
ENDBRANCH   1   8
BRANCH   3   9
ATOM      9  C   UNL     1      46.974   7.593  12.051  0.00  0.00    +0.000 C 
BRANCH   9  10
ATOM     10  N   UNL     1      46.573   6.406  11.335  0.00  0.00    +0.000 N 
ATOM     11  C   UNL     1      45.269   6.106  11.012  0.00  0.00    +0.000 C 
ATOM     12  O   UNL     1      44.339   6.855  11.310  0.00  0.00    +0.000 OA
ATOM     13  H   UNL     1      47.305   5.826  10.945  0.00  0.00    +0.000 HD
BRANCH  11  14
ATOM     14  C   UNL     1      45.076   4.842  10.304  0.00  0.00    +0.000 A 
ATOM     15  C   UNL     1      45.397   4.560   8.987  0.00  0.00    +0.000 A 
ATOM     16  C   UNL     1      45.046   3.229   8.609  0.00  0.00    +0.000 A 
ATOM     17  C   UNL     1      44.466   2.535   9.646  0.00  0.00    +0.000 A 
ATOM     18  S   UNL     1      44.357   3.479  11.065  0.00  0.00    +0.000 S 
ENDBRANCH  11  14
ENDBRANCH   9  10
ENDBRANCH   3   9
BRANCH   6  19
ATOM     19  C   UNL     1      49.275   6.512  17.240  0.00  0.00    +0.000 C 
BRANCH  19  20
ATOM     20  N   UNL     1      50.350   5.546  17.248  0.00  0.00    +0.000 N 
ATOM     21  C   UNL     1      50.441   4.568  18.214  0.00  0.00    +0.000 C 
ATOM     22  O   UNL     1      49.661   4.438  19.144  0.00  0.00    +0.000 OA
ATOM     23  H   UNL     1      51.120   5.644  16.595  0.00  0.00    +0.000 HD
BRANCH  21  24
ATOM     24  C   UNL     1      51.626   3.643  18.084  0.00  0.00    +0.000 C 
ATOM     25  N   UNL     1      52.795   3.947  18.600  0.00  0.00    +0.000 NA
ATOM     26  C   UNL     1      53.669   2.762  18.319  0.00  0.00    +0.000 C 
ATOM     27  C   UNL     1      54.313   2.311  19.632  0.00  0.00    +0.000 C 
ATOM     28  C   UNL     1      54.742   3.215  17.322  0.00  0.00    +0.000 C 
ATOM     29  N   UNL     1      52.803   1.748  17.767  0.00  0.00    +0.000 N 
ATOM     30  C   UNL     1      53.200   0.406  17.410  0.00  0.00    +0.000 C 
ATOM     31  C   UNL     1      51.601   2.292  17.426  0.00  0.00    +0.000 C 
ATOM     32  O   UNL     1      50.710   1.840  16.747  0.00  0.00    +0.000 OA
ENDBRANCH  21  24
ENDBRANCH  19  20
ENDBRANCH   6  19
TORSDOF 7
ENDMDL
MODEL 9
REMARK VINA RESULT:    -6.328      4.057      8.586
REMARK INTER + INTRA:          -9.863
REMARK INTER:                  -8.745
REMARK INTRA:                  -1.118
REMARK UNBOUND:                -0.945
REMARK  Name = 
REMARK  11 active torsions:
REMARK  status: ('A' for Active; 'I' for Inactive)
REMARK    1  A    between atoms: C_1  and  O_2
REMARK    2  A    between atoms: O_2  and  C_3
REMARK    3  A    between atoms: C_5  and  C_6
REMARK    4  A    between atoms: C_6  and  N_7
REMARK    5  A    between atoms: C_8  and  C_10
REMARK    6  A    between atoms: C_17  and  C_18
REMARK    7  A    between atoms: C_18  and  N_19
REMARK    8  A    between atoms: C_20  and  C_22
REMARK    9  A    between atoms: C_24  and  C_25
REMARK   10  A    between atoms: C_24  and  C_26
REMARK   11  A    between atoms: N_27  and  C_28
REMARK                            x       y       z     vdW  Elec       q    Type
REMARK                         _______ _______ _______ _____ _____    ______ ____
ROOT
ATOM      1  C   UNL     1      50.557   4.630  17.419  0.00  0.00    +0.000 A 
ATOM      2  C   UNL     1      51.831   5.161  17.213  0.00  0.00    +0.000 A 
ATOM      3  C   UNL     1      51.963   6.389  16.576  0.00  0.00    +0.000 A 
ATOM      4  N   UNL     1      50.894   7.081  16.113  0.00  0.00    +0.000 NA
ATOM      5  C   UNL     1      49.669   6.532  16.300  0.00  0.00    +0.000 A 
ATOM      6  C   UNL     1      49.440   5.311  16.930  0.00  0.00    +0.000 A 
ENDROOT
BRANCH   1   8
ATOM      7  C   UNL     1      50.698   2.267  17.329  0.00  0.00    +0.000 C 
ATOM      8  O   UNL     1      50.325   3.436  18.055  0.00  0.00    +0.000 OA
ENDBRANCH   1   8
BRANCH   3   9
ATOM      9  C   UNL     1      53.337   6.984  16.372  0.00  0.00    +0.000 C 
BRANCH   9  10
ATOM     10  N   UNL     1      53.762   6.930  14.994  0.00  0.00    +0.000 N 
ATOM     11  C   UNL     1      53.807   8.025  14.159  0.00  0.00    +0.000 C 
ATOM     12  O   UNL     1      53.490   9.148  14.548  0.00  0.00    +0.000 OA
ATOM     13  H   UNL     1      54.164   6.063  14.662  0.00  0.00    +0.000 HD
BRANCH  11  14
ATOM     14  C   UNL     1      54.245   7.750  12.793  0.00  0.00    +0.000 A 
ATOM     15  C   UNL     1      55.123   6.764  12.375  0.00  0.00    +0.000 A 
ATOM     16  C   UNL     1      55.354   6.796  10.967  0.00  0.00    +0.000 A 
ATOM     17  C   UNL     1      54.650   7.805  10.351  0.00  0.00    +0.000 A 
ATOM     18  S   UNL     1      53.710   8.697  11.463  0.00  0.00    +0.000 S 
ENDBRANCH  11  14
ENDBRANCH   9  10
ENDBRANCH   3   9
BRANCH   6  19
ATOM     19  C   UNL     1      48.038   4.785  17.057  0.00  0.00    +0.000 C 
BRANCH  19  20
ATOM     20  N   UNL     1      47.201   5.118  15.926  0.00  0.00    +0.000 N 
ATOM     21  C   UNL     1      47.017   4.244  14.878  0.00  0.00    +0.000 C 
ATOM     22  O   UNL     1      47.543   3.146  14.789  0.00  0.00    +0.000 OA
ATOM     23  H   UNL     1      46.820   6.054  15.840  0.00  0.00    +0.000 HD
BRANCH  21  24
ATOM     24  C   UNL     1      46.119   4.746  13.773  0.00  0.00    +0.000 C 
ATOM     25  N   UNL     1      45.057   4.074  13.393  0.00  0.00    +0.000 NA
ATOM     26  C   UNL     1      44.409   4.924  12.343  0.00  0.00    +0.000 C 
ATOM     27  C   UNL     1      42.937   5.117  12.713  0.00  0.00    +0.000 C 
ATOM     28  C   UNL     1      44.534   4.175  11.011  0.00  0.00    +0.000 C 
ATOM     29  N   UNL     1      45.131   6.173  12.337  0.00  0.00    +0.000 N 
ATOM     30  C   UNL     1      44.812   7.326  11.527  0.00  0.00    +0.000 C 
ATOM     31  C   UNL     1      46.289   6.049  13.043  0.00  0.00    +0.000 C 
ATOM     32  O   UNL     1      47.253   6.777  13.087  0.00  0.00    +0.000 OA
ENDBRANCH  21  24
ENDBRANCH  19  20
ENDBRANCH   6  19
TORSDOF 7
ENDMDL
