MODEL 1
REMARK VINA RESULT:    -8.419      0.000      0.000
REMARK INTER + INTRA:         -11.583
REMARK INTER:                 -10.880
REMARK INTRA:                  -0.702
REMARK UNBOUND:                -0.702
REMARK  Name = 
REMARK  5 active torsions:
REMARK  status: ('A' for Active; 'I' for Inactive)
REMARK    1  A    between atoms: C_2  and  C_4
REMARK    2  A    between atoms: C_7  and  O_8
REMARK    3  A    between atoms: O_8  and  C_9
REMARK    4  A    between atoms: C_9  and  C_10
REMARK    5  A    between atoms: C_14  and  N_15
REMARK                            x       y       z     vdW  Elec       q    Type
REMARK                         _______ _______ _______ _____ _____    ______ ____
ROOT
ATOM      1  C   UNL     1      43.565   4.164  11.217  0.00  0.00    +0.000 C 
ENDROOT
BRANCH   1   2
ATOM      2  C   UNL     1      44.756   4.526  12.067  0.00  0.00    +0.000 A 
ATOM      3  C   UNL     1      45.421   3.517  12.756  0.00  0.00    +0.000 A 
ATOM      4  N   UNL     1      46.500   3.722  13.536  0.00  0.00    +0.000 NA
ATOM      5  C   UNL     1      46.931   5.004  13.633  0.00  0.00    +0.000 A 
ATOM      6  C   UNL     1      46.360   6.114  13.000  0.00  0.00    +0.000 A 
ATOM      7  C   UNL     1      45.242   5.832  12.209  0.00  0.00    +0.000 A 
BRANCH   6   8
ATOM      8  N   UNL     1      46.860   7.389  13.152  0.00  0.00    +0.000 N 
ATOM      9  C   UNL     1      46.018   8.593  13.201  0.00  0.00    +0.000 C 
ATOM     10  C   UNL     1      46.378   9.546  12.054  0.00  0.00    +0.000 C 
ATOM     11  O   UNL     1      47.784   9.849  12.038  0.00  0.00    +0.000 OA
ATOM     12  C   UNL     1      48.551   8.643  11.882  0.00  0.00    +0.000 C 
ATOM     13  C   UNL     1      48.302   7.658  13.037  0.00  0.00    +0.000 C 
ENDBRANCH   6   8
ENDBRANCH   1   2
BRANCH   1  14
ATOM     14  O   UNL     1      43.681   4.667   9.882  0.00  0.00    +0.000 OA
BRANCH  14  18
ATOM     15  C   UNL     1      46.398   2.463   7.707  0.00  0.00    +0.000 A 
ATOM     16  C   UNL     1      45.520   1.812   8.576  0.00  0.00    +0.000 A 
ATOM     17  C   UNL     1      44.599   2.569   9.306  0.00  0.00    +0.000 A 
ATOM     18  C   UNL     1      44.592   3.947   9.136  0.00  0.00    +0.000 A 
ATOM     19  N   UNL     1      45.427   4.599   8.301  0.00  0.00    +0.000 NA
ATOM     20  C   UNL     1      46.317   3.845   7.614  0.00  0.00    +0.000 A 
BRANCH  15  22
ATOM     21  N   UNL     1      48.494   2.504   6.473  0.00  0.00    +0.000 N 
ATOM     22  C   UNL     1      47.429   1.769   6.908  0.00  0.00    +0.000 C 
ATOM     23  O   UNL     1      47.353   0.569   6.677  0.00  0.00    +0.000 OA
ATOM     24  H   UNL     1      49.238   1.984   6.025  0.00  0.00    +0.000 HD
ATOM     25  H   UNL     1      48.726   3.410   6.856  0.00  0.00    +0.000 HD
ENDBRANCH  15  22
ENDBRANCH  14  18
ENDBRANCH   1  14
TORSDOF 5
ENDMDL
MODEL 2
REMARK VINA RESULT:    -8.066      1.940      2.905
REMARK INTER + INTRA:         -11.126
REMARK INTER:                 -10.336
REMARK INTRA:                  -0.790
REMARK UNBOUND:                -0.702
REMARK  Name = 
REMARK  5 active torsions:
REMARK  status: ('A' for Active; 'I' for Inactive)
REMARK    1  A    between atoms: C_2  and  C_4
REMARK    2  A    between atoms: C_7  and  O_8
REMARK    3  A    between atoms: O_8  and  C_9
REMARK    4  A    between atoms: C_9  and  C_10
REMARK    5  A    between atoms: C_14  and  N_15
REMARK                            x       y       z     vdW  Elec       q    Type
REMARK                         _______ _______ _______ _____ _____    ______ ____
ROOT
ATOM      1  C   UNL     1      43.632   4.450  11.097  0.00  0.00    +0.000 C 
ENDROOT
BRANCH   1   2
ATOM      2  C   UNL     1      44.652   5.332  11.770  0.00  0.00    +0.000 A 
ATOM      3  C   UNL     1      44.675   6.688  11.463  0.00  0.00    +0.000 A 
ATOM      4  N   UNL     1      45.535   7.570  12.009  0.00  0.00    +0.000 NA
ATOM      5  C   UNL     1      46.418   7.065  12.905  0.00  0.00    +0.000 A 
ATOM      6  C   UNL     1      46.511   5.727  13.305  0.00  0.00    +0.000 A 
ATOM      7  C   UNL     1      45.591   4.865  12.698  0.00  0.00    +0.000 A 
BRANCH   6   8
ATOM      8  N   UNL     1      47.441   5.293  14.224  0.00  0.00    +0.000 N 
ATOM      9  C   UNL     1      47.329   4.024  14.958  0.00  0.00    +0.000 C 
ATOM     10  C   UNL     1      47.271   4.284  16.469  0.00  0.00    +0.000 C 
ATOM     11  O   UNL     1      48.377   5.089  16.912  0.00  0.00    +0.000 OA
ATOM     12  C   UNL     1      48.372   6.357  16.234  0.00  0.00    +0.000 C 
ATOM     13  C   UNL     1      48.502   6.188  14.711  0.00  0.00    +0.000 C 
ENDBRANCH   6   8
ENDBRANCH   1   2
BRANCH   1  14
ATOM     14  O   UNL     1      43.578   4.668   9.682  0.00  0.00    +0.000 OA
BRANCH  14  18
ATOM     15  C   UNL     1      46.500   2.511   7.739  0.00  0.00    +0.000 A 
ATOM     16  C   UNL     1      45.559   1.844   8.526  0.00  0.00    +0.000 A 
ATOM     17  C   UNL     1      44.570   2.584   9.178  0.00  0.00    +0.000 A 
ATOM     18  C   UNL     1      44.559   3.963   9.015  0.00  0.00    +0.000 A 
ATOM     19  N   UNL     1      45.454   4.631   8.257  0.00  0.00    +0.000 NA
ATOM     20  C   UNL     1      46.410   3.892   7.646  0.00  0.00    +0.000 A 
BRANCH  15  22
ATOM     21  N   UNL     1      48.377   2.589   6.194  0.00  0.00    +0.000 N 
ATOM     22  C   UNL     1      47.605   1.834   7.028  0.00  0.00    +0.000 C 
ATOM     23  O   UNL     1      47.845   0.647   7.211  0.00  0.00    +0.000 OA
ATOM     24  H   UNL     1      49.193   2.129   5.807  0.00  0.00    +0.000 HD
ATOM     25  H   UNL     1      48.382   3.599   6.217  0.00  0.00    +0.000 HD
ENDBRANCH  15  22
ENDBRANCH  14  18
ENDBRANCH   1  14
TORSDOF 5
ENDMDL
MODEL 3
REMARK VINA RESULT:    -7.713      1.500      2.268
REMARK INTER + INTRA:         -10.670
REMARK INTER:                  -9.957
REMARK INTRA:                  -0.713
REMARK UNBOUND:                -0.702
REMARK  Name = 
REMARK  5 active torsions:
REMARK  status: ('A' for Active; 'I' for Inactive)
REMARK    1  A    between atoms: C_2  and  C_4
REMARK    2  A    between atoms: C_7  and  O_8
REMARK    3  A    between atoms: O_8  and  C_9
REMARK    4  A    between atoms: C_9  and  C_10
REMARK    5  A    between atoms: C_14  and  N_15
REMARK                            x       y       z     vdW  Elec       q    Type
REMARK                         _______ _______ _______ _____ _____    ______ ____
ROOT
ATOM      1  C   UNL     1      44.227   4.781  11.304  0.00  0.00    +0.000 C 
ENDROOT
BRANCH   1   2
ATOM      2  C   UNL     1      45.061   5.972  11.703  0.00  0.00    +0.000 A 
ATOM      3  C   UNL     1      44.520   7.246  11.571  0.00  0.00    +0.000 A 
ATOM      4  N   UNL     1      45.168   8.378  11.902  0.00  0.00    +0.000 NA
ATOM      5  C   UNL     1      46.425   8.226  12.388  0.00  0.00    +0.000 A 
ATOM      6  C   UNL     1      47.094   7.010  12.571  0.00  0.00    +0.000 A 
ATOM      7  C   UNL     1      46.365   5.874  12.204  0.00  0.00    +0.000 A 
BRANCH   6   8
ATOM      8  N   UNL     1      48.376   6.940  13.071  0.00  0.00    +0.000 N 
ATOM      9  C   UNL     1      48.684   6.800  14.501  0.00  0.00    +0.000 C 
ATOM     10  C   UNL     1      49.512   7.996  14.990  0.00  0.00    +0.000 C 
ATOM     11  O   UNL     1      50.686   8.194  14.183  0.00  0.00    +0.000 OA
ATOM     12  C   UNL     1      50.314   8.430  12.814  0.00  0.00    +0.000 C 
ATOM     13  C   UNL     1      49.540   7.241  12.223  0.00  0.00    +0.000 C 
ENDBRANCH   6   8
ENDBRANCH   1   2
BRANCH   1  14
ATOM     14  O   UNL     1      43.889   4.798   9.913  0.00  0.00    +0.000 OA
BRANCH  14  18
ATOM     15  C   UNL     1      46.391   2.348   7.743  0.00  0.00    +0.000 A 
ATOM     16  C   UNL     1      45.526   1.789   8.685  0.00  0.00    +0.000 A 
ATOM     17  C   UNL     1      44.678   2.629   9.413  0.00  0.00    +0.000 A 
ATOM     18  C   UNL     1      44.728   3.995   9.168  0.00  0.00    +0.000 A 
ATOM     19  N   UNL     1      45.553   4.559   8.261  0.00  0.00    +0.000 NA
ATOM     20  C   UNL     1      46.373   3.726   7.577  0.00  0.00    +0.000 A 
BRANCH  15  22
ATOM     21  N   UNL     1      48.463   2.201   6.477  0.00  0.00    +0.000 N 
ATOM     22  C   UNL     1      47.349   1.562   6.938  0.00  0.00    +0.000 C 
ATOM     23  O   UNL     1      47.170   0.370   6.724  0.00  0.00    +0.000 OA
ATOM     24  H   UNL     1      49.155   1.615   6.025  0.00  0.00    +0.000 HD
ATOM     25  H   UNL     1      48.775   3.090   6.844  0.00  0.00    +0.000 HD
ENDBRANCH  15  22
ENDBRANCH  14  18
ENDBRANCH   1  14
TORSDOF 5
ENDMDL
MODEL 4
REMARK VINA RESULT:    -7.696      1.547      2.065
REMARK INTER + INTRA:         -10.648
REMARK INTER:                 -10.042
REMARK INTRA:                  -0.606
REMARK UNBOUND:                -0.702
REMARK  Name = 
REMARK  5 active torsions:
REMARK  status: ('A' for Active; 'I' for Inactive)
REMARK    1  A    between atoms: C_2  and  C_4
REMARK    2  A    between atoms: C_7  and  O_8
REMARK    3  A    between atoms: O_8  and  C_9
REMARK    4  A    between atoms: C_9  and  C_10
REMARK    5  A    between atoms: C_14  and  N_15
REMARK                            x       y       z     vdW  Elec       q    Type
REMARK                         _______ _______ _______ _____ _____    ______ ____
ROOT
ATOM      1  C   UNL     1      44.342   3.175  11.433  0.00  0.00    +0.000 C 
ENDROOT
BRANCH   1   2
ATOM      2  C   UNL     1      44.545   4.651  11.664  0.00  0.00    +0.000 A 
ATOM      3  C   UNL     1      43.569   5.540  11.229  0.00  0.00    +0.000 A 
ATOM      4  N   UNL     1      43.640   6.875  11.389  0.00  0.00    +0.000 NA
ATOM      5  C   UNL     1      44.749   7.342  12.013  0.00  0.00    +0.000 A 
ATOM      6  C   UNL     1      45.809   6.567  12.498  0.00  0.00    +0.000 A 
ATOM      7  C   UNL     1      45.672   5.190  12.297  0.00  0.00    +0.000 A 
BRANCH   6   8
ATOM      8  N   UNL     1      46.905   7.121  13.123  0.00  0.00    +0.000 N 
ATOM      9  C   UNL     1      46.990   8.536  13.511  0.00  0.00    +0.000 C 
ATOM     10  C   UNL     1      48.167   9.217  12.799  0.00  0.00    +0.000 C 
ATOM     11  O   UNL     1      49.399   8.504  13.011  0.00  0.00    +0.000 OA
ATOM     12  C   UNL     1      49.287   7.159  12.516  0.00  0.00    +0.000 C 
ATOM     13  C   UNL     1      48.171   6.381  13.234  0.00  0.00    +0.000 C 
ENDBRANCH   6   8
ENDBRANCH   1   2
BRANCH   1  14
ATOM     14  O   UNL     1      43.765   2.903  10.151  0.00  0.00    +0.000 OA
BRANCH  14  18
ATOM     15  C   UNL     1      46.607   2.525   7.193  0.00  0.00    +0.000 A 
ATOM     16  C   UNL     1      45.944   3.742   7.360  0.00  0.00    +0.000 A 
ATOM     17  C   UNL     1      44.984   3.861   8.369  0.00  0.00    +0.000 A 
ATOM     18  C   UNL     1      44.728   2.758   9.173  0.00  0.00    +0.000 A 
ATOM     19  N   UNL     1      45.358   1.572   9.034  0.00  0.00    +0.000 NA
ATOM     20  C   UNL     1      46.274   1.479   8.042  0.00  0.00    +0.000 A 
BRANCH  15  22
ATOM     21  N   UNL     1      47.684   3.161   5.107  0.00  0.00    +0.000 N 
ATOM     22  C   UNL     1      47.617   2.276   6.143  0.00  0.00    +0.000 C 
ATOM     23  O   UNL     1      48.394   1.333   6.220  0.00  0.00    +0.000 OA
ATOM     24  H   UNL     1      48.455   3.032   4.462  0.00  0.00    +0.000 HD
ATOM     25  H   UNL     1      47.254   4.076   5.140  0.00  0.00    +0.000 HD
ENDBRANCH  15  22
ENDBRANCH  14  18
ENDBRANCH   1  14
TORSDOF 5
ENDMDL
MODEL 5
REMARK VINA RESULT:    -7.378      1.614      2.171
REMARK INTER + INTRA:         -10.237
REMARK INTER:                  -9.675
REMARK INTRA:                  -0.562
REMARK UNBOUND:                -0.702
REMARK  Name = 
REMARK  5 active torsions:
REMARK  status: ('A' for Active; 'I' for Inactive)
REMARK    1  A    between atoms: C_2  and  C_4
REMARK    2  A    between atoms: C_7  and  O_8
REMARK    3  A    between atoms: O_8  and  C_9
REMARK    4  A    between atoms: C_9  and  C_10
REMARK    5  A    between atoms: C_14  and  N_15
REMARK                            x       y       z     vdW  Elec       q    Type
REMARK                         _______ _______ _______ _____ _____    ______ ____
ROOT
ATOM      1  C   UNL     1      44.557   5.506  10.996  0.00  0.00    +0.000 C 
ENDROOT
BRANCH   1   2
ATOM      2  C   UNL     1      45.500   5.378  12.166  0.00  0.00    +0.000 A 
ATOM      3  C   UNL     1      45.503   4.198  12.900  0.00  0.00    +0.000 A 
ATOM      4  N   UNL     1      46.306   3.969  13.956  0.00  0.00    +0.000 NA
ATOM      5  C   UNL     1      47.147   4.978  14.295  0.00  0.00    +0.000 A 
ATOM      6  C   UNL     1      47.249   6.216  13.650  0.00  0.00    +0.000 A 
ATOM      7  C   UNL     1      46.385   6.388  12.564  0.00  0.00    +0.000 A 
BRANCH   6   8
ATOM      8  N   UNL     1      48.132   7.192  14.058  0.00  0.00    +0.000 N 
ATOM      9  C   UNL     1      48.760   8.154  13.143  0.00  0.00    +0.000 C 
ATOM     10  C   UNL     1      50.288   8.009  13.179  0.00  0.00    +0.000 C 
ATOM     11  O   UNL     1      50.797   8.101  14.521  0.00  0.00    +0.000 OA
ATOM     12  C   UNL     1      50.225   7.068  15.342  0.00  0.00    +0.000 C 
ATOM     13  C   UNL     1      48.693   7.187  15.418  0.00  0.00    +0.000 C 
ENDBRANCH   6   8
ENDBRANCH   1   2
BRANCH   1  14
ATOM     14  O   UNL     1      44.136   4.231  10.499  0.00  0.00    +0.000 OA
BRANCH  14  18
ATOM     15  C   UNL     1      46.655   2.871   7.536  0.00  0.00    +0.000 A 
ATOM     16  C   UNL     1      46.472   4.245   7.710  0.00  0.00    +0.000 A 
ATOM     17  C   UNL     1      45.619   4.696   8.720  0.00  0.00    +0.000 A 
ATOM     18  C   UNL     1      44.983   3.755   9.519  0.00  0.00    +0.000 A 
ATOM     19  N   UNL     1      45.145   2.423   9.374  0.00  0.00    +0.000 NA
ATOM     20  C   UNL     1      45.968   2.011   8.380  0.00  0.00    +0.000 A 
BRANCH  15  22
ATOM     21  N   UNL     1      47.478   2.857   5.247  0.00  0.00    +0.000 N 
ATOM     22  C   UNL     1      47.509   2.282   6.484  0.00  0.00    +0.000 C 
ATOM     23  O   UNL     1      48.249   1.336   6.723  0.00  0.00    +0.000 OA
ATOM     24  H   UNL     1      48.152   2.506   4.578  0.00  0.00    +0.000 HD
ATOM     25  H   UNL     1      47.095   3.778   5.081  0.00  0.00    +0.000 HD
ENDBRANCH  15  22
ENDBRANCH  14  18
ENDBRANCH   1  14
TORSDOF 5
ENDMDL
MODEL 6
REMARK VINA RESULT:    -6.899      3.816      8.101
REMARK INTER + INTRA:          -9.618
REMARK INTER:                  -9.125
REMARK INTRA:                  -0.492
REMARK UNBOUND:                -0.702
REMARK  Name = 
REMARK  5 active torsions:
REMARK  status: ('A' for Active; 'I' for Inactive)
REMARK    1  A    between atoms: C_2  and  C_4
REMARK    2  A    between atoms: C_7  and  O_8
REMARK    3  A    between atoms: O_8  and  C_9
REMARK    4  A    between atoms: C_9  and  C_10
REMARK    5  A    between atoms: C_14  and  N_15
REMARK                            x       y       z     vdW  Elec       q    Type
REMARK                         _______ _______ _______ _____ _____    ______ ____
ROOT
ATOM      1  C   UNL     1      46.551   4.666  13.781  0.00  0.00    +0.000 C 
ENDROOT
BRANCH   1   2
ATOM      2  C   UNL     1      45.403   4.437  12.831  0.00  0.00    +0.000 A 
ATOM      3  C   UNL     1      44.113   4.744  13.250  0.00  0.00    +0.000 A 
ATOM      4  N   UNL     1      43.015   4.589  12.486  0.00  0.00    +0.000 NA
ATOM      5  C   UNL     1      43.221   4.097  11.239  0.00  0.00    +0.000 A 
ATOM      6  C   UNL     1      44.459   3.742  10.689  0.00  0.00    +0.000 A 
ATOM      7  C   UNL     1      45.556   3.926  11.536  0.00  0.00    +0.000 A 
BRANCH   6   8
ATOM      8  N   UNL     1      44.583   3.246   9.409  0.00  0.00    +0.000 N 
ATOM      9  C   UNL     1      44.702   1.815   9.100  0.00  0.00    +0.000 C 
ATOM     10  C   UNL     1      46.030   1.530   8.384  0.00  0.00    +0.000 C 
ATOM     11  O   UNL     1      46.198   2.367   7.226  0.00  0.00    +0.000 OA
ATOM     12  C   UNL     1      46.177   3.754   7.608  0.00  0.00    +0.000 C 
ATOM     13  C   UNL     1      44.845   4.140   8.270  0.00  0.00    +0.000 C 
ENDBRANCH   6   8
ENDBRANCH   1   2
BRANCH   1  14
ATOM     14  O   UNL     1      46.992   3.452  14.399  0.00  0.00    +0.000 OA
BRANCH  14  18
ATOM     15  C   UNL     1      48.677   4.059  18.109  0.00  0.00    +0.000 A 
ATOM     16  C   UNL     1      48.764   2.801  17.510  0.00  0.00    +0.000 A 
ATOM     17  C   UNL     1      48.192   2.606  16.250  0.00  0.00    +0.000 A 
ATOM     18  C   UNL     1      47.559   3.679  15.637  0.00  0.00    +0.000 A 
ATOM     19  N   UNL     1      47.465   4.905  16.192  0.00  0.00    +0.000 NA
ATOM     20  C   UNL     1      48.016   5.065  17.419  0.00  0.00    +0.000 A 
BRANCH  15  22
ATOM     21  N   UNL     1      48.520   3.929  20.533  0.00  0.00    +0.000 N 
ATOM     22  C   UNL     1      49.219   4.372  19.448  0.00  0.00    +0.000 C 
ATOM     23  O   UNL     1      50.278   4.972  19.580  0.00  0.00    +0.000 OA
ATOM     24  H   UNL     1      48.967   4.058  21.432  0.00  0.00    +0.000 HD
ATOM     25  H   UNL     1      47.802   3.220  20.469  0.00  0.00    +0.000 HD
ENDBRANCH  15  22
ENDBRANCH  14  18
ENDBRANCH   1  14
TORSDOF 5
ENDMDL
MODEL 7
REMARK VINA RESULT:    -6.706      4.569      7.933
REMARK INTER + INTRA:          -9.369
REMARK INTER:                  -8.686
REMARK INTRA:                  -0.683
REMARK UNBOUND:                -0.702
REMARK  Name = 
REMARK  5 active torsions:
REMARK  status: ('A' for Active; 'I' for Inactive)
REMARK    1  A    between atoms: C_2  and  C_4
REMARK    2  A    between atoms: C_7  and  O_8
REMARK    3  A    between atoms: O_8  and  C_9
REMARK    4  A    between atoms: C_9  and  C_10
REMARK    5  A    between atoms: C_14  and  N_15
REMARK                            x       y       z     vdW  Elec       q    Type
REMARK                         _______ _______ _______ _____ _____    ______ ____
ROOT
ATOM      1  C   UNL     1      48.625   6.280  15.753  0.00  0.00    +0.000 C 
ENDROOT
BRANCH   1   2
ATOM      2  C   UNL     1      47.876   6.175  14.449  0.00  0.00    +0.000 A 
ATOM      3  C   UNL     1      48.270   6.975  13.382  0.00  0.00    +0.000 A 
ATOM      4  N   UNL     1      47.681   6.959  12.171  0.00  0.00    +0.000 NA
ATOM      5  C   UNL     1      46.641   6.101  12.025  0.00  0.00    +0.000 A 
ATOM      6  C   UNL     1      46.138   5.243  13.010  0.00  0.00    +0.000 A 
ATOM      7  C   UNL     1      46.793   5.311  14.243  0.00  0.00    +0.000 A 
BRANCH   6   8
ATOM      8  N   UNL     1      45.073   4.398  12.780  0.00  0.00    +0.000 N 
ATOM      9  C   UNL     1      45.200   3.094  12.114  0.00  0.00    +0.000 C 
ATOM     10  C   UNL     1      44.353   3.061  10.835  0.00  0.00    +0.000 C 
ATOM     11  O   UNL     1      42.986   3.426  11.094  0.00  0.00    +0.000 OA
ATOM     12  C   UNL     1      42.921   4.752  11.647  0.00  0.00    +0.000 C 
ATOM     13  C   UNL     1      43.688   4.851  12.976  0.00  0.00    +0.000 C 
ENDBRANCH   6   8
ENDBRANCH   1   2
BRANCH   1  14
ATOM     14  O   UNL     1      48.182   5.312  16.711  0.00  0.00    +0.000 OA
BRANCH  14  18
ATOM     15  C   UNL     1      50.974   2.366  17.418  0.00  0.00    +0.000 A 
ATOM     16  C   UNL     1      49.671   2.010  17.063  0.00  0.00    +0.000 A 
ATOM     17  C   UNL     1      48.733   3.017  16.822  0.00  0.00    +0.000 A 
ATOM     18  C   UNL     1      49.135   4.341  16.942  0.00  0.00    +0.000 A 
ATOM     19  N   UNL     1      50.388   4.710  17.280  0.00  0.00    +0.000 NA
ATOM     20  C   UNL     1      51.276   3.716  17.521  0.00  0.00    +0.000 A 
BRANCH  15  22
ATOM     21  N   UNL     1      51.656   0.143  18.131  0.00  0.00    +0.000 N 
ATOM     22  C   UNL     1      52.038   1.388  17.724  0.00  0.00    +0.000 C 
ATOM     23  O   UNL     1      53.221   1.671  17.579  0.00  0.00    +0.000 OA
ATOM     24  H   UNL     1      52.398  -0.540  18.226  0.00  0.00    +0.000 HD
ATOM     25  H   UNL     1      50.716  -0.207  18.011  0.00  0.00    +0.000 HD
ENDBRANCH  15  22
ENDBRANCH  14  18
ENDBRANCH   1  14
TORSDOF 5
ENDMDL
MODEL 8
REMARK VINA RESULT:    -6.393      2.125      6.910
REMARK INTER + INTRA:          -8.964
REMARK INTER:                  -8.240
REMARK INTRA:                  -0.724
REMARK UNBOUND:                -0.702
REMARK  Name = 
REMARK  5 active torsions:
REMARK  status: ('A' for Active; 'I' for Inactive)
REMARK    1  A    between atoms: C_2  and  C_4
REMARK    2  A    between atoms: C_7  and  O_8
REMARK    3  A    between atoms: O_8  and  C_9
REMARK    4  A    between atoms: C_9  and  C_10
REMARK    5  A    between atoms: C_14  and  N_15
REMARK                            x       y       z     vdW  Elec       q    Type
REMARK                         _______ _______ _______ _____ _____    ______ ____
ROOT
ATOM      1  C   UNL     1      44.248   6.768  12.424  0.00  0.00    +0.000 C 
ENDROOT
BRANCH   1   2
ATOM      2  C   UNL     1      44.115   5.326  12.003  0.00  0.00    +0.000 A 
ATOM      3  C   UNL     1      43.666   4.394  12.932  0.00  0.00    +0.000 A 
ATOM      4  N   UNL     1      43.501   3.084  12.666  0.00  0.00    +0.000 NA
ATOM      5  C   UNL     1      43.806   2.689  11.405  0.00  0.00    +0.000 A 
ATOM      6  C   UNL     1      44.270   3.514  10.373  0.00  0.00    +0.000 A 
ATOM      7  C   UNL     1      44.421   4.861  10.718  0.00  0.00    +0.000 A 
BRANCH   6   8
ATOM      8  N   UNL     1      44.559   3.032   9.115  0.00  0.00    +0.000 N 
ATOM      9  C   UNL     1      44.802   1.612   8.824  0.00  0.00    +0.000 C 
ATOM     10  C   UNL     1      46.212   1.416   8.251  0.00  0.00    +0.000 C 
ATOM     11  O   UNL     1      46.445   2.267   7.115  0.00  0.00    +0.000 OA
ATOM     12  C   UNL     1      46.296   3.648   7.488  0.00  0.00    +0.000 C 
ATOM     13  C   UNL     1      44.879   3.945   8.007  0.00  0.00    +0.000 C 
ENDBRANCH   6   8
ENDBRANCH   1   2
BRANCH   1  14
ATOM     14  O   UNL     1      45.285   7.447  11.707  0.00  0.00    +0.000 OA
BRANCH  14  18
ATOM     15  C   UNL     1      48.749   7.706  13.922  0.00  0.00    +0.000 A 
ATOM     16  C   UNL     1      48.625   6.712  12.948  0.00  0.00    +0.000 A 
ATOM     17  C   UNL     1      47.448   6.636  12.200  0.00  0.00    +0.000 A 
ATOM     18  C   UNL     1      46.440   7.557  12.453  0.00  0.00    +0.000 A 
ATOM     19  N   UNL     1      46.536   8.528  13.386  0.00  0.00    +0.000 NA
ATOM     20  C   UNL     1      47.682   8.574  14.106  0.00  0.00    +0.000 A 
BRANCH  15  22
ATOM     21  N   UNL     1      50.283   9.128  15.162  0.00  0.00    +0.000 N 
ATOM     22  C   UNL     1      49.934   7.863  14.790  0.00  0.00    +0.000 C 
ATOM     23  O   UNL     1      50.558   6.890  15.196  0.00  0.00    +0.000 OA
ATOM     24  H   UNL     1      51.028   9.201  15.844  0.00  0.00    +0.000 HD
ATOM     25  H   UNL     1      49.658   9.917  15.072  0.00  0.00    +0.000 HD
ENDBRANCH  15  22
ENDBRANCH  14  18
ENDBRANCH   1  14
TORSDOF 5
ENDMDL
MODEL 9
REMARK VINA RESULT:    -6.299      3.749      8.221
REMARK INTER + INTRA:          -8.843
REMARK INTER:                  -8.196
REMARK INTRA:                  -0.647
REMARK UNBOUND:                -0.702
REMARK  Name = 
REMARK  5 active torsions:
REMARK  status: ('A' for Active; 'I' for Inactive)
REMARK    1  A    between atoms: C_2  and  C_4
REMARK    2  A    between atoms: C_7  and  O_8
REMARK    3  A    between atoms: O_8  and  C_9
REMARK    4  A    between atoms: C_9  and  C_10
REMARK    5  A    between atoms: C_14  and  N_15
REMARK                            x       y       z     vdW  Elec       q    Type
REMARK                         _______ _______ _______ _____ _____    ______ ____
ROOT
ATOM      1  C   UNL     1      47.982   6.765  13.779  0.00  0.00    +0.000 C 
ENDROOT
BRANCH   1   2
ATOM      2  C   UNL     1      46.753   6.977  12.932  0.00  0.00    +0.000 A 
ATOM      3  C   UNL     1      46.302   8.274  12.716  0.00  0.00    +0.000 A 
ATOM      4  N   UNL     1      45.223   8.582  11.971  0.00  0.00    +0.000 NA
ATOM      5  C   UNL     1      44.561   7.535  11.419  0.00  0.00    +0.000 A 
ATOM      6  C   UNL     1      44.899   6.184  11.555  0.00  0.00    +0.000 A 
ATOM      7  C   UNL     1      46.027   5.934  12.342  0.00  0.00    +0.000 A 
BRANCH   6   8
ATOM      8  N   UNL     1      44.171   5.176  10.959  0.00  0.00    +0.000 N 
ATOM      9  C   UNL     1      43.030   4.509  11.602  0.00  0.00    +0.000 C 
ATOM     10  C   UNL     1      43.306   3.006  11.753  0.00  0.00    +0.000 C 
ATOM     11  O   UNL     1      43.670   2.405  10.499  0.00  0.00    +0.000 OA
ATOM     12  C   UNL     1      44.852   3.031   9.972  0.00  0.00    +0.000 C 
ATOM     13  C   UNL     1      44.636   4.533   9.721  0.00  0.00    +0.000 C 
ENDBRANCH   6   8
ENDBRANCH   1   2
BRANCH   1  14
ATOM     14  O   UNL     1      48.080   5.421  14.264  0.00  0.00    +0.000 OA
BRANCH  14  18
ATOM     15  C   UNL     1      48.089   5.300  18.382  0.00  0.00    +0.000 A 
ATOM     16  C   UNL     1      48.774   6.321  17.721  0.00  0.00    +0.000 A 
ATOM     17  C   UNL     1      48.762   6.355  16.324  0.00  0.00    +0.000 A 
ATOM     18  C   UNL     1      48.062   5.368  15.643  0.00  0.00    +0.000 A 
ATOM     19  N   UNL     1      47.388   4.374  16.259  0.00  0.00    +0.000 NA
ATOM     20  C   UNL     1      47.426   4.355  17.612  0.00  0.00    +0.000 A 
BRANCH  15  22
ATOM     21  N   UNL     1      48.525   3.980  20.378  0.00  0.00    +0.000 N 
ATOM     22  C   UNL     1      48.057   5.149  19.851  0.00  0.00    +0.000 C 
ATOM     23  O   UNL     1      47.663   6.055  20.575  0.00  0.00    +0.000 OA
ATOM     24  H   UNL     1      48.596   3.946  21.388  0.00  0.00    +0.000 HD
ATOM     25  H   UNL     1      49.091   3.331  19.850  0.00  0.00    +0.000 HD
ENDBRANCH  15  22
ENDBRANCH  14  18
ENDBRANCH   1  14
TORSDOF 5
ENDMDL
