MODEL 1
REMARK VINA RESULT:    -8.736      0.000      0.000
REMARK INTER + INTRA:         -13.431
REMARK INTER:                 -12.312
REMARK INTRA:                  -1.119
REMARK UNBOUND:                -1.119
REMARK  Name = 
REMARK  7 active torsions:
REMARK  status: ('A' for Active; 'I' for Inactive)
REMARK    1  A    between atoms: C_2  and  C_3
REMARK    2  A    between atoms: C_2  and  C_17
REMARK    3  A    between atoms: C_3  and  N_4
REMARK    4  A    between atoms: C_5  and  C_7
REMARK    5  A    between atoms: C_20  and  C_21
REMARK    6  A    between atoms: C_21  and  N_22
REMARK    7  A    between atoms: C_23  and  C_25
REMARK                            x       y       z     vdW  Elec       q    Type
REMARK                         _______ _______ _______ _____ _____    ______ ____
ROOT
ATOM      1  O   UNL     1      47.342   3.124  15.901  0.00  0.00    +0.000 OA
ATOM      2  C   UNL     1      47.365   4.343  15.712  0.00  0.00    +0.000 C 
ENDROOT
BRANCH   2   3
ATOM      3  C   UNL     1      46.896   4.893  14.403  0.00  0.00    +0.000 A 
ATOM      4  C   UNL     1      45.694   4.405  13.871  0.00  0.00    +0.000 A 
ATOM      5  C   UNL     1      45.226   4.857  12.633  0.00  0.00    +0.000 A 
ATOM      6  C   UNL     1      45.958   5.800  11.899  0.00  0.00    +0.000 A 
ATOM      7  C   UNL     1      47.148   6.300  12.442  0.00  0.00    +0.000 A 
ATOM      8  C   UNL     1      47.618   5.844  13.680  0.00  0.00    +0.000 A 
BRANCH   6   9
ATOM      9  C   UNL     1      45.494   6.260  10.541  0.00  0.00    +0.000 C 
BRANCH   9  10
ATOM     10  N   UNL     1      45.870   5.347   9.494  0.00  0.00    +0.000 N 
ATOM     11  C   UNL     1      44.983   4.404   9.020  0.00  0.00    +0.000 C 
ATOM     12  O   UNL     1      43.830   4.302   9.430  0.00  0.00    +0.000 OA
ATOM     13  H   UNL     1      46.846   5.193   9.253  0.00  0.00    +0.000 HD
BRANCH  11  14
ATOM     14  C   UNL     1      45.536   3.517   7.896  0.00  0.00    +0.000 C 
ATOM     15  C   UNL     1      45.985   2.153   8.381  0.00  0.00    +0.000 C 
ATOM     16  C   UNL     1      46.886   1.683   7.254  0.00  0.00    +0.000 C 
ATOM     17  C   UNL     1      47.482   2.959   6.675  0.00  0.00    +0.000 C 
ATOM     18  N   UNL     1      46.770   4.084   7.292  0.00  0.00    +0.000 NA
ATOM     19  H   UNL     1      46.507   4.765   6.578  0.00  0.00    +0.000 HD
ENDBRANCH  11  14
ENDBRANCH   9  10
ENDBRANCH   6   9
ENDBRANCH   2   3
BRANCH   2  20
ATOM     20  C   UNL     1      47.942   5.279  16.765  0.00  0.00    +0.000 C 
BRANCH  20  21
ATOM     21  N   UNL     1      49.108   4.668  17.366  0.00  0.00    +0.000 N 
ATOM     22  C   UNL     1      50.385   5.054  17.051  0.00  0.00    +0.000 C 
ATOM     23  O   UNL     1      50.610   5.973  16.268  0.00  0.00    +0.000 OA
ATOM     24  H   UNL     1      48.952   3.812  17.895  0.00  0.00    +0.000 HD
BRANCH  22  25
ATOM     25  C   UNL     1      51.476   4.352  17.735  0.00  0.00    +0.000 A 
ATOM     26  C   UNL     1      52.397   5.076  18.481  0.00  0.00    +0.000 A 
ATOM     27  S   UNL     1      53.588   4.107  19.223  0.00  0.00    +0.000 S 
ATOM     28  C   UNL     1      52.941   2.690  18.535  0.00  0.00    +0.000 A 
ATOM     29  N   UNL     1      53.520   1.480  18.754  0.00  0.00    +0.000 NA
ATOM     30  C   UNL     1      52.948   0.497  18.139  0.00  0.00    +0.000 A 
ATOM     31  N   UNL     1      51.841   0.616  17.337  0.00  0.00    +0.000 N 
ATOM     32  C   UNL     1      51.197   1.811  17.126  0.00  0.00    +0.000 A 
ATOM     33  O   UNL     1      50.168   1.879  16.464  0.00  0.00    +0.000 OA
ATOM     34  C   UNL     1      51.818   2.952  17.771  0.00  0.00    +0.000 A 
ATOM     35  H   UNL     1      51.430  -0.195  16.899  0.00  0.00    +0.000 HD
ENDBRANCH  22  25
ENDBRANCH  20  21
ENDBRANCH   2  20
TORSDOF 7
ENDMDL
MODEL 2
REMARK VINA RESULT:    -8.053      3.490      4.691
REMARK INTER + INTRA:         -12.468
REMARK INTER:                 -11.407
REMARK INTRA:                  -1.061
REMARK UNBOUND:                -1.119
REMARK  Name = 
REMARK  7 active torsions:
REMARK  status: ('A' for Active; 'I' for Inactive)
REMARK    1  A    between atoms: C_2  and  C_3
REMARK    2  A    between atoms: C_2  and  C_17
REMARK    3  A    between atoms: C_3  and  N_4
REMARK    4  A    between atoms: C_5  and  C_7
REMARK    5  A    between atoms: C_20  and  C_21
REMARK    6  A    between atoms: C_21  and  N_22
REMARK    7  A    between atoms: C_23  and  C_25
REMARK                            x       y       z     vdW  Elec       q    Type
REMARK                         _______ _______ _______ _____ _____    ______ ____
ROOT
ATOM      1  O   UNL     1      47.862   2.903  14.980  0.00  0.00    +0.000 OA
ATOM      2  C   UNL     1      47.173   3.926  14.962  0.00  0.00    +0.000 C 
ENDROOT
BRANCH   2   3
ATOM      3  C   UNL     1      46.279   4.188  13.792  0.00  0.00    +0.000 A 
ATOM      4  C   UNL     1      45.915   3.105  12.979  0.00  0.00    +0.000 A 
ATOM      5  C   UNL     1      45.111   3.297  11.852  0.00  0.00    +0.000 A 
ATOM      6  C   UNL     1      44.662   4.580  11.510  0.00  0.00    +0.000 A 
ATOM      7  C   UNL     1      45.010   5.658  12.335  0.00  0.00    +0.000 A 
ATOM      8  C   UNL     1      45.819   5.464  13.462  0.00  0.00    +0.000 A 
BRANCH   6   9
ATOM      9  C   UNL     1      43.836   4.812  10.272  0.00  0.00    +0.000 C 
BRANCH   9  10
ATOM     10  N   UNL     1      44.273   4.005   9.162  0.00  0.00    +0.000 N 
ATOM     11  C   UNL     1      45.408   4.327   8.452  0.00  0.00    +0.000 C 
ATOM     12  O   UNL     1      46.124   5.286   8.730  0.00  0.00    +0.000 OA
ATOM     13  H   UNL     1      43.645   3.343   8.712  0.00  0.00    +0.000 HD
BRANCH  11  14
ATOM     14  C   UNL     1      45.741   3.360   7.307  0.00  0.00    +0.000 C 
ATOM     15  C   UNL     1      46.398   2.080   7.783  0.00  0.00    +0.000 C 
ATOM     16  C   UNL     1      47.034   1.545   6.513  0.00  0.00    +0.000 C 
ATOM     17  C   UNL     1      47.372   2.785   5.696  0.00  0.00    +0.000 C 
ATOM     18  N   UNL     1      46.744   3.927   6.369  0.00  0.00    +0.000 NA
ATOM     19  H   UNL     1      46.265   4.515   5.687  0.00  0.00    +0.000 HD
ENDBRANCH  11  14
ENDBRANCH   9  10
ENDBRANCH   6   9
ENDBRANCH   2   3
BRANCH   2  20
ATOM     20  C   UNL     1      47.288   4.958  16.075  0.00  0.00    +0.000 C 
BRANCH  20  21
ATOM     21  N   UNL     1      48.008   6.116  15.587  0.00  0.00    +0.000 N 
ATOM     22  C   UNL     1      49.322   6.349  15.900  0.00  0.00    +0.000 C 
ATOM     23  O   UNL     1      49.976   5.564  16.581  0.00  0.00    +0.000 OA
ATOM     24  H   UNL     1      47.451   6.849  15.154  0.00  0.00    +0.000 HD
BRANCH  22  25
ATOM     25  C   UNL     1      49.930   7.559  15.338  0.00  0.00    +0.000 A 
ATOM     26  C   UNL     1      50.504   8.497  16.185  0.00  0.00    +0.000 A 
ATOM     27  S   UNL     1      51.179   9.834  15.369  0.00  0.00    +0.000 S 
ATOM     28  C   UNL     1      50.685   9.227  13.856  0.00  0.00    +0.000 A 
ATOM     29  N   UNL     1      50.932   9.919  12.712  0.00  0.00    +0.000 NA
ATOM     30  C   UNL     1      50.467   9.362  11.642  0.00  0.00    +0.000 A 
ATOM     31  N   UNL     1      49.791   8.168  11.615  0.00  0.00    +0.000 N 
ATOM     32  C   UNL     1      49.561   7.414  12.740  0.00  0.00    +0.000 A 
ATOM     33  O   UNL     1      49.019   6.317  12.679  0.00  0.00    +0.000 OA
ATOM     34  C   UNL     1      50.038   8.011  13.973  0.00  0.00    +0.000 A 
ATOM     35  H   UNL     1      49.469   7.777  10.742  0.00  0.00    +0.000 HD
ENDBRANCH  22  25
ENDBRANCH  20  21
ENDBRANCH   2  20
TORSDOF 7
ENDMDL
MODEL 3
REMARK VINA RESULT:    -7.863      2.759      3.563
REMARK INTER + INTRA:         -12.200
REMARK INTER:                 -10.882
REMARK INTRA:                  -1.317
REMARK UNBOUND:                -1.119
REMARK  Name = 
REMARK  7 active torsions:
REMARK  status: ('A' for Active; 'I' for Inactive)
REMARK    1  A    between atoms: C_2  and  C_3
REMARK    2  A    between atoms: C_2  and  C_17
REMARK    3  A    between atoms: C_3  and  N_4
REMARK    4  A    between atoms: C_5  and  C_7
REMARK    5  A    between atoms: C_20  and  C_21
REMARK    6  A    between atoms: C_21  and  N_22
REMARK    7  A    between atoms: C_23  and  C_25
REMARK                            x       y       z     vdW  Elec       q    Type
REMARK                         _______ _______ _______ _____ _____    ______ ____
ROOT
ATOM      1  O   UNL     1      49.379   9.078  12.722  0.00  0.00    +0.000 OA
ATOM      2  C   UNL     1      48.394   8.804  13.414  0.00  0.00    +0.000 C 
ENDROOT
BRANCH   2   3
ATOM      3  C   UNL     1      47.278   8.007  12.819  0.00  0.00    +0.000 A 
ATOM      4  C   UNL     1      47.603   6.952  11.955  0.00  0.00    +0.000 A 
ATOM      5  C   UNL     1      46.599   6.195  11.342  0.00  0.00    +0.000 A 
ATOM      6  C   UNL     1      45.249   6.487  11.576  0.00  0.00    +0.000 A 
ATOM      7  C   UNL     1      44.926   7.528  12.456  0.00  0.00    +0.000 A 
ATOM      8  C   UNL     1      45.933   8.287  13.066  0.00  0.00    +0.000 A 
BRANCH   6   9
ATOM      9  C   UNL     1      44.155   5.715  10.885  0.00  0.00    +0.000 C 
BRANCH   9  10
ATOM     10  N   UNL     1      44.630   5.008   9.725  0.00  0.00    +0.000 N 
ATOM     11  C   UNL     1      44.427   3.652   9.585  0.00  0.00    +0.000 C 
ATOM     12  O   UNL     1      43.816   2.977  10.409  0.00  0.00    +0.000 OA
ATOM     13  H   UNL     1      45.333   5.413   9.111  0.00  0.00    +0.000 HD
BRANCH  11  14
ATOM     14  C   UNL     1      44.985   3.055   8.286  0.00  0.00    +0.000 C 
ATOM     15  C   UNL     1      45.882   1.856   8.520  0.00  0.00    +0.000 C 
ATOM     16  C   UNL     1      46.650   1.760   7.214  0.00  0.00    +0.000 C 
ATOM     17  C   UNL     1      46.742   3.194   6.711  0.00  0.00    +0.000 C 
ATOM     18  N   UNL     1      45.872   4.006   7.568  0.00  0.00    +0.000 NA
ATOM     19  H   UNL     1      45.298   4.627   6.995  0.00  0.00    +0.000 HD
ENDBRANCH  11  14
ENDBRANCH   9  10
ENDBRANCH   6   9
ENDBRANCH   2   3
BRANCH   2  20
ATOM     20  C   UNL     1      48.272   9.341  14.833  0.00  0.00    +0.000 C 
BRANCH  20  21
ATOM     21  N   UNL     1      48.285   8.236  15.769  0.00  0.00    +0.000 N 
ATOM     22  C   UNL     1      49.446   7.626  16.169  0.00  0.00    +0.000 C 
ATOM     23  O   UNL     1      50.547   8.013  15.786  0.00  0.00    +0.000 OA
ATOM     24  H   UNL     1      47.387   7.805  15.978  0.00  0.00    +0.000 HD
BRANCH  22  25
ATOM     25  C   UNL     1      49.316   6.520  17.123  0.00  0.00    +0.000 A 
ATOM     26  C   UNL     1      49.969   6.588  18.347  0.00  0.00    +0.000 A 
ATOM     27  S   UNL     1      49.700   5.230  19.341  0.00  0.00    +0.000 S 
ATOM     28  C   UNL     1      48.740   4.481  18.151  0.00  0.00    +0.000 A 
ATOM     29  N   UNL     1      48.205   3.248  18.358  0.00  0.00    +0.000 NA
ATOM     30  C   UNL     1      47.532   2.784  17.356  0.00  0.00    +0.000 A 
ATOM     31  N   UNL     1      47.336   3.450  16.173  0.00  0.00    +0.000 N 
ATOM     32  C   UNL     1      47.819   4.715  15.938  0.00  0.00    +0.000 A 
ATOM     33  O   UNL     1      47.568   5.317  14.900  0.00  0.00    +0.000 OA
ATOM     34  C   UNL     1      48.607   5.269  17.022  0.00  0.00    +0.000 A 
ATOM     35  H   UNL     1      46.783   3.040  15.434  0.00  0.00    +0.000 HD
ENDBRANCH  22  25
ENDBRANCH  20  21
ENDBRANCH   2  20
TORSDOF 7
ENDMDL
MODEL 4
REMARK VINA RESULT:    -7.332      3.047      3.783
REMARK INTER + INTRA:         -11.451
REMARK INTER:                 -10.347
REMARK INTRA:                  -1.104
REMARK UNBOUND:                -1.119
REMARK  Name = 
REMARK  7 active torsions:
REMARK  status: ('A' for Active; 'I' for Inactive)
REMARK    1  A    between atoms: C_2  and  C_3
REMARK    2  A    between atoms: C_2  and  C_17
REMARK    3  A    between atoms: C_3  and  N_4
REMARK    4  A    between atoms: C_5  and  C_7
REMARK    5  A    between atoms: C_20  and  C_21
REMARK    6  A    between atoms: C_21  and  N_22
REMARK    7  A    between atoms: C_23  and  C_25
REMARK                            x       y       z     vdW  Elec       q    Type
REMARK                         _______ _______ _______ _____ _____    ______ ____
ROOT
ATOM      1  O   UNL     1      48.294   2.863  15.499  0.00  0.00    +0.000 OA
ATOM      2  C   UNL     1      47.445   3.752  15.598  0.00  0.00    +0.000 C 
ENDROOT
BRANCH   2   3
ATOM      3  C   UNL     1      46.926   4.413  14.361  0.00  0.00    +0.000 A 
ATOM      4  C   UNL     1      45.895   3.779  13.652  0.00  0.00    +0.000 A 
ATOM      5  C   UNL     1      45.397   4.334  12.469  0.00  0.00    +0.000 A 
ATOM      6  C   UNL     1      45.928   5.529  11.967  0.00  0.00    +0.000 A 
ATOM      7  C   UNL     1      46.944   6.170  12.687  0.00  0.00    +0.000 A 
ATOM      8  C   UNL     1      47.445   5.612  13.870  0.00  0.00    +0.000 A 
BRANCH   6   9
ATOM      9  C   UNL     1      45.438   6.113  10.668  0.00  0.00    +0.000 C 
BRANCH   9  10
ATOM     10  N   UNL     1      45.826   5.323   9.528  0.00  0.00    +0.000 N 
ATOM     11  C   UNL     1      44.978   4.375   8.998  0.00  0.00    +0.000 C 
ATOM     12  O   UNL     1      43.850   4.165   9.435  0.00  0.00    +0.000 OA
ATOM     13  H   UNL     1      46.800   5.252   9.243  0.00  0.00    +0.000 HD
BRANCH  11  14
ATOM     14  C   UNL     1      45.539   3.629   7.780  0.00  0.00    +0.000 C 
ATOM     15  C   UNL     1      45.976   2.213   8.099  0.00  0.00    +0.000 C 
ATOM     16  C   UNL     1      46.887   1.879   6.932  0.00  0.00    +0.000 C 
ATOM     17  C   UNL     1      47.495   3.213   6.519  0.00  0.00    +0.000 C 
ATOM     18  N   UNL     1      46.781   4.258   7.261  0.00  0.00    +0.000 NA
ATOM     19  H   UNL     1      46.528   5.022   6.634  0.00  0.00    +0.000 HD
ENDBRANCH  11  14
ENDBRANCH   9  10
ENDBRANCH   6   9
ENDBRANCH   2   3
BRANCH   2  20
ATOM     20  C   UNL     1      46.984   4.235  16.966  0.00  0.00    +0.000 C 
BRANCH  20  21
ATOM     21  N   UNL     1      47.682   5.457  17.305  0.00  0.00    +0.000 N 
ATOM     22  C   UNL     1      48.478   5.564  18.416  0.00  0.00    +0.000 C 
ATOM     23  O   UNL     1      48.679   4.611  19.164  0.00  0.00    +0.000 OA
ATOM     24  H   UNL     1      47.412   6.293  16.791  0.00  0.00    +0.000 HD
BRANCH  22  25
ATOM     25  C   UNL     1      49.128   6.859  18.641  0.00  0.00    +0.000 A 
ATOM     26  C   UNL     1      48.900   7.545  19.826  0.00  0.00    +0.000 A 
ATOM     27  S   UNL     1      49.743   9.024  19.934  0.00  0.00    +0.000 S 
ATOM     28  C   UNL     1      50.404   8.821  18.378  0.00  0.00    +0.000 A 
ATOM     29  N   UNL     1      51.217   9.767  17.836  0.00  0.00    +0.000 NA
ATOM     30  C   UNL     1      51.615   9.503  16.635  0.00  0.00    +0.000 A 
ATOM     31  N   UNL     1      51.283   8.370  15.935  0.00  0.00    +0.000 N 
ATOM     32  C   UNL     1      50.504   7.367  16.460  0.00  0.00    +0.000 A 
ATOM     33  O   UNL     1      50.283   6.333  15.842  0.00  0.00    +0.000 OA
ATOM     34  C   UNL     1      50.007   7.631  17.797  0.00  0.00    +0.000 A 
ATOM     35  H   UNL     1      51.643   8.213  15.005  0.00  0.00    +0.000 HD
ENDBRANCH  22  25
ENDBRANCH  20  21
ENDBRANCH   2  20
TORSDOF 7
ENDMDL
MODEL 5
REMARK VINA RESULT:    -7.249      2.922      9.196
REMARK INTER + INTRA:         -11.334
REMARK INTER:                 -11.392
REMARK INTRA:                   0.058
REMARK UNBOUND:                -1.119
REMARK  Name = 
REMARK  7 active torsions:
REMARK  status: ('A' for Active; 'I' for Inactive)
REMARK    1  A    between atoms: C_2  and  C_3
REMARK    2  A    between atoms: C_2  and  C_17
REMARK    3  A    between atoms: C_3  and  N_4
REMARK    4  A    between atoms: C_5  and  C_7
REMARK    5  A    between atoms: C_20  and  C_21
REMARK    6  A    between atoms: C_21  and  N_22
REMARK    7  A    between atoms: C_23  and  C_25
REMARK                            x       y       z     vdW  Elec       q    Type
REMARK                         _______ _______ _______ _____ _____    ______ ____
ROOT
ATOM      1  O   UNL     1      49.049   8.343  13.311  0.00  0.00    +0.000 OA
ATOM      2  C   UNL     1      48.031   7.655  13.417  0.00  0.00    +0.000 C 
ENDROOT
BRANCH   2   3
ATOM      3  C   UNL     1      47.995   6.543  14.416  0.00  0.00    +0.000 A 
ATOM      4  C   UNL     1      47.257   5.393  14.104  0.00  0.00    +0.000 A 
ATOM      5  C   UNL     1      47.160   4.338  15.017  0.00  0.00    +0.000 A 
ATOM      6  C   UNL     1      47.793   4.417  16.264  0.00  0.00    +0.000 A 
ATOM      7  C   UNL     1      48.546   5.559  16.566  0.00  0.00    +0.000 A 
ATOM      8  C   UNL     1      48.640   6.617  15.652  0.00  0.00    +0.000 A 
BRANCH   6   9
ATOM      9  C   UNL     1      47.657   3.312  17.278  0.00  0.00    +0.000 C 
BRANCH   9  10
ATOM     10  N   UNL     1      48.928   2.898  17.813  0.00  0.00    +0.000 N 
ATOM     11  C   UNL     1      49.804   2.144  17.063  0.00  0.00    +0.000 C 
ATOM     12  O   UNL     1      49.576   1.807  15.904  0.00  0.00    +0.000 OA
ATOM     13  H   UNL     1      49.112   2.921  18.813  0.00  0.00    +0.000 HD
BRANCH  11  14
ATOM     14  C   UNL     1      51.118   1.797  17.775  0.00  0.00    +0.000 C 
ATOM     15  C   UNL     1      52.129   2.925  17.742  0.00  0.00    +0.000 C 
ATOM     16  C   UNL     1      53.431   2.211  18.054  0.00  0.00    +0.000 C 
ATOM     17  C   UNL     1      53.246   0.806  17.496  0.00  0.00    +0.000 C 
ATOM     18  N   UNL     1      51.837   0.679  17.110  0.00  0.00    +0.000 NA
ATOM     19  H   UNL     1      51.459  -0.206  17.448  0.00  0.00    +0.000 HD
ENDBRANCH  11  14
ENDBRANCH   9  10
ENDBRANCH   6   9
ENDBRANCH   2   3
BRANCH   2  20
ATOM     20  C   UNL     1      46.848   7.875  12.485  0.00  0.00    +0.000 C 
BRANCH  20  21
ATOM     21  N   UNL     1      46.293   6.595  12.099  0.00  0.00    +0.000 N 
ATOM     22  C   UNL     1      45.012   6.460  11.631  0.00  0.00    +0.000 C 
ATOM     23  O   UNL     1      44.273   7.429  11.474  0.00  0.00    +0.000 OA
ATOM     24  H   UNL     1      46.827   5.769  12.361  0.00  0.00    +0.000 HD
BRANCH  22  25
ATOM     25  C   UNL     1      44.577   5.106  11.274  0.00  0.00    +0.000 A 
ATOM     26  C   UNL     1      43.764   4.393  12.145  0.00  0.00    +0.000 A 
ATOM     27  S   UNL     1      43.339   2.845  11.570  0.00  0.00    +0.000 S 
ATOM     28  C   UNL     1      44.266   3.055  10.158  0.00  0.00    +0.000 A 
ATOM     29  N   UNL     1      44.358   2.067   9.228  0.00  0.00    +0.000 NA
ATOM     30  C   UNL     1      45.126   2.347   8.227  0.00  0.00    +0.000 A 
ATOM     31  N   UNL     1      45.799   3.532   8.067  0.00  0.00    +0.000 N 
ATOM     32  C   UNL     1      45.699   4.574   8.958  0.00  0.00    +0.000 A 
ATOM     33  O   UNL     1      46.252   5.648   8.755  0.00  0.00    +0.000 OA
ATOM     34  C   UNL     1      44.870   4.298  10.115  0.00  0.00    +0.000 A 
ATOM     35  H   UNL     1      46.370   3.696   7.251  0.00  0.00    +0.000 HD
ENDBRANCH  22  25
ENDBRANCH  20  21
ENDBRANCH   2  20
TORSDOF 7
ENDMDL
MODEL 6
REMARK VINA RESULT:    -6.889      4.591      5.563
REMARK INTER + INTRA:         -10.828
REMARK INTER:                 -10.003
REMARK INTRA:                  -0.825
REMARK UNBOUND:                -1.119
REMARK  Name = 
REMARK  7 active torsions:
REMARK  status: ('A' for Active; 'I' for Inactive)
REMARK    1  A    between atoms: C_2  and  C_3
REMARK    2  A    between atoms: C_2  and  C_17
REMARK    3  A    between atoms: C_3  and  N_4
REMARK    4  A    between atoms: C_5  and  C_7
REMARK    5  A    between atoms: C_20  and  C_21
REMARK    6  A    between atoms: C_21  and  N_22
REMARK    7  A    between atoms: C_23  and  C_25
REMARK                            x       y       z     vdW  Elec       q    Type
REMARK                         _______ _______ _______ _____ _____    ______ ____
ROOT
ATOM      1  O   UNL     1      48.346   5.402  14.878  0.00  0.00    +0.000 OA
ATOM      2  C   UNL     1      47.768   6.276  14.228  0.00  0.00    +0.000 C 
ENDROOT
BRANCH   2   3
ATOM      3  C   UNL     1      46.747   5.880  13.210  0.00  0.00    +0.000 A 
ATOM      4  C   UNL     1      46.301   4.550  13.200  0.00  0.00    +0.000 A 
ATOM      5  C   UNL     1      45.374   4.115  12.248  0.00  0.00    +0.000 A 
ATOM      6  C   UNL     1      44.882   5.001  11.280  0.00  0.00    +0.000 A 
ATOM      7  C   UNL     1      45.313   6.333  11.305  0.00  0.00    +0.000 A 
ATOM      8  C   UNL     1      46.245   6.767  12.256  0.00  0.00    +0.000 A 
BRANCH   6   9
ATOM      9  C   UNL     1      43.921   4.536  10.217  0.00  0.00    +0.000 C 
BRANCH   9  10
ATOM     10  N   UNL     1      44.527   3.611   9.295  0.00  0.00    +0.000 N 
ATOM     11  C   UNL     1      45.479   4.029   8.391  0.00  0.00    +0.000 C 
ATOM     12  O   UNL     1      45.885   5.186   8.331  0.00  0.00    +0.000 OA
ATOM     13  H   UNL     1      44.107   2.704   9.105  0.00  0.00    +0.000 HD
BRANCH  11  14
ATOM     14  C   UNL     1      46.033   2.917   7.489  0.00  0.00    +0.000 C 
ATOM     15  C   UNL     1      46.242   1.606   8.220  0.00  0.00    +0.000 C 
ATOM     16  C   UNL     1      47.194   0.864   7.301  0.00  0.00    +0.000 C 
ATOM     17  C   UNL     1      48.013   1.956   6.627  0.00  0.00    +0.000 C 
ATOM     18  N   UNL     1      47.390   3.238   6.975  0.00  0.00    +0.000 NA
ATOM     19  H   UNL     1      47.300   3.821   6.143  0.00  0.00    +0.000 HD
ENDBRANCH  11  14
ENDBRANCH   9  10
ENDBRANCH   6   9
ENDBRANCH   2   3
BRANCH   2  20
ATOM     20  C   UNL     1      48.145   7.742  14.393  0.00  0.00    +0.000 C 
BRANCH  20  21
ATOM     21  N   UNL     1      49.289   8.043  13.560  0.00  0.00    +0.000 N 
ATOM     22  C   UNL     1      49.621   9.324  13.203  0.00  0.00    +0.000 C 
ATOM     23  O   UNL     1      48.987  10.296  13.609  0.00  0.00    +0.000 OA
ATOM     24  H   UNL     1      49.732   7.255  13.093  0.00  0.00    +0.000 HD
BRANCH  22  25
ATOM     25  C   UNL     1      50.806   9.488  12.356  0.00  0.00    +0.000 A 
ATOM     26  C   UNL     1      50.689  10.123  11.126  0.00  0.00    +0.000 A 
ATOM     27  S   UNL     1      52.163  10.245  10.277  0.00  0.00    +0.000 S 
ATOM     28  C   UNL     1      53.000   9.411  11.503  0.00  0.00    +0.000 A 
ATOM     29  N   UNL     1      54.329   9.146  11.385  0.00  0.00    +0.000 NA
ATOM     30  C   UNL     1      54.826   8.472  12.370  0.00  0.00    +0.000 A 
ATOM     31  N   UNL     1      54.116   8.053  13.466  0.00  0.00    +0.000 N 
ATOM     32  C   UNL     1      52.784   8.337  13.648  0.00  0.00    +0.000 A 
ATOM     33  O   UNL     1      52.191   8.014  14.670  0.00  0.00    +0.000 OA
ATOM     34  C   UNL     1      52.171   9.068  12.555  0.00  0.00    +0.000 A 
ATOM     35  H   UNL     1      54.569   7.545  14.212  0.00  0.00    +0.000 HD
ENDBRANCH  22  25
ENDBRANCH  20  21
ENDBRANCH   2  20
TORSDOF 7
ENDMDL
MODEL 7
REMARK VINA RESULT:    -6.887      3.849      7.144
REMARK INTER + INTRA:         -10.824
REMARK INTER:                  -9.482
REMARK INTRA:                  -1.342
REMARK UNBOUND:                -1.119
REMARK  Name = 
REMARK  7 active torsions:
REMARK  status: ('A' for Active; 'I' for Inactive)
REMARK    1  A    between atoms: C_2  and  C_3
REMARK    2  A    between atoms: C_2  and  C_17
REMARK    3  A    between atoms: C_3  and  N_4
REMARK    4  A    between atoms: C_5  and  C_7
REMARK    5  A    between atoms: C_20  and  C_21
REMARK    6  A    between atoms: C_21  and  N_22
REMARK    7  A    between atoms: C_23  and  C_25
REMARK                            x       y       z     vdW  Elec       q    Type
REMARK                         _______ _______ _______ _____ _____    ______ ____
ROOT
ATOM      1  O   UNL     1      44.884   5.185  10.679  0.00  0.00    +0.000 OA
ATOM      2  C   UNL     1      45.289   5.562  11.782  0.00  0.00    +0.000 C 
ENDROOT
BRANCH   2   3
ATOM      3  C   UNL     1      45.944   6.900  11.905  0.00  0.00    +0.000 A 
ATOM      4  C   UNL     1      47.340   6.969  11.793  0.00  0.00    +0.000 A 
ATOM      5  C   UNL     1      48.009   8.189  11.936  0.00  0.00    +0.000 A 
ATOM      6  C   UNL     1      47.293   9.363  12.202  0.00  0.00    +0.000 A 
ATOM      7  C   UNL     1      45.897   9.296  12.294  0.00  0.00    +0.000 A 
ATOM      8  C   UNL     1      45.229   8.072  12.155  0.00  0.00    +0.000 A 
BRANCH   6   9
ATOM      9  C   UNL     1      48.001  10.677  12.409  0.00  0.00    +0.000 C 
BRANCH   9  10
ATOM     10  N   UNL     1      48.146  11.010  13.801  0.00  0.00    +0.000 N 
ATOM     11  C   UNL     1      49.349  10.842  14.452  0.00  0.00    +0.000 C 
ATOM     12  O   UNL     1      50.362  10.433  13.892  0.00  0.00    +0.000 OA
ATOM     13  H   UNL     1      47.334  11.131  14.402  0.00  0.00    +0.000 HD
BRANCH  11  14
ATOM     14  C   UNL     1      49.337  11.256  15.930  0.00  0.00    +0.000 C 
ATOM     15  C   UNL     1      50.420  10.578  16.746  0.00  0.00    +0.000 C 
ATOM     16  C   UNL     1      49.922  10.757  18.168  0.00  0.00    +0.000 C 
ATOM     17  C   UNL     1      48.404  10.775  18.048  0.00  0.00    +0.000 C 
ATOM     18  N   UNL     1      48.087  10.841  16.618  0.00  0.00    +0.000 NA
ATOM     19  H   UNL     1      47.368  11.545  16.451  0.00  0.00    +0.000 HD
ENDBRANCH  11  14
ENDBRANCH   9  10
ENDBRANCH   6   9
ENDBRANCH   2   3
BRANCH   2  20
ATOM     20  C   UNL     1      45.203   4.645  12.994  0.00  0.00    +0.000 C 
BRANCH  20  21
ATOM     21  N   UNL     1      46.034   5.170  14.056  0.00  0.00    +0.000 N 
ATOM     22  C   UNL     1      47.050   4.444  14.621  0.00  0.00    +0.000 C 
ATOM     23  O   UNL     1      47.340   3.318  14.226  0.00  0.00    +0.000 OA
ATOM     24  H   UNL     1      45.718   6.031  14.498  0.00  0.00    +0.000 HD
BRANCH  22  25
ATOM     25  C   UNL     1      47.816   5.097  15.687  0.00  0.00    +0.000 A 
ATOM     26  C   UNL     1      48.520   6.263  15.414  0.00  0.00    +0.000 A 
ATOM     27  S   UNL     1      49.340   6.900  16.766  0.00  0.00    +0.000 S 
ATOM     28  C   UNL     1      48.821   5.614  17.754  0.00  0.00    +0.000 A 
ATOM     29  N   UNL     1      49.203   5.536  19.057  0.00  0.00    +0.000 NA
ATOM     30  C   UNL     1      48.769   4.488  19.677  0.00  0.00    +0.000 A 
ATOM     31  N   UNL     1      47.976   3.521  19.114  0.00  0.00    +0.000 N 
ATOM     32  C   UNL     1      47.529   3.583  17.816  0.00  0.00    +0.000 A 
ATOM     33  O   UNL     1      46.762   2.743  17.358  0.00  0.00    +0.000 OA
ATOM     34  C   UNL     1      48.013   4.726  17.067  0.00  0.00    +0.000 A 
ATOM     35  H   UNL     1      47.654   2.734  19.659  0.00  0.00    +0.000 HD
ENDBRANCH  22  25
ENDBRANCH  20  21
ENDBRANCH   2  20
TORSDOF 7
ENDMDL
MODEL 8
REMARK VINA RESULT:    -6.796      4.131      6.651
REMARK INTER + INTRA:         -10.697
REMARK INTER:                  -8.238
REMARK INTRA:                  -2.459
REMARK UNBOUND:                -1.119
REMARK  Name = 
REMARK  7 active torsions:
REMARK  status: ('A' for Active; 'I' for Inactive)
REMARK    1  A    between atoms: C_2  and  C_3
REMARK    2  A    between atoms: C_2  and  C_17
REMARK    3  A    between atoms: C_3  and  N_4
REMARK    4  A    between atoms: C_5  and  C_7
REMARK    5  A    between atoms: C_20  and  C_21
REMARK    6  A    between atoms: C_21  and  N_22
REMARK    7  A    between atoms: C_23  and  C_25
REMARK                            x       y       z     vdW  Elec       q    Type
REMARK                         _______ _______ _______ _____ _____    ______ ____
ROOT
ATOM      1  O   UNL     1      44.142   5.805  12.131  0.00  0.00    +0.000 OA
ATOM      2  C   UNL     1      45.277   5.780  12.615  0.00  0.00    +0.000 C 
ENDROOT
BRANCH   2   3
ATOM      3  C   UNL     1      46.187   6.950  12.413  0.00  0.00    +0.000 A 
ATOM      4  C   UNL     1      47.356   6.759  11.663  0.00  0.00    +0.000 A 
ATOM      5  C   UNL     1      48.261   7.808  11.473  0.00  0.00    +0.000 A 
ATOM      6  C   UNL     1      48.017   9.067  12.037  0.00  0.00    +0.000 A 
ATOM      7  C   UNL     1      46.838   9.261  12.769  0.00  0.00    +0.000 A 
ATOM      8  C   UNL     1      45.935   8.208  12.962  0.00  0.00    +0.000 A 
BRANCH   6   9
ATOM      9  C   UNL     1      49.006  10.193  11.884  0.00  0.00    +0.000 C 
BRANCH   9  10
ATOM     10  N   UNL     1      50.313   9.848  12.378  0.00  0.00    +0.000 N 
ATOM     11  C   UNL     1      50.605   9.914  13.723  0.00  0.00    +0.000 C 
ATOM     12  O   UNL     1      49.779  10.236  14.573  0.00  0.00    +0.000 OA
ATOM     13  H   UNL     1      51.116   9.797  11.756  0.00  0.00    +0.000 HD
BRANCH  11  14
ATOM     14  C   UNL     1      52.038   9.502  14.085  0.00  0.00    +0.000 C 
ATOM     15  C   UNL     1      53.065   9.972  13.075  0.00  0.00    +0.000 C 
ATOM     16  C   UNL     1      54.255   9.079  13.375  0.00  0.00    +0.000 C 
ATOM     17  C   UNL     1      53.647   7.781  13.888  0.00  0.00    +0.000 C 
ATOM     18  N   UNL     1      52.214   8.027  14.085  0.00  0.00    +0.000 NA
ATOM     19  H   UNL     1      51.916   7.658  14.988  0.00  0.00    +0.000 HD
ENDBRANCH  11  14
ENDBRANCH   9  10
ENDBRANCH   6   9
ENDBRANCH   2   3
BRANCH   2  20
ATOM     20  C   UNL     1      45.783   4.541  13.340  0.00  0.00    +0.000 C 
BRANCH  20  21
ATOM     21  N   UNL     1      46.415   4.934  14.581  0.00  0.00    +0.000 N 
ATOM     22  C   UNL     1      47.293   4.119  15.249  0.00  0.00    +0.000 C 
ATOM     23  O   UNL     1      47.625   3.022  14.806  0.00  0.00    +0.000 OA
ATOM     24  H   UNL     1      46.043   5.763  15.040  0.00  0.00    +0.000 HD
BRANCH  22  25
ATOM     25  C   UNL     1      47.862   4.641  16.495  0.00  0.00    +0.000 A 
ATOM     26  C   UNL     1      47.527   4.047  17.705  0.00  0.00    +0.000 A 
ATOM     27  S   UNL     1      48.288   4.764  19.052  0.00  0.00    +0.000 S 
ATOM     28  C   UNL     1      49.054   5.925  18.070  0.00  0.00    +0.000 A 
ATOM     29  N   UNL     1      49.851   6.884  18.613  0.00  0.00    +0.000 NA
ATOM     30  C   UNL     1      50.335   7.721  17.756  0.00  0.00    +0.000 A 
ATOM     31  N   UNL     1      50.104   7.676  16.404  0.00  0.00    +0.000 N 
ATOM     32  C   UNL     1      49.344   6.699  15.807  0.00  0.00    +0.000 A 
ATOM     33  O   UNL     1      49.213   6.639  14.591  0.00  0.00    +0.000 OA
ATOM     34  C   UNL     1      48.753   5.750  16.731  0.00  0.00    +0.000 A 
ATOM     35  H   UNL     1      50.528   8.351  15.784  0.00  0.00    +0.000 HD
ENDBRANCH  22  25
ENDBRANCH  20  21
ENDBRANCH   2  20
TORSDOF 7
ENDMDL
MODEL 9
REMARK VINA RESULT:    -6.111      2.192      2.782
REMARK INTER + INTRA:          -9.731
REMARK INTER:                  -8.946
REMARK INTRA:                  -0.785
REMARK UNBOUND:                -1.119
REMARK  Name = 
REMARK  7 active torsions:
REMARK  status: ('A' for Active; 'I' for Inactive)
REMARK    1  A    between atoms: C_2  and  C_3
REMARK    2  A    between atoms: C_2  and  C_17
REMARK    3  A    between atoms: C_3  and  N_4
REMARK    4  A    between atoms: C_5  and  C_7
REMARK    5  A    between atoms: C_20  and  C_21
REMARK    6  A    between atoms: C_21  and  N_22
REMARK    7  A    between atoms: C_23  and  C_25
REMARK                            x       y       z     vdW  Elec       q    Type
REMARK                         _______ _______ _______ _____ _____    ______ ____
ROOT
ATOM      1  O   UNL     1      47.800   4.447  15.589  0.00  0.00    +0.000 OA
ATOM      2  C   UNL     1      47.580   5.348  14.775  0.00  0.00    +0.000 C 
ENDROOT
BRANCH   2   3
ATOM      3  C   UNL     1      46.692   5.077  13.602  0.00  0.00    +0.000 A 
ATOM      4  C   UNL     1      46.234   6.169  12.850  0.00  0.00    +0.000 A 
ATOM      5  C   UNL     1      45.372   5.977  11.766  0.00  0.00    +0.000 A 
ATOM      6  C   UNL     1      44.944   4.689  11.419  0.00  0.00    +0.000 A 
ATOM      7  C   UNL     1      45.418   3.598  12.159  0.00  0.00    +0.000 A 
ATOM      8  C   UNL     1      46.278   3.792  13.248  0.00  0.00    +0.000 A 
BRANCH   6   9
ATOM      9  C   UNL     1      43.976   4.469  10.285  0.00  0.00    +0.000 C 
BRANCH   9  10
ATOM     10  N   UNL     1      44.523   3.631   9.251  0.00  0.00    +0.000 N 
ATOM     11  C   UNL     1      45.499   4.099   8.397  0.00  0.00    +0.000 C 
ATOM     12  O   UNL     1      45.976   5.228   8.479  0.00  0.00    +0.000 OA
ATOM     13  H   UNL     1      44.048   2.783   8.952  0.00  0.00    +0.000 HD
BRANCH  11  14
ATOM     14  C   UNL     1      45.982   3.077   7.360  0.00  0.00    +0.000 C 
ATOM     15  C   UNL     1      46.318   1.729   7.964  0.00  0.00    +0.000 C 
ATOM     16  C   UNL     1      47.182   1.092   6.891  0.00  0.00    +0.000 C 
ATOM     17  C   UNL     1      47.882   2.262   6.212  0.00  0.00    +0.000 C 
ATOM     18  N   UNL     1      47.260   3.489   6.722  0.00  0.00    +0.000 NA
ATOM     19  H   UNL     1      47.055   4.125   5.950  0.00  0.00    +0.000 HD
ENDBRANCH  11  14
ENDBRANCH   9  10
ENDBRANCH   6   9
ENDBRANCH   2   3
BRANCH   2  20
ATOM     20  C   UNL     1      48.268   6.699  14.909  0.00  0.00    +0.000 C 
BRANCH  20  21
ATOM     21  N   UNL     1      48.815   6.831  16.242  0.00  0.00    +0.000 N 
ATOM     22  C   UNL     1      50.154   7.014  16.472  0.00  0.00    +0.000 C 
ATOM     23  O   UNL     1      50.962   7.120  15.552  0.00  0.00    +0.000 OA
ATOM     24  H   UNL     1      48.195   6.596  17.015  0.00  0.00    +0.000 HD
BRANCH  22  25
ATOM     25  C   UNL     1      50.574   7.134  17.872  0.00  0.00    +0.000 A 
ATOM     26  C   UNL     1      50.614   8.385  18.473  0.00  0.00    +0.000 A 
ATOM     27  S   UNL     1      51.107   8.345  20.104  0.00  0.00    +0.000 S 
ATOM     28  C   UNL     1      51.331   6.658  20.051  0.00  0.00    +0.000 A 
ATOM     29  N   UNL     1      51.782   5.978  21.139  0.00  0.00    +0.000 NA
ATOM     30  C   UNL     1      51.943   4.710  20.945  0.00  0.00    +0.000 A 
ATOM     31  N   UNL     1      51.680   4.061  19.766  0.00  0.00    +0.000 N 
ATOM     32  C   UNL     1      51.181   4.700  18.656  0.00  0.00    +0.000 A 
ATOM     33  O   UNL     1      50.886   4.086  17.638  0.00  0.00    +0.000 OA
ATOM     34  C   UNL     1      51.009   6.132  18.813  0.00  0.00    +0.000 A 
ATOM     35  H   UNL     1      51.810   3.064  19.684  0.00  0.00    +0.000 HD
ENDBRANCH  22  25
ENDBRANCH  20  21
ENDBRANCH   2  20
TORSDOF 7
ENDMDL
