MODEL 1
REMARK VINA RESULT:    -8.834      0.000      0.000
REMARK INTER + INTRA:         -12.380
REMARK INTER:                 -11.416
REMARK INTRA:                  -0.963
REMARK UNBOUND:                -0.963
REMARK  Name = 
REMARK  6 active torsions:
REMARK  status: ('A' for Active; 'I' for Inactive)
REMARK    1  A    between atoms: C_1  and  C_2
REMARK    2  A    between atoms: C_2  and  N_3
REMARK    3  A    between atoms: C_2  and  C_16
REMARK    4  A    between atoms: C_4  and  C_6
REMARK    5  A    between atoms: C_19  and  C_20
REMARK    6  A    between atoms: C_20  and  N_21
REMARK                            x       y       z     vdW  Elec       q    Type
REMARK                         _______ _______ _______ _____ _____    ______ ____
ROOT
ATOM      1  C   UNL     1      46.214   8.893  13.274  0.00  0.00    +0.000 C 
ATOM      2  C   UNL     1      47.061   7.624  13.142  0.00  0.00    +0.000 C 
ENDROOT
BRANCH   2   3
ATOM      3  C   UNL     1      46.295   6.572  12.346  0.00  0.00    +0.000 A 
ATOM      4  C   UNL     1      45.447   5.662  12.990  0.00  0.00    +0.000 A 
ATOM      5  C   UNL     1      44.740   4.704  12.254  0.00  0.00    +0.000 A 
ATOM      6  C   UNL     1      44.861   4.638  10.857  0.00  0.00    +0.000 A 
ATOM      7  C   UNL     1      45.693   5.557  10.210  0.00  0.00    +0.000 A 
ATOM      8  C   UNL     1      46.404   6.507  10.944  0.00  0.00    +0.000 A 
BRANCH   6   9
ATOM      9  C   UNL     1      44.112   3.595  10.063  0.00  0.00    +0.000 C 
BRANCH   9  10
ATOM     10  N   UNL     1      44.206   3.868   8.641  0.00  0.00    +0.000 N 
ATOM     11  C   UNL     1      45.214   3.129   8.032  0.00  0.00    +0.000 A 
ATOM     12  N   UNL     1      45.533   1.921   8.521  0.00  0.00    +0.000 NA
ATOM     13  C   UNL     1      46.552   1.266   7.947  0.00  0.00    +0.000 A 
ATOM     14  C   UNL     1      47.269   1.765   6.891  0.00  0.00    +0.000 A 
ATOM     15  C   UNL     1      46.860   2.998   6.446  0.00  0.00    +0.000 A 
ATOM     16  N   UNL     1      45.849   3.700   6.999  0.00  0.00    +0.000 NA
ATOM     17  H   UNL     1      44.370   4.838   8.398  0.00  0.00    +0.000 HD
ENDBRANCH   9  10
ENDBRANCH   6   9
ENDBRANCH   2   3
BRANCH   2  18
ATOM     18  N   UNL     1      47.424   7.062  14.431  0.00  0.00    +0.000 N 
ATOM     19  C   UNL     1      48.706   6.755  14.808  0.00  0.00    +0.000 C 
ATOM     20  O   UNL     1      49.685   6.960  14.099  0.00  0.00    +0.000 OA
ATOM     21  H   UNL     1      46.676   6.549  14.887  0.00  0.00    +0.000 HD
BRANCH  19  22
ATOM     22  C   UNL     1      48.847   6.227  16.171  0.00  0.00    +0.000 A 
ATOM     23  C   UNL     1      49.518   6.958  17.141  0.00  0.00    +0.000 A 
ATOM     24  S   UNL     1      49.522   6.208  18.674  0.00  0.00    +0.000 S 
ATOM     25  C   UNL     1      48.671   4.859  18.081  0.00  0.00    +0.000 A 
ATOM     26  N   UNL     1      48.360   3.809  18.887  0.00  0.00    +0.000 NA
ATOM     27  C   UNL     1      47.738   2.846  18.295  0.00  0.00    +0.000 A 
ATOM     28  N   UNL     1      47.391   2.840  16.966  0.00  0.00    +0.000 N 
ATOM     29  C   UNL     1      47.659   3.885  16.120  0.00  0.00    +0.000 A 
ATOM     30  O   UNL     1      47.299   3.868  14.951  0.00  0.00    +0.000 OA
ATOM     31  C   UNL     1      48.370   4.989  16.737  0.00  0.00    +0.000 A 
ATOM     32  H   UNL     1      46.891   2.059  16.561  0.00  0.00    +0.000 HD
ENDBRANCH  19  22
ENDBRANCH   2  18
TORSDOF 5
ENDMDL
MODEL 2
REMARK VINA RESULT:    -8.521      1.810      2.362
REMARK INTER + INTRA:         -11.975
REMARK INTER:                 -10.868
REMARK INTRA:                  -1.106
REMARK UNBOUND:                -0.963
REMARK  Name = 
REMARK  6 active torsions:
REMARK  status: ('A' for Active; 'I' for Inactive)
REMARK    1  A    between atoms: C_1  and  C_2
REMARK    2  A    between atoms: C_2  and  N_3
REMARK    3  A    between atoms: C_2  and  C_16
REMARK    4  A    between atoms: C_4  and  C_6
REMARK    5  A    between atoms: C_19  and  C_20
REMARK    6  A    between atoms: C_20  and  N_21
REMARK                            x       y       z     vdW  Elec       q    Type
REMARK                         _______ _______ _______ _____ _____    ______ ____
ROOT
ATOM      1  C   UNL     1      47.550   8.634  13.688  0.00  0.00    +0.000 C 
ATOM      2  C   UNL     1      47.885   7.141  13.716  0.00  0.00    +0.000 C 
ENDROOT
BRANCH   2   3
ATOM      3  C   UNL     1      46.877   6.368  12.871  0.00  0.00    +0.000 A 
ATOM      4  C   UNL     1      46.482   5.073  13.231  0.00  0.00    +0.000 A 
ATOM      5  C   UNL     1      45.550   4.372  12.457  0.00  0.00    +0.000 A 
ATOM      6  C   UNL     1      44.989   4.952  11.309  0.00  0.00    +0.000 A 
ATOM      7  C   UNL     1      45.368   6.251  10.957  0.00  0.00    +0.000 A 
ATOM      8  C   UNL     1      46.302   6.948  11.725  0.00  0.00    +0.000 A 
BRANCH   6   9
ATOM      9  C   UNL     1      43.995   4.191  10.463  0.00  0.00    +0.000 C 
BRANCH   9  10
ATOM     10  N   UNL     1      44.183   4.491   9.056  0.00  0.00    +0.000 N 
ATOM     11  C   UNL     1      45.067   3.609   8.447  0.00  0.00    +0.000 A 
ATOM     12  N   UNL     1      45.155   2.347   8.896  0.00  0.00    +0.000 NA
ATOM     13  C   UNL     1      46.063   1.544   8.324  0.00  0.00    +0.000 A 
ATOM     14  C   UNL     1      46.891   1.946   7.308  0.00  0.00    +0.000 A 
ATOM     15  C   UNL     1      46.717   3.246   6.901  0.00  0.00    +0.000 A 
ATOM     16  N   UNL     1      45.826   4.095   7.455  0.00  0.00    +0.000 NA
ATOM     17  H   UNL     1      44.521   5.425   8.857  0.00  0.00    +0.000 HD
ENDBRANCH   9  10
ENDBRANCH   6   9
ENDBRANCH   2   3
BRANCH   2  18
ATOM     18  N   UNL     1      47.881   6.596  15.063  0.00  0.00    +0.000 N 
ATOM     19  C   UNL     1      49.009   6.346  15.800  0.00  0.00    +0.000 C 
ATOM     20  O   UNL     1      50.142   6.595  15.404  0.00  0.00    +0.000 OA
ATOM     21  H   UNL     1      47.054   6.050  15.288  0.00  0.00    +0.000 HD
BRANCH  19  22
ATOM     22  C   UNL     1      48.769   5.826  17.152  0.00  0.00    +0.000 A 
ATOM     23  C   UNL     1      48.977   4.484  17.435  0.00  0.00    +0.000 A 
ATOM     24  S   UNL     1      48.705   4.084  19.072  0.00  0.00    +0.000 S 
ATOM     25  C   UNL     1      48.252   5.682  19.446  0.00  0.00    +0.000 A 
ATOM     26  N   UNL     1      47.868   6.031  20.702  0.00  0.00    +0.000 NA
ATOM     27  C   UNL     1      47.527   7.270  20.833  0.00  0.00    +0.000 A 
ATOM     28  N   UNL     1      47.542   8.194  19.818  0.00  0.00    +0.000 N 
ATOM     29  C   UNL     1      47.946   7.897  18.542  0.00  0.00    +0.000 A 
ATOM     30  O   UNL     1      47.989   8.754  17.670  0.00  0.00    +0.000 OA
ATOM     31  C   UNL     1      48.328   6.511  18.342  0.00  0.00    +0.000 A 
ATOM     32  H   UNL     1      47.275   9.156  19.985  0.00  0.00    +0.000 HD
ENDBRANCH  19  22
ENDBRANCH   2  18
TORSDOF 5
ENDMDL
MODEL 3
REMARK VINA RESULT:    -8.259      1.736      2.203
REMARK INTER + INTRA:         -11.636
REMARK INTER:                 -10.801
REMARK INTRA:                  -0.835
REMARK UNBOUND:                -0.963
REMARK  Name = 
REMARK  6 active torsions:
REMARK  status: ('A' for Active; 'I' for Inactive)
REMARK    1  A    between atoms: C_1  and  C_2
REMARK    2  A    between atoms: C_2  and  N_3
REMARK    3  A    between atoms: C_2  and  C_16
REMARK    4  A    between atoms: C_4  and  C_6
REMARK    5  A    between atoms: C_19  and  C_20
REMARK    6  A    between atoms: C_20  and  N_21
REMARK                            x       y       z     vdW  Elec       q    Type
REMARK                         _______ _______ _______ _____ _____    ______ ____
ROOT
ATOM      1  C   UNL     1      49.002   8.033  13.080  0.00  0.00    +0.000 C 
ATOM      2  C   UNL     1      48.602   6.708  13.735  0.00  0.00    +0.000 C 
ENDROOT
BRANCH   2   3
ATOM      3  C   UNL     1      47.371   6.137  13.038  0.00  0.00    +0.000 A 
ATOM      4  C   UNL     1      46.843   6.754  11.896  0.00  0.00    +0.000 A 
ATOM      5  C   UNL     1      45.720   6.221  11.254  0.00  0.00    +0.000 A 
ATOM      6  C   UNL     1      45.102   5.056  11.736  0.00  0.00    +0.000 A 
ATOM      7  C   UNL     1      45.638   4.429  12.865  0.00  0.00    +0.000 A 
ATOM      8  C   UNL     1      46.754   4.964  13.509  0.00  0.00    +0.000 A 
BRANCH   6   9
ATOM      9  C   UNL     1      43.880   4.488  11.055  0.00  0.00    +0.000 C 
BRANCH   9  10
ATOM     10  N   UNL     1      43.915   4.757   9.630  0.00  0.00    +0.000 N 
ATOM     11  C   UNL     1      44.705   3.842   8.944  0.00  0.00    +0.000 A 
ATOM     12  N   UNL     1      44.815   2.588   9.408  0.00  0.00    +0.000 NA
ATOM     13  C   UNL     1      45.635   1.752   8.755  0.00  0.00    +0.000 A 
ATOM     14  C   UNL     1      46.352   2.114   7.644  0.00  0.00    +0.000 A 
ATOM     15  C   UNL     1      46.163   3.411   7.232  0.00  0.00    +0.000 A 
ATOM     16  N   UNL     1      45.358   4.291   7.863  0.00  0.00    +0.000 NA
ATOM     17  H   UNL     1      44.249   5.679   9.374  0.00  0.00    +0.000 HD
ENDBRANCH   9  10
ENDBRANCH   6   9
ENDBRANCH   2   3
BRANCH   2  18
ATOM     18  N   UNL     1      48.311   6.854  15.151  0.00  0.00    +0.000 N 
ATOM     19  C   UNL     1      49.216   6.621  16.155  0.00  0.00    +0.000 C 
ATOM     20  O   UNL     1      50.381   6.299  15.951  0.00  0.00    +0.000 OA
ATOM     21  H   UNL     1      47.328   6.755  15.386  0.00  0.00    +0.000 HD
BRANCH  19  22
ATOM     22  C   UNL     1      48.716   6.863  17.515  0.00  0.00    +0.000 A 
ATOM     23  C   UNL     1      48.261   8.121  17.881  0.00  0.00    +0.000 A 
ATOM     24  S   UNL     1      47.663   8.188  19.479  0.00  0.00    +0.000 S 
ATOM     25  C   UNL     1      48.041   6.550  19.750  0.00  0.00    +0.000 A 
ATOM     26  N   UNL     1      47.803   5.960  20.951  0.00  0.00    +0.000 NA
ATOM     27  C   UNL     1      48.165   4.723  21.020  0.00  0.00    +0.000 A 
ATOM     28  N   UNL     1      48.739   4.018  19.990  0.00  0.00    +0.000 N 
ATOM     29  C   UNL     1      48.974   4.562  18.754  0.00  0.00    +0.000 A 
ATOM     30  O   UNL     1      49.448   3.895  17.844  0.00  0.00    +0.000 OA
ATOM     31  C   UNL     1      48.595   5.957  18.630  0.00  0.00    +0.000 A 
ATOM     32  H   UNL     1      48.990   3.044  20.101  0.00  0.00    +0.000 HD
ENDBRANCH  19  22
ENDBRANCH   2  18
TORSDOF 5
ENDMDL
MODEL 4
REMARK VINA RESULT:    -7.439      3.003      4.403
REMARK INTER + INTRA:         -10.577
REMARK INTER:                  -9.426
REMARK INTRA:                  -1.151
REMARK UNBOUND:                -0.963
REMARK  Name = 
REMARK  6 active torsions:
REMARK  status: ('A' for Active; 'I' for Inactive)
REMARK    1  A    between atoms: C_1  and  C_2
REMARK    2  A    between atoms: C_2  and  N_3
REMARK    3  A    between atoms: C_2  and  C_16
REMARK    4  A    between atoms: C_4  and  C_6
REMARK    5  A    between atoms: C_19  and  C_20
REMARK    6  A    between atoms: C_20  and  N_21
REMARK                            x       y       z     vdW  Elec       q    Type
REMARK                         _______ _______ _______ _____ _____    ______ ____
ROOT
ATOM      1  C   UNL     1      47.524   5.004  15.190  0.00  0.00    +0.000 C 
ATOM      2  C   UNL     1      47.099   5.999  14.107  0.00  0.00    +0.000 C 
ENDROOT
BRANCH   2   3
ATOM      3  C   UNL     1      46.326   5.271  13.011  0.00  0.00    +0.000 A 
ATOM      4  C   UNL     1      45.963   3.926  13.162  0.00  0.00    +0.000 A 
ATOM      5  C   UNL     1      45.246   3.266  12.158  0.00  0.00    +0.000 A 
ATOM      6  C   UNL     1      44.872   3.936  10.983  0.00  0.00    +0.000 A 
ATOM      7  C   UNL     1      45.218   5.283  10.837  0.00  0.00    +0.000 A 
ATOM      8  C   UNL     1      45.939   5.940  11.835  0.00  0.00    +0.000 A 
BRANCH   6   9
ATOM      9  C   UNL     1      44.113   3.221   9.890  0.00  0.00    +0.000 C 
BRANCH   9  10
ATOM     10  N   UNL     1      44.467   3.751   8.587  0.00  0.00    +0.000 N 
ATOM     11  C   UNL     1      45.528   3.062   8.012  0.00  0.00    +0.000 A 
ATOM     12  N   UNL     1      45.698   1.760   8.292  0.00  0.00    +0.000 NA
ATOM     13  C   UNL     1      46.768   1.145   7.768  0.00  0.00    +0.000 A 
ATOM     14  C   UNL     1      47.681   1.776   6.964  0.00  0.00    +0.000 A 
ATOM     15  C   UNL     1      47.417   3.101   6.718  0.00  0.00    +0.000 A 
ATOM     16  N   UNL     1      46.361   3.765   7.232  0.00  0.00    +0.000 NA
ATOM     17  H   UNL     1      44.718   4.733   8.576  0.00  0.00    +0.000 HD
ENDBRANCH   9  10
ENDBRANCH   6   9
ENDBRANCH   2   3
BRANCH   2  18
ATOM     18  N   UNL     1      48.230   6.683  13.506  0.00  0.00    +0.000 N 
ATOM     19  C   UNL     1      48.361   8.046  13.432  0.00  0.00    +0.000 C 
ATOM     20  O   UNL     1      47.543   8.828  13.904  0.00  0.00    +0.000 OA
ATOM     21  H   UNL     1      48.724   6.136  12.807  0.00  0.00    +0.000 HD
BRANCH  19  22
ATOM     22  C   UNL     1      49.604   8.522  12.811  0.00  0.00    +0.000 A 
ATOM     23  C   UNL     1      49.569   9.201  11.602  0.00  0.00    +0.000 A 
ATOM     24  S   UNL     1      51.104   9.727  11.074  0.00  0.00    +0.000 S 
ATOM     25  C   UNL     1      51.873   9.019  12.418  0.00  0.00    +0.000 A 
ATOM     26  N   UNL     1      53.222   9.081  12.574  0.00  0.00    +0.000 NA
ATOM     27  C   UNL     1      53.667   8.477  13.625  0.00  0.00    +0.000 A 
ATOM     28  N   UNL     1      52.881   7.822  14.541  0.00  0.00    +0.000 N 
ATOM     29  C   UNL     1      51.516   7.756  14.441  0.00  0.00    +0.000 A 
ATOM     30  O   UNL     1      50.839   7.201  15.297  0.00  0.00    +0.000 OA
ATOM     31  C   UNL     1      50.967   8.410  13.268  0.00  0.00    +0.000 A 
ATOM     32  H   UNL     1      53.288   7.378  15.354  0.00  0.00    +0.000 HD
ENDBRANCH  19  22
ENDBRANCH   2  18
TORSDOF 5
ENDMDL
MODEL 5
REMARK VINA RESULT:    -7.405      3.278      8.045
REMARK INTER + INTRA:         -10.533
REMARK INTER:                  -9.446
REMARK INTRA:                  -1.088
REMARK UNBOUND:                -0.963
REMARK  Name = 
REMARK  6 active torsions:
REMARK  status: ('A' for Active; 'I' for Inactive)
REMARK    1  A    between atoms: C_1  and  C_2
REMARK    2  A    between atoms: C_2  and  N_3
REMARK    3  A    between atoms: C_2  and  C_16
REMARK    4  A    between atoms: C_4  and  C_6
REMARK    5  A    between atoms: C_19  and  C_20
REMARK    6  A    between atoms: C_20  and  N_21
REMARK                            x       y       z     vdW  Elec       q    Type
REMARK                         _______ _______ _______ _____ _____    ______ ____
ROOT
ATOM      1  C   UNL     1      49.651   8.004  11.553  0.00  0.00    +0.000 C 
ATOM      2  C   UNL     1      48.423   7.669  12.403  0.00  0.00    +0.000 C 
ENDROOT
BRANCH   2   3
ATOM      3  C   UNL     1      48.864   7.174  13.777  0.00  0.00    +0.000 A 
ATOM      4  C   UNL     1      50.074   7.605  14.339  0.00  0.00    +0.000 A 
ATOM      5  C   UNL     1      50.469   7.154  15.604  0.00  0.00    +0.000 A 
ATOM      6  C   UNL     1      49.664   6.268  16.336  0.00  0.00    +0.000 A 
ATOM      7  C   UNL     1      48.448   5.852  15.784  0.00  0.00    +0.000 A 
ATOM      8  C   UNL     1      48.057   6.295  14.521  0.00  0.00    +0.000 A 
BRANCH   6   9
ATOM      9  C   UNL     1      50.097   5.769  17.694  0.00  0.00    +0.000 C 
BRANCH   9  10
ATOM     10  N   UNL     1      49.624   4.416  17.918  0.00  0.00    +0.000 N 
ATOM     11  C   UNL     1      50.659   3.488  17.888  0.00  0.00    +0.000 A 
ATOM     12  N   UNL     1      51.888   3.859  18.280  0.00  0.00    +0.000 NA
ATOM     13  C   UNL     1      52.874   2.955  18.178  0.00  0.00    +0.000 A 
ATOM     14  C   UNL     1      52.683   1.683  17.705  0.00  0.00    +0.000 A 
ATOM     15  C   UNL     1      51.391   1.388  17.344  0.00  0.00    +0.000 A 
ATOM     16  N   UNL     1      50.370   2.267  17.417  0.00  0.00    +0.000 NA
ATOM     17  H   UNL     1      48.924   4.090  17.262  0.00  0.00    +0.000 HD
ENDBRANCH   9  10
ENDBRANCH   6   9
ENDBRANCH   2   3
BRANCH   2  18
ATOM     18  N   UNL     1      47.582   6.657  11.789  0.00  0.00    +0.000 N 
ATOM     19  C   UNL     1      46.264   6.842  11.458  0.00  0.00    +0.000 C 
ATOM     20  O   UNL     1      45.672   7.903  11.616  0.00  0.00    +0.000 OA
ATOM     21  H   UNL     1      47.881   5.703  11.968  0.00  0.00    +0.000 HD
BRANCH  19  22
ATOM     22  C   UNL     1      45.615   5.692  10.815  0.00  0.00    +0.000 A 
ATOM     23  C   UNL     1      45.713   5.506   9.444  0.00  0.00    +0.000 A 
ATOM     24  S   UNL     1      44.946   4.084   8.894  0.00  0.00    +0.000 S 
ATOM     25  C   UNL     1      44.414   3.696  10.464  0.00  0.00    +0.000 A 
ATOM     26  N   UNL     1      43.664   2.587  10.702  0.00  0.00    +0.000 NA
ATOM     27  C   UNL     1      43.309   2.435  11.934  0.00  0.00    +0.000 A 
ATOM     28  N   UNL     1      43.645   3.291  12.954  0.00  0.00    +0.000 N 
ATOM     29  C   UNL     1      44.420   4.406  12.769  0.00  0.00    +0.000 A 
ATOM     30  O   UNL     1      44.737   5.125  13.706  0.00  0.00    +0.000 OA
ATOM     31  C   UNL     1      44.834   4.628  11.396  0.00  0.00    +0.000 A 
ATOM     32  H   UNL     1      43.347   3.111  13.904  0.00  0.00    +0.000 HD
ENDBRANCH  19  22
ENDBRANCH   2  18
TORSDOF 5
ENDMDL
MODEL 6
REMARK VINA RESULT:    -7.404      2.534      4.472
REMARK INTER + INTRA:         -10.531
REMARK INTER:                  -9.332
REMARK INTRA:                  -1.199
REMARK UNBOUND:                -0.963
REMARK  Name = 
REMARK  6 active torsions:
REMARK  status: ('A' for Active; 'I' for Inactive)
REMARK    1  A    between atoms: C_1  and  C_2
REMARK    2  A    between atoms: C_2  and  N_3
REMARK    3  A    between atoms: C_2  and  C_16
REMARK    4  A    between atoms: C_4  and  C_6
REMARK    5  A    between atoms: C_19  and  C_20
REMARK    6  A    between atoms: C_20  and  N_21
REMARK                            x       y       z     vdW  Elec       q    Type
REMARK                         _______ _______ _______ _____ _____    ______ ____
ROOT
ATOM      1  C   UNL     1      47.546   4.198  15.519  0.00  0.00    +0.000 C 
ATOM      2  C   UNL     1      47.055   5.436  14.764  0.00  0.00    +0.000 C 
ENDROOT
BRANCH   2   3
ATOM      3  C   UNL     1      46.192   5.012  13.580  0.00  0.00    +0.000 A 
ATOM      4  C   UNL     1      45.541   5.967  12.788  0.00  0.00    +0.000 A 
ATOM      5  C   UNL     1      44.758   5.572  11.697  0.00  0.00    +0.000 A 
ATOM      6  C   UNL     1      44.612   4.215  11.371  0.00  0.00    +0.000 A 
ATOM      7  C   UNL     1      45.274   3.261  12.150  0.00  0.00    +0.000 A 
ATOM      8  C   UNL     1      46.049   3.654  13.241  0.00  0.00    +0.000 A 
BRANCH   6   9
ATOM      9  C   UNL     1      43.754   3.786  10.205  0.00  0.00    +0.000 C 
BRANCH   9  10
ATOM     10  N   UNL     1      44.255   4.348   8.965  0.00  0.00    +0.000 N 
ATOM     11  C   UNL     1      45.219   3.537   8.376  0.00  0.00    +0.000 A 
ATOM     12  N   UNL     1      45.160   2.208   8.552  0.00  0.00    +0.000 NA
ATOM     13  C   UNL     1      46.142   1.465   8.021  0.00  0.00    +0.000 A 
ATOM     14  C   UNL     1      47.186   1.995   7.308  0.00  0.00    +0.000 A 
ATOM     15  C   UNL     1      47.153   3.361   7.163  0.00  0.00    +0.000 A 
ATOM     16  N   UNL     1      46.193   4.150   7.689  0.00  0.00    +0.000 NA
ATOM     17  H   UNL     1      44.663   5.272   9.044  0.00  0.00    +0.000 HD
ENDBRANCH   9  10
ENDBRANCH   6   9
ENDBRANCH   2   3
BRANCH   2  18
ATOM     18  N   UNL     1      48.148   6.259  14.275  0.00  0.00    +0.000 N 
ATOM     19  C   UNL     1      48.847   7.153  15.044  0.00  0.00    +0.000 C 
ATOM     20  O   UNL     1      48.639   7.321  16.240  0.00  0.00    +0.000 OA
ATOM     21  H   UNL     1      48.121   6.435  13.275  0.00  0.00    +0.000 HD
BRANCH  19  22
ATOM     22  C   UNL     1      49.935   7.855  14.351  0.00  0.00    +0.000 A 
ATOM     23  C   UNL     1      51.236   7.777  14.827  0.00  0.00    +0.000 A 
ATOM     24  S   UNL     1      52.367   8.606  13.853  0.00  0.00    +0.000 S 
ATOM     25  C   UNL     1      51.147   9.139  12.792  0.00  0.00    +0.000 A 
ATOM     26  N   UNL     1      51.436   9.932  11.725  0.00  0.00    +0.000 NA
ATOM     27  C   UNL     1      50.410  10.281  11.024  0.00  0.00    +0.000 A 
ATOM     28  N   UNL     1      49.117   9.902  11.290  0.00  0.00    +0.000 N 
ATOM     29  C   UNL     1      48.780   9.083  12.337  0.00  0.00    +0.000 A 
ATOM     30  O   UNL     1      47.623   8.729  12.523  0.00  0.00    +0.000 OA
ATOM     31  C   UNL     1      49.900   8.673  13.164  0.00  0.00    +0.000 A 
ATOM     32  H   UNL     1      48.354  10.198  10.695  0.00  0.00    +0.000 HD
ENDBRANCH  19  22
ENDBRANCH   2  18
TORSDOF 5
ENDMDL
MODEL 7
REMARK VINA RESULT:    -7.308      4.389      9.056
REMARK INTER + INTRA:         -10.408
REMARK INTER:                  -9.587
REMARK INTRA:                  -0.821
REMARK UNBOUND:                -0.963
REMARK  Name = 
REMARK  6 active torsions:
REMARK  status: ('A' for Active; 'I' for Inactive)
REMARK    1  A    between atoms: C_1  and  C_2
REMARK    2  A    between atoms: C_2  and  N_3
REMARK    3  A    between atoms: C_2  and  C_16
REMARK    4  A    between atoms: C_4  and  C_6
REMARK    5  A    between atoms: C_19  and  C_20
REMARK    6  A    between atoms: C_20  and  N_21
REMARK                            x       y       z     vdW  Elec       q    Type
REMARK                         _______ _______ _______ _____ _____    ______ ____
ROOT
ATOM      1  C   UNL     1      46.991   5.030  18.505  0.00  0.00    +0.000 C 
ATOM      2  C   UNL     1      47.434   4.226  17.280  0.00  0.00    +0.000 C 
ENDROOT
BRANCH   2   3
ATOM      3  C   UNL     1      48.911   3.868  17.402  0.00  0.00    +0.000 A 
ATOM      4  C   UNL     1      49.869   4.856  17.664  0.00  0.00    +0.000 A 
ATOM      5  C   UNL     1      51.223   4.520  17.784  0.00  0.00    +0.000 A 
ATOM      6  C   UNL     1      51.648   3.189  17.651  0.00  0.00    +0.000 A 
ATOM      7  C   UNL     1      50.691   2.199  17.407  0.00  0.00    +0.000 A 
ATOM      8  C   UNL     1      49.343   2.534  17.280  0.00  0.00    +0.000 A 
BRANCH   6   9
ATOM      9  C   UNL     1      53.110   2.827  17.764  0.00  0.00    +0.000 C 
BRANCH   9  10
ATOM     10  N   UNL     1      53.313   1.832  18.800  0.00  0.00    +0.000 N 
ATOM     11  C   UNL     1      54.043   0.742  18.341  0.00  0.00    +0.000 A 
ATOM     12  N   UNL     1      54.953   0.918  17.371  0.00  0.00    +0.000 NA
ATOM     13  C   UNL     1      55.592  -0.168  16.911  0.00  0.00    +0.000 A 
ATOM     14  C   UNL     1      55.365  -1.433  17.386  0.00  0.00    +0.000 A 
ATOM     15  C   UNL     1      54.430  -1.515  18.389  0.00  0.00    +0.000 A 
ATOM     16  N   UNL     1      53.754  -0.453  18.875  0.00  0.00    +0.000 NA
ATOM     17  H   UNL     1      52.466   1.461  19.213  0.00  0.00    +0.000 HD
ENDBRANCH   9  10
ENDBRANCH   6   9
ENDBRANCH   2   3
BRANCH   2  18
ATOM     18  N   UNL     1      47.229   4.950  16.038  0.00  0.00    +0.000 N 
ATOM     19  C   UNL     1      47.188   4.365  14.798  0.00  0.00    +0.000 C 
ATOM     20  O   UNL     1      47.284   3.156  14.620  0.00  0.00    +0.000 OA
ATOM     21  H   UNL     1      47.504   5.927  16.075  0.00  0.00    +0.000 HD
BRANCH  19  22
ATOM     22  C   UNL     1      46.936   5.285  13.681  0.00  0.00    +0.000 A 
ATOM     23  C   UNL     1      47.910   6.190  13.285  0.00  0.00    +0.000 A 
ATOM     24  S   UNL     1      47.456   7.128  11.933  0.00  0.00    +0.000 S 
ATOM     25  C   UNL     1      45.923   6.390  11.865  0.00  0.00    +0.000 A 
ATOM     26  N   UNL     1      45.004   6.756  10.932  0.00  0.00    +0.000 NA
ATOM     27  C   UNL     1      43.877   6.132  11.017  0.00  0.00    +0.000 A 
ATOM     28  N   UNL     1      43.588   5.167  11.950  0.00  0.00    +0.000 N 
ATOM     29  C   UNL     1      44.489   4.746  12.893  0.00  0.00    +0.000 A 
ATOM     30  O   UNL     1      44.216   3.853  13.684  0.00  0.00    +0.000 OA
ATOM     31  C   UNL     1      45.769   5.428  12.846  0.00  0.00    +0.000 A 
ATOM     32  H   UNL     1      42.689   4.703  11.959  0.00  0.00    +0.000 HD
ENDBRANCH  19  22
ENDBRANCH   2  18
TORSDOF 5
ENDMDL
MODEL 8
REMARK VINA RESULT:    -7.062      3.243      8.474
REMARK INTER + INTRA:         -10.089
REMARK INTER:                  -9.164
REMARK INTRA:                  -0.925
REMARK UNBOUND:                -0.963
REMARK  Name = 
REMARK  6 active torsions:
REMARK  status: ('A' for Active; 'I' for Inactive)
REMARK    1  A    between atoms: C_1  and  C_2
REMARK    2  A    between atoms: C_2  and  N_3
REMARK    3  A    between atoms: C_2  and  C_16
REMARK    4  A    between atoms: C_4  and  C_6
REMARK    5  A    between atoms: C_19  and  C_20
REMARK    6  A    between atoms: C_20  and  N_21
REMARK                            x       y       z     vdW  Elec       q    Type
REMARK                         _______ _______ _______ _____ _____    ______ ____
ROOT
ATOM      1  C   UNL     1      48.654   7.645  12.113  0.00  0.00    +0.000 C 
ATOM      2  C   UNL     1      47.599   7.150  13.106  0.00  0.00    +0.000 C 
ENDROOT
BRANCH   2   3
ATOM      3  C   UNL     1      48.276   6.692  14.394  0.00  0.00    +0.000 A 
ATOM      4  C   UNL     1      49.456   7.302  14.840  0.00  0.00    +0.000 A 
ATOM      5  C   UNL     1      50.068   6.883  16.027  0.00  0.00    +0.000 A 
ATOM      6  C   UNL     1      49.512   5.850  16.797  0.00  0.00    +0.000 A 
ATOM      7  C   UNL     1      48.325   5.251  16.363  0.00  0.00    +0.000 A 
ATOM      8  C   UNL     1      47.718   5.664  15.176  0.00  0.00    +0.000 A 
BRANCH   6   9
ATOM      9  C   UNL     1      50.179   5.385  18.069  0.00  0.00    +0.000 C 
BRANCH   9  10
ATOM     10  N   UNL     1      51.578   5.082  17.834  0.00  0.00    +0.000 N 
ATOM     11  C   UNL     1      51.810   3.713  17.752  0.00  0.00    +0.000 A 
ATOM     12  N   UNL     1      50.845   2.908  17.282  0.00  0.00    +0.000 NA
ATOM     13  C   UNL     1      51.082   1.588  17.277  0.00  0.00    +0.000 A 
ATOM     14  C   UNL     1      52.255   1.032  17.718  0.00  0.00    +0.000 A 
ATOM     15  C   UNL     1      53.191   1.934  18.164  0.00  0.00    +0.000 A 
ATOM     16  N   UNL     1      52.992   3.268  18.199  0.00  0.00    +0.000 NA
ATOM     17  H   UNL     1      52.220   5.444  18.529  0.00  0.00    +0.000 HD
ENDBRANCH   9  10
ENDBRANCH   6   9
ENDBRANCH   2   3
BRANCH   2  18
ATOM     18  N   UNL     1      46.809   6.053  12.576  0.00  0.00    +0.000 N 
ATOM     19  C   UNL     1      45.461   6.116  12.333  0.00  0.00    +0.000 C 
ATOM     20  O   UNL     1      44.791   7.128  12.506  0.00  0.00    +0.000 OA
ATOM     21  H   UNL     1      47.200   5.133  12.757  0.00  0.00    +0.000 HD
BRANCH  19  22
ATOM     22  C   UNL     1      44.871   4.897  11.764  0.00  0.00    +0.000 A 
ATOM     23  C   UNL     1      44.099   4.057  12.554  0.00  0.00    +0.000 A 
ATOM     24  S   UNL     1      43.452   2.728  11.700  0.00  0.00    +0.000 S 
ATOM     25  C   UNL     1      44.223   3.204  10.259  0.00  0.00    +0.000 A 
ATOM     26  N   UNL     1      44.103   2.474   9.119  0.00  0.00    +0.000 NA
ATOM     27  C   UNL     1      44.765   2.939   8.113  0.00  0.00    +0.000 A 
ATOM     28  N   UNL     1      45.533   4.078   8.143  0.00  0.00    +0.000 N 
ATOM     29  C   UNL     1      45.663   4.861   9.260  0.00  0.00    +0.000 A 
ATOM     30  O   UNL     1      46.320   5.893   9.243  0.00  0.00    +0.000 OA
ATOM     31  C   UNL     1      44.947   4.371  10.423  0.00  0.00    +0.000 A 
ATOM     32  H   UNL     1      46.019   4.400   7.316  0.00  0.00    +0.000 HD
ENDBRANCH  19  22
ENDBRANCH   2  18
TORSDOF 5
ENDMDL
MODEL 9
REMARK VINA RESULT:    -7.003      4.420      9.044
REMARK INTER + INTRA:         -10.013
REMARK INTER:                  -8.862
REMARK INTRA:                  -1.152
REMARK UNBOUND:                -0.963
REMARK  Name = 
REMARK  6 active torsions:
REMARK  status: ('A' for Active; 'I' for Inactive)
REMARK    1  A    between atoms: C_1  and  C_2
REMARK    2  A    between atoms: C_2  and  N_3
REMARK    3  A    between atoms: C_2  and  C_16
REMARK    4  A    between atoms: C_4  and  C_6
REMARK    5  A    between atoms: C_19  and  C_20
REMARK    6  A    between atoms: C_20  and  N_21
REMARK                            x       y       z     vdW  Elec       q    Type
REMARK                         _______ _______ _______ _____ _____    ______ ____
ROOT
ATOM      1  C   UNL     1      46.836   4.633  18.317  0.00  0.00    +0.000 C 
ATOM      2  C   UNL     1      47.392   3.975  17.051  0.00  0.00    +0.000 C 
ENDROOT
BRANCH   2   3
ATOM      3  C   UNL     1      48.869   3.645  17.246  0.00  0.00    +0.000 A 
ATOM      4  C   UNL     1      49.767   4.617  17.704  0.00  0.00    +0.000 A 
ATOM      5  C   UNL     1      51.119   4.306  17.890  0.00  0.00    +0.000 A 
ATOM      6  C   UNL     1      51.602   3.015  17.626  0.00  0.00    +0.000 A 
ATOM      7  C   UNL     1      50.703   2.037  17.185  0.00  0.00    +0.000 A 
ATOM      8  C   UNL     1      49.357   2.350  16.994  0.00  0.00    +0.000 A 
BRANCH   6   9
ATOM      9  C   UNL     1      53.063   2.681  17.810  0.00  0.00    +0.000 C 
BRANCH   9  10
ATOM     10  N   UNL     1      53.227   1.608  18.773  0.00  0.00    +0.000 N 
ATOM     11  C   UNL     1      54.042   0.591  18.289  0.00  0.00    +0.000 A 
ATOM     12  N   UNL     1      55.019   0.887  17.418  0.00  0.00    +0.000 NA
ATOM     13  C   UNL     1      55.743  -0.129  16.926  0.00  0.00    +0.000 A 
ATOM     14  C   UNL     1      55.537  -1.439  17.273  0.00  0.00    +0.000 A 
ATOM     15  C   UNL     1      54.528  -1.644  18.183  0.00  0.00    +0.000 A 
ATOM     16  N   UNL     1      53.766  -0.656  18.696  0.00  0.00    +0.000 NA
ATOM     17  H   UNL     1      52.367   1.170  19.080  0.00  0.00    +0.000 HD
ENDBRANCH   9  10
ENDBRANCH   6   9
ENDBRANCH   2   3
BRANCH   2  18
ATOM     18  N   UNL     1      47.253   4.822  15.879  0.00  0.00    +0.000 N 
ATOM     19  C   UNL     1      47.199   4.357  14.590  0.00  0.00    +0.000 C 
ATOM     20  O   UNL     1      47.226   3.166  14.301  0.00  0.00    +0.000 OA
ATOM     21  H   UNL     1      47.585   5.773  16.011  0.00  0.00    +0.000 HD
BRANCH  19  22
ATOM     22  C   UNL     1      47.022   5.390  13.561  0.00  0.00    +0.000 A 
ATOM     23  C   UNL     1      45.982   5.300  12.648  0.00  0.00    +0.000 A 
ATOM     24  S   UNL     1      45.906   6.623  11.572  0.00  0.00    +0.000 S 
ATOM     25  C   UNL     1      47.291   7.335  12.260  0.00  0.00    +0.000 A 
ATOM     26  N   UNL     1      47.795   8.504  11.783  0.00  0.00    +0.000 NA
ATOM     27  C   UNL     1      48.863   8.911  12.383  0.00  0.00    +0.000 A 
ATOM     28  N   UNL     1      49.471   8.256  13.425  0.00  0.00    +0.000 N 
ATOM     29  C   UNL     1      48.986   7.089  13.958  0.00  0.00    +0.000 A 
ATOM     30  O   UNL     1      49.526   6.552  14.915  0.00  0.00    +0.000 OA
ATOM     31  C   UNL     1      47.791   6.584  13.308  0.00  0.00    +0.000 A 
ATOM     32  H   UNL     1      50.301   8.632  13.864  0.00  0.00    +0.000 HD
ENDBRANCH  19  22
ENDBRANCH   2  18
TORSDOF 5
ENDMDL
