MODEL 1
REMARK VINA RESULT:    -8.193      0.000      0.000
REMARK INTER + INTRA:         -12.701
REMARK INTER:                 -11.546
REMARK INTRA:                  -1.155
REMARK UNBOUND:                -1.155
REMARK  Name = 
REMARK  8 active torsions:
REMARK  status: ('A' for Active; 'I' for Inactive)
REMARK    1  A    between atoms: C_1  and  C_2
REMARK    2  A    between atoms: C_4  and  C_5
REMARK    3  A    between atoms: C_5  and  N_6
REMARK    4  A    between atoms: N_6  and  C_7
REMARK    5  A    between atoms: C_7  and  C_8
REMARK    6  A    between atoms: C_16  and  C_17
REMARK    7  A    between atoms: C_17  and  N_18
REMARK    8  A    between atoms: C_19  and  C_21
REMARK                            x       y       z     vdW  Elec       q    Type
REMARK                         _______ _______ _______ _____ _____    ______ ____
ROOT
ATOM      1  C   UNL     1      45.076   9.249  12.034  0.00  0.00    +0.000 C 
ATOM      2  C   UNL     1      45.264   7.756  11.991  0.00  0.00    +0.000 A 
ATOM      3  C   UNL     1      44.302   6.972  11.325  0.00  0.00    +0.000 A 
ATOM      4  C   UNL     1      44.423   5.579  11.243  0.00  0.00    +0.000 A 
ATOM      5  C   UNL     1      45.531   4.968  11.842  0.00  0.00    +0.000 A 
ATOM      6  C   UNL     1      46.489   5.731  12.513  0.00  0.00    +0.000 A 
ATOM      7  C   UNL     1      46.380   7.132  12.584  0.00  0.00    +0.000 A 
ENDROOT
BRANCH   4   8
ATOM      8  C   UNL     1      43.384   4.753  10.521  0.00  0.00    +0.000 C 
BRANCH   8   9
ATOM      9  N   UNL     1      44.011   3.632   9.826  0.00  0.00    +0.000 NA
ATOM     10  H   UNL     1      43.323   2.885   9.728  0.00  0.00    +0.000 HD
BRANCH   9  11
ATOM     11  C   UNL     1      44.514   4.013   8.510  0.00  0.00    +0.000 C 
BRANCH  11  12
ATOM     12  C   UNL     1      45.580   3.062   8.059  0.00  0.00    +0.000 A 
ATOM     13  C   UNL     1      45.603   1.732   8.427  0.00  0.00    +0.000 A 
ATOM     14  N   UNL     1      46.557   0.860   8.040  0.00  0.00    +0.000 NA
ATOM     15  C   UNL     1      47.514   1.361   7.243  0.00  0.00    +0.000 A 
ATOM     16  N   UNL     1      47.597   2.627   6.810  0.00  0.00    +0.000 NA
ATOM     17  C   UNL     1      46.619   3.452   7.235  0.00  0.00    +0.000 A 
ENDBRANCH  11  12
ENDBRANCH   9  11
ENDBRANCH   8   9
ENDBRANCH   4   8
BRANCH   7  18
ATOM     18  C   UNL     1      47.453   7.913  13.310  0.00  0.00    +0.000 C 
BRANCH  18  19
ATOM     19  N   UNL     1      47.659   7.432  14.654  0.00  0.00    +0.000 N 
ATOM     20  C   UNL     1      48.884   6.966  15.066  0.00  0.00    +0.000 C 
ATOM     21  O   UNL     1      49.851   6.938  14.309  0.00  0.00    +0.000 OA
ATOM     22  H   UNL     1      46.960   7.688  15.344  0.00  0.00    +0.000 HD
BRANCH  20  23
ATOM     23  C   UNL     1      48.962   6.413  16.427  0.00  0.00    +0.000 A 
ATOM     24  C   UNL     1      49.687   7.071  17.414  0.00  0.00    +0.000 A 
ATOM     25  S   UNL     1      49.923   6.128  18.821  0.00  0.00    +0.000 S 
ATOM     26  C   UNL     1      49.009   4.846  18.176  0.00  0.00    +0.000 A 
ATOM     27  N   UNL     1      48.894   3.655  18.824  0.00  0.00    +0.000 NA
ATOM     28  C   UNL     1      48.131   2.798  18.229  0.00  0.00    +0.000 A 
ATOM     29  N   UNL     1      47.432   3.041  17.073  0.00  0.00    +0.000 N 
ATOM     30  C   UNL     1      47.482   4.245  16.418  0.00  0.00    +0.000 A 
ATOM     31  O   UNL     1      46.744   4.491  15.468  0.00  0.00    +0.000 OA
ATOM     32  C   UNL     1      48.432   5.188  16.967  0.00  0.00    +0.000 A 
ATOM     33  H   UNL     1      46.782   2.362  16.709  0.00  0.00    +0.000 HD
ENDBRANCH  20  23
ENDBRANCH  18  19
ENDBRANCH   7  18
TORSDOF 7
ENDMDL
MODEL 2
REMARK VINA RESULT:    -8.147      1.426      2.127
REMARK INTER + INTRA:         -12.637
REMARK INTER:                 -11.759
REMARK INTRA:                  -0.878
REMARK UNBOUND:                -1.155
REMARK  Name = 
REMARK  8 active torsions:
REMARK  status: ('A' for Active; 'I' for Inactive)
REMARK    1  A    between atoms: C_1  and  C_2
REMARK    2  A    between atoms: C_4  and  C_5
REMARK    3  A    between atoms: C_5  and  N_6
REMARK    4  A    between atoms: N_6  and  C_7
REMARK    5  A    between atoms: C_7  and  C_8
REMARK    6  A    between atoms: C_16  and  C_17
REMARK    7  A    between atoms: C_17  and  N_18
REMARK    8  A    between atoms: C_19  and  C_21
REMARK                            x       y       z     vdW  Elec       q    Type
REMARK                         _______ _______ _______ _____ _____    ______ ____
ROOT
ATOM      1  C   UNL     1      47.131   3.650  14.101  0.00  0.00    +0.000 C 
ATOM      2  C   UNL     1      46.479   4.624  13.157  0.00  0.00    +0.000 A 
ATOM      3  C   UNL     1      45.329   4.218  12.454  0.00  0.00    +0.000 A 
ATOM      4  C   UNL     1      44.671   5.079  11.566  0.00  0.00    +0.000 A 
ATOM      5  C   UNL     1      45.183   6.369  11.385  0.00  0.00    +0.000 A 
ATOM      6  C   UNL     1      46.327   6.785  12.070  0.00  0.00    +0.000 A 
ATOM      7  C   UNL     1      46.981   5.929  12.974  0.00  0.00    +0.000 A 
ENDROOT
BRANCH   4   8
ATOM      8  C   UNL     1      43.436   4.628  10.822  0.00  0.00    +0.000 C 
BRANCH   8   9
ATOM      9  N   UNL     1      43.781   3.627   9.814  0.00  0.00    +0.000 NA
ATOM     10  H   UNL     1      42.917   3.246   9.428  0.00  0.00    +0.000 HD
BRANCH   9  11
ATOM     11  C   UNL     1      44.596   4.186   8.741  0.00  0.00    +0.000 C 
BRANCH  11  12
ATOM     12  C   UNL     1      45.545   3.155   8.211  0.00  0.00    +0.000 A 
ATOM     13  C   UNL     1      45.532   1.839   8.626  0.00  0.00    +0.000 A 
ATOM     14  N   UNL     1      46.382   0.897   8.169  0.00  0.00    +0.000 NA
ATOM     15  C   UNL     1      47.269   1.311   7.250  0.00  0.00    +0.000 A 
ATOM     16  N   UNL     1      47.376   2.554   6.760  0.00  0.00    +0.000 NA
ATOM     17  C   UNL     1      46.503   3.452   7.260  0.00  0.00    +0.000 A 
ENDBRANCH  11  12
ENDBRANCH   9  11
ENDBRANCH   8   9
ENDBRANCH   4   8
BRANCH   7  18
ATOM     18  C   UNL     1      48.209   6.433  13.701  0.00  0.00    +0.000 C 
BRANCH  18  19
ATOM     19  N   UNL     1      47.949   6.679  15.098  0.00  0.00    +0.000 N 
ATOM     20  C   UNL     1      48.950   6.592  16.035  0.00  0.00    +0.000 C 
ATOM     21  O   UNL     1      50.103   6.302  15.724  0.00  0.00    +0.000 OA
ATOM     22  H   UNL     1      47.087   7.163  15.325  0.00  0.00    +0.000 HD
BRANCH  20  23
ATOM     23  C   UNL     1      48.560   6.771  17.442  0.00  0.00    +0.000 A 
ATOM     24  C   UNL     1      48.313   8.041  17.949  0.00  0.00    +0.000 A 
ATOM     25  S   UNL     1      48.187   8.076  19.654  0.00  0.00    +0.000 S 
ATOM     26  C   UNL     1      48.394   6.390  19.754  0.00  0.00    +0.000 A 
ATOM     27  N   UNL     1      48.500   5.754  20.952  0.00  0.00    +0.000 NA
ATOM     28  C   UNL     1      48.608   4.470  20.864  0.00  0.00    +0.000 A 
ATOM     29  N   UNL     1      48.566   3.758  19.691  0.00  0.00    +0.000 N 
ATOM     30  C   UNL     1      48.409   4.359  18.467  0.00  0.00    +0.000 A 
ATOM     31  O   UNL     1      48.234   3.700  17.446  0.00  0.00    +0.000 OA
ATOM     32  C   UNL     1      48.428   5.805  18.502  0.00  0.00    +0.000 A 
ATOM     33  H   UNL     1      48.564   2.751  19.697  0.00  0.00    +0.000 HD
ENDBRANCH  20  23
ENDBRANCH  18  19
ENDBRANCH   7  18
TORSDOF 7
ENDMDL
MODEL 3
REMARK VINA RESULT:    -7.551      1.917      2.234
REMARK INTER + INTRA:         -11.797
REMARK INTER:                 -10.858
REMARK INTRA:                  -0.939
REMARK UNBOUND:                -1.155
REMARK  Name = 
REMARK  8 active torsions:
REMARK  status: ('A' for Active; 'I' for Inactive)
REMARK    1  A    between atoms: C_1  and  C_2
REMARK    2  A    between atoms: C_4  and  C_5
REMARK    3  A    between atoms: C_5  and  N_6
REMARK    4  A    between atoms: N_6  and  C_7
REMARK    5  A    between atoms: C_7  and  C_8
REMARK    6  A    between atoms: C_16  and  C_17
REMARK    7  A    between atoms: C_17  and  N_18
REMARK    8  A    between atoms: C_19  and  C_21
REMARK                            x       y       z     vdW  Elec       q    Type
REMARK                         _______ _______ _______ _____ _____    ______ ____
ROOT
ATOM      1  C   UNL     1      48.106   8.081  11.826  0.00  0.00    +0.000 C 
ATOM      2  C   UNL     1      47.415   6.888  12.429  0.00  0.00    +0.000 A 
ATOM      3  C   UNL     1      46.545   6.132  11.623  0.00  0.00    +0.000 A 
ATOM      4  C   UNL     1      45.877   5.006  12.121  0.00  0.00    +0.000 A 
ATOM      5  C   UNL     1      46.091   4.639  13.455  0.00  0.00    +0.000 A 
ATOM      6  C   UNL     1      46.946   5.384  14.271  0.00  0.00    +0.000 A 
ATOM      7  C   UNL     1      47.631   6.505  13.769  0.00  0.00    +0.000 A 
ENDROOT
BRANCH   4   8
ATOM      8  C   UNL     1      44.947   4.203  11.241  0.00  0.00    +0.000 C 
BRANCH   8   9
ATOM      9  N   UNL     1      45.092   4.603   9.843  0.00  0.00    +0.000 NA
ATOM     10  H   UNL     1      46.085   4.719   9.641  0.00  0.00    +0.000 HD
BRANCH   9  11
ATOM     11  C   UNL     1      44.514   3.624   8.928  0.00  0.00    +0.000 C 
BRANCH  11  12
ATOM     12  C   UNL     1      45.592   2.804   8.288  0.00  0.00    +0.000 A 
ATOM     13  C   UNL     1      45.696   1.439   8.458  0.00  0.00    +0.000 A 
ATOM     14  N   UNL     1      46.663   0.682   7.898  0.00  0.00    +0.000 NA
ATOM     15  C   UNL     1      47.546   1.341   7.132  0.00  0.00    +0.000 A 
ATOM     16  N   UNL     1      47.547   2.658   6.882  0.00  0.00    +0.000 NA
ATOM     17  C   UNL     1      46.560   3.361   7.474  0.00  0.00    +0.000 A 
ENDBRANCH  11  12
ENDBRANCH   9  11
ENDBRANCH   8   9
ENDBRANCH   4   8
BRANCH   7  18
ATOM     18  C   UNL     1      48.557   7.269  14.690  0.00  0.00    +0.000 C 
BRANCH  18  19
ATOM     19  N   UNL     1      49.464   6.395  15.393  0.00  0.00    +0.000 N 
ATOM     20  C   UNL     1      49.296   6.117  16.729  0.00  0.00    +0.000 C 
ATOM     21  O   UNL     1      48.371   6.601  17.377  0.00  0.00    +0.000 OA
ATOM     22  H   UNL     1      50.057   5.799  14.826  0.00  0.00    +0.000 HD
BRANCH  20  23
ATOM     23  C   UNL     1      50.329   5.289  17.370  0.00  0.00    +0.000 A 
ATOM     24  C   UNL     1      51.432   5.879  17.975  0.00  0.00    +0.000 A 
ATOM     25  S   UNL     1      52.662   4.762  18.377  0.00  0.00    +0.000 S 
ATOM     26  C   UNL     1      51.728   3.455  17.815  0.00  0.00    +0.000 A 
ATOM     27  N   UNL     1      52.228   2.192  17.763  0.00  0.00    +0.000 NA
ATOM     28  C   UNL     1      51.384   1.302  17.356  0.00  0.00    +0.000 A 
ATOM     29  N   UNL     1      50.070   1.552  17.047  0.00  0.00    +0.000 N 
ATOM     30  C   UNL     1      49.515   2.804  17.136  0.00  0.00    +0.000 A 
ATOM     31  O   UNL     1      48.309   2.984  16.993  0.00  0.00    +0.000 OA
ATOM     32  C   UNL     1      50.456   3.857  17.450  0.00  0.00    +0.000 A 
ATOM     33  H   UNL     1      49.439   0.799  16.824  0.00  0.00    +0.000 HD
ENDBRANCH  20  23
ENDBRANCH  18  19
ENDBRANCH   7  18
TORSDOF 7
ENDMDL
MODEL 4
REMARK VINA RESULT:    -7.108      1.687      2.069
REMARK INTER + INTRA:         -11.173
REMARK INTER:                 -10.164
REMARK INTRA:                  -1.009
REMARK UNBOUND:                -1.155
REMARK  Name = 
REMARK  8 active torsions:
REMARK  status: ('A' for Active; 'I' for Inactive)
REMARK    1  A    between atoms: C_1  and  C_2
REMARK    2  A    between atoms: C_4  and  C_5
REMARK    3  A    between atoms: C_5  and  N_6
REMARK    4  A    between atoms: N_6  and  C_7
REMARK    5  A    between atoms: C_7  and  C_8
REMARK    6  A    between atoms: C_16  and  C_17
REMARK    7  A    between atoms: C_17  and  N_18
REMARK    8  A    between atoms: C_19  and  C_21
REMARK                            x       y       z     vdW  Elec       q    Type
REMARK                         _______ _______ _______ _____ _____    ______ ____
ROOT
ATOM      1  C   UNL     1      46.665   9.196  12.004  0.00  0.00    +0.000 C 
ATOM      2  C   UNL     1      46.467   7.725  12.248  0.00  0.00    +0.000 A 
ATOM      3  C   UNL     1      45.404   7.068  11.599  0.00  0.00    +0.000 A 
ATOM      4  C   UNL     1      45.171   5.699  11.778  0.00  0.00    +0.000 A 
ATOM      5  C   UNL     1      46.023   4.981  12.625  0.00  0.00    +0.000 A 
ATOM      6  C   UNL     1      47.079   5.619  13.281  0.00  0.00    +0.000 A 
ATOM      7  C   UNL     1      47.326   6.991  13.092  0.00  0.00    +0.000 A 
ENDROOT
BRANCH   4   8
ATOM      8  C   UNL     1      44.026   5.009  11.072  0.00  0.00    +0.000 C 
BRANCH   8   9
ATOM      9  N   UNL     1      44.502   3.825  10.359  0.00  0.00    +0.000 NA
ATOM     10  H   UNL     1      43.872   3.049  10.565  0.00  0.00    +0.000 HD
BRANCH   9  11
ATOM     11  C   UNL     1      44.565   4.039   8.918  0.00  0.00    +0.000 C 
BRANCH  11  12
ATOM     12  C   UNL     1      45.548   3.099   8.290  0.00  0.00    +0.000 A 
ATOM     13  C   UNL     1      46.472   3.500   7.346  0.00  0.00    +0.000 A 
ATOM     14  N   UNL     1      47.360   2.670   6.762  0.00  0.00    +0.000 NA
ATOM     15  C   UNL     1      47.309   1.389   7.161  0.00  0.00    +0.000 A 
ATOM     16  N   UNL     1      46.469   0.880   8.073  0.00  0.00    +0.000 NA
ATOM     17  C   UNL     1      45.601   1.758   8.618  0.00  0.00    +0.000 A 
ENDBRANCH  11  12
ENDBRANCH   9  11
ENDBRANCH   8   9
ENDBRANCH   4   8
BRANCH   7  18
ATOM     18  C   UNL     1      48.490   7.631  13.816  0.00  0.00    +0.000 C 
BRANCH  18  19
ATOM     19  N   UNL     1      48.721   7.032  15.107  0.00  0.00    +0.000 N 
ATOM     20  C   UNL     1      49.979   6.991  15.660  0.00  0.00    +0.000 C 
ATOM     21  O   UNL     1      50.954   7.460  15.079  0.00  0.00    +0.000 OA
ATOM     22  H   UNL     1      47.908   6.884  15.695  0.00  0.00    +0.000 HD
BRANCH  20  23
ATOM     23  C   UNL     1      50.120   6.277  16.938  0.00  0.00    +0.000 A 
ATOM     24  C   UNL     1      51.129   5.337  17.113  0.00  0.00    +0.000 A 
ATOM     25  S   UNL     1      50.939   4.396  18.528  0.00  0.00    +0.000 S 
ATOM     26  C   UNL     1      49.545   5.262  18.977  0.00  0.00    +0.000 A 
ATOM     27  N   UNL     1      48.798   4.902  20.055  0.00  0.00    +0.000 NA
ATOM     28  C   UNL     1      47.797   5.683  20.293  0.00  0.00    +0.000 A 
ATOM     29  N   UNL     1      47.504   6.821  19.583  0.00  0.00    +0.000 N 
ATOM     30  C   UNL     1      48.262   7.245  18.520  0.00  0.00    +0.000 A 
ATOM     31  O   UNL     1      48.070   8.333  17.987  0.00  0.00    +0.000 OA
ATOM     32  C   UNL     1      49.310   6.328  18.127  0.00  0.00    +0.000 A 
ATOM     33  H   UNL     1      46.763   7.437  19.875  0.00  0.00    +0.000 HD
ENDBRANCH  20  23
ENDBRANCH  18  19
ENDBRANCH   7  18
TORSDOF 7
ENDMDL
MODEL 5
REMARK VINA RESULT:    -7.035      3.211      7.606
REMARK INTER + INTRA:         -11.070
REMARK INTER:                  -9.653
REMARK INTRA:                  -1.417
REMARK UNBOUND:                -1.155
REMARK  Name = 
REMARK  8 active torsions:
REMARK  status: ('A' for Active; 'I' for Inactive)
REMARK    1  A    between atoms: C_1  and  C_2
REMARK    2  A    between atoms: C_4  and  C_5
REMARK    3  A    between atoms: C_5  and  N_6
REMARK    4  A    between atoms: N_6  and  C_7
REMARK    5  A    between atoms: C_7  and  C_8
REMARK    6  A    between atoms: C_16  and  C_17
REMARK    7  A    between atoms: C_17  and  N_18
REMARK    8  A    between atoms: C_19  and  C_21
REMARK                            x       y       z     vdW  Elec       q    Type
REMARK                         _______ _______ _______ _____ _____    ______ ____
ROOT
ATOM      1  C   UNL     1      48.707  10.747  13.922  0.00  0.00    +0.000 C 
ATOM      2  C   UNL     1      48.696   9.320  14.400  0.00  0.00    +0.000 A 
ATOM      3  C   UNL     1      48.946   9.060  15.761  0.00  0.00    +0.000 A 
ATOM      4  C   UNL     1      48.943   7.755  16.269  0.00  0.00    +0.000 A 
ATOM      5  C   UNL     1      48.685   6.696  15.391  0.00  0.00    +0.000 A 
ATOM      6  C   UNL     1      48.442   6.937  14.036  0.00  0.00    +0.000 A 
ATOM      7  C   UNL     1      48.429   8.247  13.525  0.00  0.00    +0.000 A 
ENDROOT
BRANCH   4   8
ATOM      8  C   UNL     1      49.210   7.493  17.734  0.00  0.00    +0.000 C 
BRANCH   8   9
ATOM      9  N   UNL     1      47.991   7.051  18.407  0.00  0.00    +0.000 NA
ATOM     10  H   UNL     1      47.261   6.928  17.705  0.00  0.00    +0.000 HD
BRANCH   9  11
ATOM     11  C   UNL     1      48.188   5.803  19.136  0.00  0.00    +0.000 C 
BRANCH  11  12
ATOM     12  C   UNL     1      48.216   4.641  18.191  0.00  0.00    +0.000 A 
ATOM     13  C   UNL     1      49.332   3.850  18.008  0.00  0.00    +0.000 A 
ATOM     14  N   UNL     1      49.383   2.805  17.156  0.00  0.00    +0.000 NA
ATOM     15  C   UNL     1      48.253   2.554  16.476  0.00  0.00    +0.000 A 
ATOM     16  N   UNL     1      47.105   3.239  16.573  0.00  0.00    +0.000 NA
ATOM     17  C   UNL     1      47.118   4.275  17.435  0.00  0.00    +0.000 A 
ENDBRANCH  11  12
ENDBRANCH   9  11
ENDBRANCH   8   9
ENDBRANCH   4   8
BRANCH   7  18
ATOM     18  C   UNL     1      48.147   8.454  12.053  0.00  0.00    +0.000 C 
BRANCH  18  19
ATOM     19  N   UNL     1      47.578   7.280  11.439  0.00  0.00    +0.000 N 
ATOM     20  C   UNL     1      46.219   7.076  11.412  0.00  0.00    +0.000 C 
ATOM     21  O   UNL     1      45.436   7.883  11.908  0.00  0.00    +0.000 OA
ATOM     22  H   UNL     1      48.178   6.754  10.812  0.00  0.00    +0.000 HD
BRANCH  20  23
ATOM     23  C   UNL     1      45.748   5.804  10.844  0.00  0.00    +0.000 A 
ATOM     24  C   UNL     1      45.855   5.558   9.480  0.00  0.00    +0.000 A 
ATOM     25  S   UNL     1      44.978   4.182   8.970  0.00  0.00    +0.000 S 
ATOM     26  C   UNL     1      44.489   3.841  10.564  0.00  0.00    +0.000 A 
ATOM     27  N   UNL     1      43.613   2.838  10.842  0.00  0.00    +0.000 NA
ATOM     28  C   UNL     1      43.375   2.675  12.102  0.00  0.00    +0.000 A 
ATOM     29  N   UNL     1      43.972   3.387  13.111  0.00  0.00    +0.000 N 
ATOM     30  C   UNL     1      44.898   4.372  12.873  0.00  0.00    +0.000 A 
ATOM     31  O   UNL     1      45.524   4.900  13.788  0.00  0.00    +0.000 OA
ATOM     32  C   UNL     1      45.092   4.688  11.475  0.00  0.00    +0.000 A 
ATOM     33  H   UNL     1      43.812   3.150  14.077  0.00  0.00    +0.000 HD
ENDBRANCH  20  23
ENDBRANCH  18  19
ENDBRANCH   7  18
TORSDOF 7
ENDMDL
MODEL 6
REMARK VINA RESULT:    -6.870      3.422      4.755
REMARK INTER + INTRA:         -10.837
REMARK INTER:                  -9.843
REMARK INTRA:                  -0.994
REMARK UNBOUND:                -1.155
REMARK  Name = 
REMARK  8 active torsions:
REMARK  status: ('A' for Active; 'I' for Inactive)
REMARK    1  A    between atoms: C_1  and  C_2
REMARK    2  A    between atoms: C_4  and  C_5
REMARK    3  A    between atoms: C_5  and  N_6
REMARK    4  A    between atoms: N_6  and  C_7
REMARK    5  A    between atoms: C_7  and  C_8
REMARK    6  A    between atoms: C_16  and  C_17
REMARK    7  A    between atoms: C_17  and  N_18
REMARK    8  A    between atoms: C_19  and  C_21
REMARK                            x       y       z     vdW  Elec       q    Type
REMARK                         _______ _______ _______ _____ _____    ______ ____
ROOT
ATOM      1  C   UNL     1      44.860   8.481  11.425  0.00  0.00    +0.000 C 
ATOM      2  C   UNL     1      45.154   7.071  11.861  0.00  0.00    +0.000 A 
ATOM      3  C   UNL     1      44.428   6.016  11.277  0.00  0.00    +0.000 A 
ATOM      4  C   UNL     1      44.659   4.682  11.633  0.00  0.00    +0.000 A 
ATOM      5  C   UNL     1      45.638   4.407  12.595  0.00  0.00    +0.000 A 
ATOM      6  C   UNL     1      46.363   5.443  13.189  0.00  0.00    +0.000 A 
ATOM      7  C   UNL     1      46.145   6.783  12.823  0.00  0.00    +0.000 A 
ENDROOT
BRANCH   4   8
ATOM      8  C   UNL     1      43.871   3.561  10.993  0.00  0.00    +0.000 C 
BRANCH   8   9
ATOM      9  N   UNL     1      44.769   2.517  10.506  0.00  0.00    +0.000 NA
ATOM     10  H   UNL     1      44.704   1.715  11.134  0.00  0.00    +0.000 HD
BRANCH   9  11
ATOM     11  C   UNL     1      44.443   2.103   9.145  0.00  0.00    +0.000 C 
BRANCH  11  12
ATOM     12  C   UNL     1      45.660   2.157   8.274  0.00  0.00    +0.000 A 
ATOM     13  C   UNL     1      46.128   3.327   7.710  0.00  0.00    +0.000 A 
ATOM     14  N   UNL     1      47.216   3.398   6.915  0.00  0.00    +0.000 NA
ATOM     15  C   UNL     1      47.853   2.237   6.697  0.00  0.00    +0.000 A 
ATOM     16  N   UNL     1      47.506   1.041   7.193  0.00  0.00    +0.000 NA
ATOM     17  C   UNL     1      46.407   1.033   7.975  0.00  0.00    +0.000 A 
ENDBRANCH  11  12
ENDBRANCH   9  11
ENDBRANCH   8   9
ENDBRANCH   4   8
BRANCH   7  18
ATOM     18  C   UNL     1      46.967   7.866  13.487  0.00  0.00    +0.000 C 
BRANCH  18  19
ATOM     19  N   UNL     1      48.191   8.131  12.773  0.00  0.00    +0.000 N 
ATOM     20  C   UNL     1      49.387   7.589  13.181  0.00  0.00    +0.000 C 
ATOM     21  O   UNL     1      49.462   6.860  14.167  0.00  0.00    +0.000 OA
ATOM     22  H   UNL     1      48.102   8.504  11.834  0.00  0.00    +0.000 HD
BRANCH  20  23
ATOM     23  C   UNL     1      50.589   7.997  12.438  0.00  0.00    +0.000 A 
ATOM     24  C   UNL     1      50.701   7.734  11.078  0.00  0.00    +0.000 A 
ATOM     25  S   UNL     1      52.276   7.991  10.466  0.00  0.00    +0.000 S 
ATOM     26  C   UNL     1      52.833   8.523  11.984  0.00  0.00    +0.000 A 
ATOM     27  N   UNL     1      54.145   8.806  12.203  0.00  0.00    +0.000 NA
ATOM     28  C   UNL     1      54.404   9.241  13.392  0.00  0.00    +0.000 A 
ATOM     29  N   UNL     1      53.463   9.468  14.365  0.00  0.00    +0.000 N 
ATOM     30  C   UNL     1      52.124   9.243  14.166  0.00  0.00    +0.000 A 
ATOM     31  O   UNL     1      51.285   9.583  14.995  0.00  0.00    +0.000 OA
ATOM     32  C   UNL     1      51.802   8.622  12.899  0.00  0.00    +0.000 A 
ATOM     33  H   UNL     1      53.717   9.894  15.242  0.00  0.00    +0.000 HD
ENDBRANCH  20  23
ENDBRANCH  18  19
ENDBRANCH   7  18
TORSDOF 7
ENDMDL
MODEL 7
REMARK VINA RESULT:    -6.832      2.968      7.986
REMARK INTER + INTRA:         -10.783
REMARK INTER:                  -9.700
REMARK INTRA:                  -1.083
REMARK UNBOUND:                -1.155
REMARK  Name = 
REMARK  8 active torsions:
REMARK  status: ('A' for Active; 'I' for Inactive)
REMARK    1  A    between atoms: C_1  and  C_2
REMARK    2  A    between atoms: C_4  and  C_5
REMARK    3  A    between atoms: C_5  and  N_6
REMARK    4  A    between atoms: N_6  and  C_7
REMARK    5  A    between atoms: C_7  and  C_8
REMARK    6  A    between atoms: C_16  and  C_17
REMARK    7  A    between atoms: C_17  and  N_18
REMARK    8  A    between atoms: C_19  and  C_21
REMARK                            x       y       z     vdW  Elec       q    Type
REMARK                         _______ _______ _______ _____ _____    ______ ____
ROOT
ATOM      1  C   UNL     1      51.108   8.603  12.425  0.00  0.00    +0.000 C 
ATOM      2  C   UNL     1      50.288   7.931  13.493  0.00  0.00    +0.000 A 
ATOM      3  C   UNL     1      50.847   7.773  14.775  0.00  0.00    +0.000 A 
ATOM      4  C   UNL     1      50.133   7.163  15.815  0.00  0.00    +0.000 A 
ATOM      5  C   UNL     1      48.836   6.705  15.555  0.00  0.00    +0.000 A 
ATOM      6  C   UNL     1      48.271   6.847  14.286  0.00  0.00    +0.000 A 
ATOM      7  C   UNL     1      48.978   7.473  13.244  0.00  0.00    +0.000 A 
ENDROOT
BRANCH   4   8
ATOM      8  C   UNL     1      50.747   7.004  17.187  0.00  0.00    +0.000 C 
BRANCH   8   9
ATOM      9  N   UNL     1      51.535   5.776  17.257  0.00  0.00    +0.000 NA
ATOM     10  H   UNL     1      52.497   6.022  17.490  0.00  0.00    +0.000 HD
BRANCH   9  11
ATOM     11  C   UNL     1      51.012   4.843  18.250  0.00  0.00    +0.000 C 
BRANCH  11  12
ATOM     12  C   UNL     1      50.082   3.859  17.607  0.00  0.00    +0.000 A 
ATOM     13  C   UNL     1      50.520   2.702  16.997  0.00  0.00    +0.000 A 
ATOM     14  N   UNL     1      49.702   1.807  16.405  0.00  0.00    +0.000 NA
ATOM     15  C   UNL     1      48.393   2.099  16.447  0.00  0.00    +0.000 A 
ATOM     16  N   UNL     1      47.844   3.182  17.016  0.00  0.00    +0.000 NA
ATOM     17  C   UNL     1      48.712   4.042  17.585  0.00  0.00    +0.000 A 
ENDBRANCH  11  12
ENDBRANCH   9  11
ENDBRANCH   8   9
ENDBRANCH   4   8
BRANCH   7  18
ATOM     18  C   UNL     1      48.314   7.615  11.892  0.00  0.00    +0.000 C 
BRANCH  18  19
ATOM     19  N   UNL     1      47.228   6.683  11.721  0.00  0.00    +0.000 N 
ATOM     20  C   UNL     1      45.930   7.115  11.585  0.00  0.00    +0.000 C 
ATOM     21  O   UNL     1      45.643   8.309  11.606  0.00  0.00    +0.000 OA
ATOM     22  H   UNL     1      47.475   5.738  11.444  0.00  0.00    +0.000 HD
BRANCH  20  23
ATOM     23  C   UNL     1      44.889   6.079  11.508  0.00  0.00    +0.000 A 
ATOM     24  C   UNL     1      43.863   6.039  12.445  0.00  0.00    +0.000 A 
ATOM     25  S   UNL     1      42.945   4.598  12.382  0.00  0.00    +0.000 S 
ATOM     26  C   UNL     1      43.850   4.020  11.062  0.00  0.00    +0.000 A 
ATOM     27  N   UNL     1      43.662   2.769  10.562  0.00  0.00    +0.000 NA
ATOM     28  C   UNL     1      44.393   2.493   9.532  0.00  0.00    +0.000 A 
ATOM     29  N   UNL     1      45.256   3.371   8.925  0.00  0.00    +0.000 N 
ATOM     30  C   UNL     1      45.435   4.657   9.369  0.00  0.00    +0.000 A 
ATOM     31  O   UNL     1      46.101   5.469   8.734  0.00  0.00    +0.000 OA
ATOM     32  C   UNL     1      44.746   4.968  10.603  0.00  0.00    +0.000 A 
ATOM     33  H   UNL     1      45.729   3.125   8.071  0.00  0.00    +0.000 HD
ENDBRANCH  20  23
ENDBRANCH  18  19
ENDBRANCH   7  18
TORSDOF 7
ENDMDL
MODEL 8
REMARK VINA RESULT:    -6.660      3.685      7.822
REMARK INTER + INTRA:         -10.541
REMARK INTER:                  -8.734
REMARK INTRA:                  -1.807
REMARK UNBOUND:                -1.155
REMARK  Name = 
REMARK  8 active torsions:
REMARK  status: ('A' for Active; 'I' for Inactive)
REMARK    1  A    between atoms: C_1  and  C_2
REMARK    2  A    between atoms: C_4  and  C_5
REMARK    3  A    between atoms: C_5  and  N_6
REMARK    4  A    between atoms: N_6  and  C_7
REMARK    5  A    between atoms: C_7  and  C_8
REMARK    6  A    between atoms: C_16  and  C_17
REMARK    7  A    between atoms: C_17  and  N_18
REMARK    8  A    between atoms: C_19  and  C_21
REMARK                            x       y       z     vdW  Elec       q    Type
REMARK                         _______ _______ _______ _____ _____    ______ ____
ROOT
ATOM      1  C   UNL     1      50.643   7.455  15.470  0.00  0.00    +0.000 C 
ATOM      2  C   UNL     1      49.954   7.617  16.798  0.00  0.00    +0.000 A 
ATOM      3  C   UNL     1      50.376   6.822  17.880  0.00  0.00    +0.000 A 
ATOM      4  C   UNL     1      49.781   6.931  19.144  0.00  0.00    +0.000 A 
ATOM      5  C   UNL     1      48.745   7.855  19.317  0.00  0.00    +0.000 A 
ATOM      6  C   UNL     1      48.310   8.647  18.251  0.00  0.00    +0.000 A 
ATOM      7  C   UNL     1      48.915   8.552  16.985  0.00  0.00    +0.000 A 
ENDROOT
BRANCH   4   8
ATOM      8  C   UNL     1      50.248   6.071  20.296  0.00  0.00    +0.000 C 
BRANCH   8   9
ATOM      9  N   UNL     1      50.103   4.654  19.971  0.00  0.00    +0.000 NA
ATOM     10  H   UNL     1      50.537   4.105  20.713  0.00  0.00    +0.000 HD
BRANCH   9  11
ATOM     11  C   UNL     1      48.705   4.264  19.824  0.00  0.00    +0.000 C 
BRANCH  11  12
ATOM     12  C   UNL     1      48.445   3.748  18.442  0.00  0.00    +0.000 A 
ATOM     13  C   UNL     1      49.347   2.962  17.753  0.00  0.00    +0.000 A 
ATOM     14  N   UNL     1      49.138   2.494  16.505  0.00  0.00    +0.000 NA
ATOM     15  C   UNL     1      47.965   2.832  15.946  0.00  0.00    +0.000 A 
ATOM     16  N   UNL     1      47.006   3.577  16.514  0.00  0.00    +0.000 NA
ATOM     17  C   UNL     1      47.275   4.020  17.758  0.00  0.00    +0.000 A 
ENDBRANCH  11  12
ENDBRANCH   9  11
ENDBRANCH   8   9
ENDBRANCH   4   8
BRANCH   7  18
ATOM     18  C   UNL     1      48.416   9.442  15.868  0.00  0.00    +0.000 C 
BRANCH  18  19
ATOM     19  N   UNL     1      47.449   8.774  15.033  0.00  0.00    +0.000 N 
ATOM     20  C   UNL     1      47.623   8.682  13.673  0.00  0.00    +0.000 C 
ATOM     21  O   UNL     1      48.604   9.165  13.114  0.00  0.00    +0.000 OA
ATOM     22  H   UNL     1      46.789   8.160  15.499  0.00  0.00    +0.000 HD
BRANCH  20  23
ATOM     23  C   UNL     1      46.533   8.061  12.904  0.00  0.00    +0.000 A 
ATOM     24  C   UNL     1      45.725   8.832  12.077  0.00  0.00    +0.000 A 
ATOM     25  S   UNL     1      44.337   8.003  11.523  0.00  0.00    +0.000 S 
ATOM     26  C   UNL     1      44.811   6.575  12.319  0.00  0.00    +0.000 A 
ATOM     27  N   UNL     1      44.009   5.477  12.352  0.00  0.00    +0.000 NA
ATOM     28  C   UNL     1      44.527   4.458  12.955  0.00  0.00    +0.000 A 
ATOM     29  N   UNL     1      45.794   4.420  13.481  0.00  0.00    +0.000 N 
ATOM     30  C   UNL     1      46.651   5.490  13.423  0.00  0.00    +0.000 A 
ATOM     31  O   UNL     1      47.824   5.394  13.771  0.00  0.00    +0.000 OA
ATOM     32  C   UNL     1      46.066   6.699  12.884  0.00  0.00    +0.000 A 
ATOM     33  H   UNL     1      46.173   3.566  13.858  0.00  0.00    +0.000 HD
ENDBRANCH  20  23
ENDBRANCH  18  19
ENDBRANCH   7  18
TORSDOF 7
ENDMDL
MODEL 9
REMARK VINA RESULT:    -6.531      5.081      7.391
REMARK INTER + INTRA:         -10.359
REMARK INTER:                  -9.019
REMARK INTRA:                  -1.340
REMARK UNBOUND:                -1.155
REMARK  Name = 
REMARK  8 active torsions:
REMARK  status: ('A' for Active; 'I' for Inactive)
REMARK    1  A    between atoms: C_1  and  C_2
REMARK    2  A    between atoms: C_4  and  C_5
REMARK    3  A    between atoms: C_5  and  N_6
REMARK    4  A    between atoms: N_6  and  C_7
REMARK    5  A    between atoms: C_7  and  C_8
REMARK    6  A    between atoms: C_16  and  C_17
REMARK    7  A    between atoms: C_17  and  N_18
REMARK    8  A    between atoms: C_19  and  C_21
REMARK                            x       y       z     vdW  Elec       q    Type
REMARK                         _______ _______ _______ _____ _____    ______ ____
ROOT
ATOM      1  C   UNL     1      47.501  10.694  12.155  0.00  0.00    +0.000 C 
ATOM      2  C   UNL     1      48.726   9.890  11.811  0.00  0.00    +0.000 A 
ATOM      3  C   UNL     1      49.784  10.526  11.134  0.00  0.00    +0.000 A 
ATOM      4  C   UNL     1      50.954   9.836  10.792  0.00  0.00    +0.000 A 
ATOM      5  C   UNL     1      51.057   8.484  11.138  0.00  0.00    +0.000 A 
ATOM      6  C   UNL     1      50.013   7.837  11.803  0.00  0.00    +0.000 A 
ATOM      7  C   UNL     1      48.843   8.530  12.163  0.00  0.00    +0.000 A 
ENDROOT
BRANCH   4   8
ATOM      8  C   UNL     1      52.081  10.534  10.067  0.00  0.00    +0.000 C 
BRANCH   8   9
ATOM      9  N   UNL     1      53.296   9.723  10.104  0.00  0.00    +0.000 NA
ATOM     10  H   UNL     1      53.066   8.815  10.510  0.00  0.00    +0.000 HD
BRANCH   9  11
ATOM     11  C   UNL     1      53.873   9.537   8.778  0.00  0.00    +0.000 C 
BRANCH  11  12
ATOM     12  C   UNL     1      53.584   8.158   8.267  0.00  0.00    +0.000 A 
ATOM     13  C   UNL     1      53.081   7.916   7.005  0.00  0.00    +0.000 A 
ATOM     14  N   UNL     1      52.805   6.684   6.529  0.00  0.00    +0.000 NA
ATOM     15  C   UNL     1      53.060   5.666   7.365  0.00  0.00    +0.000 A 
ATOM     16  N   UNL     1      53.557   5.770   8.606  0.00  0.00    +0.000 NA
ATOM     17  C   UNL     1      53.807   7.026   9.028  0.00  0.00    +0.000 A 
ENDBRANCH  11  12
ENDBRANCH   9  11
ENDBRANCH   8   9
ENDBRANCH   4   8
BRANCH   7  18
ATOM     18  C   UNL     1      47.749   7.786  12.895  0.00  0.00    +0.000 C 
BRANCH  18  19
ATOM     19  N   UNL     1      47.258   6.660  12.139  0.00  0.00    +0.000 N 
ATOM     20  C   UNL     1      46.093   6.740  11.414  0.00  0.00    +0.000 C 
ATOM     21  O   UNL     1      45.423   7.769  11.382  0.00  0.00    +0.000 OA
ATOM     22  H   UNL     1      47.919   5.913  11.949  0.00  0.00    +0.000 HD
BRANCH  20  23
ATOM     23  C   UNL     1      45.635   5.508  10.754  0.00  0.00    +0.000 A 
ATOM     24  C   UNL     1      45.722   5.374   9.373  0.00  0.00    +0.000 A 
ATOM     25  S   UNL     1      44.860   4.027   8.769  0.00  0.00    +0.000 S 
ATOM     26  C   UNL     1      44.406   3.550  10.338  0.00  0.00    +0.000 A 
ATOM     27  N   UNL     1      43.553   2.512  10.550  0.00  0.00    +0.000 NA
ATOM     28  C   UNL     1      43.340   2.244  11.796  0.00  0.00    +0.000 A 
ATOM     29  N   UNL     1      43.942   2.885  12.850  0.00  0.00    +0.000 N 
ATOM     30  C   UNL     1      44.847   3.903  12.676  0.00  0.00    +0.000 A 
ATOM     31  O   UNL     1      45.479   4.369  13.620  0.00  0.00    +0.000 OA
ATOM     32  C   UNL     1      45.010   4.334  11.305  0.00  0.00    +0.000 A 
ATOM     33  H   UNL     1      43.804   2.569  13.796  0.00  0.00    +0.000 HD
ENDBRANCH  20  23
ENDBRANCH  18  19
ENDBRANCH   7  18
TORSDOF 7
ENDMDL
