MODEL 1
REMARK VINA RESULT:    -7.627      0.000      0.000
REMARK INTER + INTRA:         -10.206
REMARK INTER:                  -9.634
REMARK INTRA:                  -0.572
REMARK UNBOUND:                -0.572
REMARK  Name = 
REMARK  5 active torsions:
REMARK  status: ('A' for Active; 'I' for Inactive)
REMARK    1  A    between atoms: N_1  and  C_2
REMARK    2  A    between atoms: C_2  and  C_3
REMARK    3  A    between atoms: C_6  and  N_7
REMARK    4  A    between atoms: N_7  and  C_8
REMARK    5  A    between atoms: C_8  and  C_9
REMARK                            x       y       z     vdW  Elec       q    Type
REMARK                         _______ _______ _______ _____ _____    ______ ____
ROOT
ATOM      1  C   UNL     1      46.550   2.068   7.672  0.00  0.00    +0.000 A 
ATOM      2  C   UNL     1      45.568   1.595   8.552  0.00  0.00    +0.000 A 
ATOM      3  C   UNL     1      44.672   2.476   9.165  0.00  0.00    +0.000 A 
ATOM      4  C   UNL     1      44.748   3.850   8.928  0.00  0.00    +0.000 A 
ATOM      5  C   UNL     1      45.669   4.306   7.978  0.00  0.00    +0.000 A 
ATOM      6  C   UNL     1      46.574   3.434   7.370  0.00  0.00    +0.000 A 
ENDROOT
BRANCH   4   7
ATOM      7  N   UNL     1      43.933   4.797   9.546  0.00  0.00    +0.000 N 
ATOM      8  H   UNL     1      43.080   4.962   9.016  0.00  0.00    +0.000 HD
BRANCH   7   9
ATOM      9  C   UNL     1      43.700   4.699  10.979  0.00  0.00    +0.000 C 
BRANCH   9  10
ATOM     10  C   UNL     1      44.938   5.182  11.699  0.00  0.00    +0.000 A 
ATOM     11  C   UNL     1      45.666   6.272  11.187  0.00  0.00    +0.000 A 
ATOM     12  C   UNL     1      46.812   6.735  11.834  0.00  0.00    +0.000 A 
ATOM     13  C   UNL     1      47.250   6.108  12.998  0.00  0.00    +0.000 A 
ATOM     14  C   UNL     1      46.542   5.019  13.505  0.00  0.00    +0.000 A 
ATOM     15 CL   UNL     1      47.089   4.244  14.942  0.00  0.00    +0.000 Cl
ATOM     16  C   UNL     1      45.394   4.552  12.864  0.00  0.00    +0.000 A 
ENDBRANCH   9  10
ENDBRANCH   7   9
ENDBRANCH   4   7
BRANCH   1  17
ATOM     17  C   UNL     1      47.594   1.139   7.108  0.00  0.00    +0.000 C 
BRANCH  17  18
ATOM     18  N   UNL     1      48.342   1.749   6.018  0.00  0.00    +0.000 NA
ATOM     19  H   UNL     1      49.249   2.050   6.368  0.00  0.00    +0.000 HD
ATOM     20  H   UNL     1      47.856   2.591   5.721  0.00  0.00    +0.000 HD
ENDBRANCH  17  18
ENDBRANCH   1  17
TORSDOF 5
ENDMDL
MODEL 2
REMARK VINA RESULT:    -7.588      1.189      1.657
REMARK INTER + INTRA:         -10.156
REMARK INTER:                  -9.530
REMARK INTRA:                  -0.626
REMARK UNBOUND:                -0.572
REMARK  Name = 
REMARK  5 active torsions:
REMARK  status: ('A' for Active; 'I' for Inactive)
REMARK    1  A    between atoms: N_1  and  C_2
REMARK    2  A    between atoms: C_2  and  C_3
REMARK    3  A    between atoms: C_6  and  N_7
REMARK    4  A    between atoms: N_7  and  C_8
REMARK    5  A    between atoms: C_8  and  C_9
REMARK                            x       y       z     vdW  Elec       q    Type
REMARK                         _______ _______ _______ _____ _____    ______ ____
ROOT
ATOM      1  C   UNL     1      46.589   2.091   7.654  0.00  0.00    +0.000 A 
ATOM      2  C   UNL     1      45.612   1.582   8.519  0.00  0.00    +0.000 A 
ATOM      3  C   UNL     1      44.703   2.436   9.152  0.00  0.00    +0.000 A 
ATOM      4  C   UNL     1      44.762   3.816   8.951  0.00  0.00    +0.000 A 
ATOM      5  C   UNL     1      45.678   4.309   8.015  0.00  0.00    +0.000 A 
ATOM      6  C   UNL     1      46.596   3.464   7.387  0.00  0.00    +0.000 A 
ENDROOT
BRANCH   4   7
ATOM      7  N   UNL     1      43.933   4.736   9.591  0.00  0.00    +0.000 N 
ATOM      8  H   UNL     1      43.091   4.922   9.052  0.00  0.00    +0.000 HD
BRANCH   7   9
ATOM      9  C   UNL     1      43.672   4.579  11.015  0.00  0.00    +0.000 C 
BRANCH   9  10
ATOM     10  C   UNL     1      44.938   4.910  11.772  0.00  0.00    +0.000 A 
ATOM     11  C   UNL     1      45.423   4.019  12.748  0.00  0.00    +0.000 A 
ATOM     12  C   UNL     1      46.588   4.303  13.460  0.00  0.00    +0.000 A 
ATOM     13  C   UNL     1      47.280   5.487  13.212  0.00  0.00    +0.000 A 
ATOM     14  C   UNL     1      46.799   6.381  12.255  0.00  0.00    +0.000 A 
ATOM     15 CL   UNL     1      47.653   7.845  11.955  0.00  0.00    +0.000 Cl
ATOM     16  C   UNL     1      45.635   6.102  11.538  0.00  0.00    +0.000 A 
ENDBRANCH   9  10
ENDBRANCH   7   9
ENDBRANCH   4   7
BRANCH   1  17
ATOM     17  C   UNL     1      47.646   1.191   7.069  0.00  0.00    +0.000 C 
BRANCH  17  18
ATOM     18  N   UNL     1      48.343   1.813   5.951  0.00  0.00    +0.000 NA
ATOM     19  H   UNL     1      49.276   1.412   5.880  0.00  0.00    +0.000 HD
ATOM     20  H   UNL     1      48.470   2.800   6.157  0.00  0.00    +0.000 HD
ENDBRANCH  17  18
ENDBRANCH   1  17
TORSDOF 5
ENDMDL
MODEL 3
REMARK VINA RESULT:    -6.920      2.802      5.889
REMARK INTER + INTRA:          -9.312
REMARK INTER:                  -8.841
REMARK INTRA:                  -0.471
REMARK UNBOUND:                -0.572
REMARK  Name = 
REMARK  5 active torsions:
REMARK  status: ('A' for Active; 'I' for Inactive)
REMARK    1  A    between atoms: N_1  and  C_2
REMARK    2  A    between atoms: C_2  and  C_3
REMARK    3  A    between atoms: C_6  and  N_7
REMARK    4  A    between atoms: N_7  and  C_8
REMARK    5  A    between atoms: C_8  and  C_9
REMARK                            x       y       z     vdW  Elec       q    Type
REMARK                         _______ _______ _______ _____ _____    ______ ____
ROOT
ATOM      1  C   UNL     1      47.323   6.085  13.089  0.00  0.00    +0.000 A 
ATOM      2  C   UNL     1      46.557   4.933  13.302  0.00  0.00    +0.000 A 
ATOM      3  C   UNL     1      45.583   4.540  12.378  0.00  0.00    +0.000 A 
ATOM      4  C   UNL     1      45.340   5.300  11.232  0.00  0.00    +0.000 A 
ATOM      5  C   UNL     1      46.171   6.397  10.979  0.00  0.00    +0.000 A 
ATOM      6  C   UNL     1      47.139   6.800  11.901  0.00  0.00    +0.000 A 
ENDROOT
BRANCH   4   7
ATOM      7  N   UNL     1      44.347   5.010  10.297  0.00  0.00    +0.000 N 
ATOM      8  H   UNL     1      44.419   5.606   9.476  0.00  0.00    +0.000 HD
BRANCH   7   9
ATOM      9  C   UNL     1      44.074   3.619   9.967  0.00  0.00    +0.000 C 
BRANCH   9  10
ATOM     10  C   UNL     1      45.087   3.163   8.942  0.00  0.00    +0.000 A 
ATOM     11  C   UNL     1      45.684   4.101   8.080  0.00  0.00    +0.000 A 
ATOM     12  C   UNL     1      46.620   3.703   7.126  0.00  0.00    +0.000 A 
ATOM     13  C   UNL     1      46.966   2.358   7.016  0.00  0.00    +0.000 A 
ATOM     14  C   UNL     1      46.369   1.419   7.858  0.00  0.00    +0.000 A 
ATOM     15 CL   UNL     1      46.795  -0.243   7.715  0.00  0.00    +0.000 Cl
ATOM     16  C   UNL     1      45.433   1.811   8.815  0.00  0.00    +0.000 A 
ENDBRANCH   9  10
ENDBRANCH   7   9
ENDBRANCH   4   7
BRANCH   1  17
ATOM     17  C   UNL     1      48.284   6.578  14.140  0.00  0.00    +0.000 C 
BRANCH  17  18
ATOM     18  N   UNL     1      47.930   6.109  15.473  0.00  0.00    +0.000 NA
ATOM     19  H   UNL     1      47.799   5.100  15.444  0.00  0.00    +0.000 HD
ATOM     20  H   UNL     1      47.030   6.507  15.728  0.00  0.00    +0.000 HD
ENDBRANCH  17  18
ENDBRANCH   1  17
TORSDOF 5
ENDMDL
MODEL 4
REMARK VINA RESULT:    -6.786      3.040      6.222
REMARK INTER + INTRA:          -9.143
REMARK INTER:                  -8.651
REMARK INTRA:                  -0.493
REMARK UNBOUND:                -0.572
REMARK  Name = 
REMARK  5 active torsions:
REMARK  status: ('A' for Active; 'I' for Inactive)
REMARK    1  A    between atoms: N_1  and  C_2
REMARK    2  A    between atoms: C_2  and  C_3
REMARK    3  A    between atoms: C_6  and  N_7
REMARK    4  A    between atoms: N_7  and  C_8
REMARK    5  A    between atoms: C_8  and  C_9
REMARK                            x       y       z     vdW  Elec       q    Type
REMARK                         _______ _______ _______ _____ _____    ______ ____
ROOT
ATOM      1  C   UNL     1      46.866   5.644  13.155  0.00  0.00    +0.000 A 
ATOM      2  C   UNL     1      46.561   6.367  11.994  0.00  0.00    +0.000 A 
ATOM      3  C   UNL     1      45.700   5.838  11.028  0.00  0.00    +0.000 A 
ATOM      4  C   UNL     1      45.141   4.568  11.189  0.00  0.00    +0.000 A 
ATOM      5  C   UNL     1      45.376   3.891  12.391  0.00  0.00    +0.000 A 
ATOM      6  C   UNL     1      46.242   4.409  13.356  0.00  0.00    +0.000 A 
ENDROOT
BRANCH   4   7
ATOM      7  N   UNL     1      44.326   3.946  10.244  0.00  0.00    +0.000 N 
ATOM      8  H   UNL     1      43.350   3.947  10.532  0.00  0.00    +0.000 HD
BRANCH   7   9
ATOM      9  C   UNL     1      44.502   4.272   8.837  0.00  0.00    +0.000 C 
BRANCH   9  10
ATOM     10  C   UNL     1      45.355   3.198   8.201  0.00  0.00    +0.000 A 
ATOM     11  C   UNL     1      45.429   1.922   8.789  0.00  0.00    +0.000 A 
ATOM     12  C   UNL     1      46.211   0.916   8.221  0.00  0.00    +0.000 A 
ATOM     13  C   UNL     1      46.936   1.175   7.060  0.00  0.00    +0.000 A 
ATOM     14  C   UNL     1      46.878   2.441   6.478  0.00  0.00    +0.000 A 
ATOM     15 CL   UNL     1      47.780   2.760   5.046  0.00  0.00    +0.000 Cl
ATOM     16  C   UNL     1      46.097   3.452   7.040  0.00  0.00    +0.000 A 
ENDBRANCH   9  10
ENDBRANCH   7   9
ENDBRANCH   4   7
BRANCH   1  17
ATOM     17  C   UNL     1      47.888   6.157  14.136  0.00  0.00    +0.000 C 
BRANCH  17  18
ATOM     18  N   UNL     1      49.128   6.553  13.483  0.00  0.00    +0.000 NA
ATOM     19  H   UNL     1      49.914   6.216  14.036  0.00  0.00    +0.000 HD
ATOM     20  H   UNL     1      49.188   7.568  13.489  0.00  0.00    +0.000 HD
ENDBRANCH  17  18
ENDBRANCH   1  17
TORSDOF 5
ENDMDL
MODEL 5
REMARK VINA RESULT:    -5.878      3.046      6.003
REMARK INTER + INTRA:          -7.997
REMARK INTER:                  -7.349
REMARK INTRA:                  -0.648
REMARK UNBOUND:                -0.572
REMARK  Name = 
REMARK  5 active torsions:
REMARK  status: ('A' for Active; 'I' for Inactive)
REMARK    1  A    between atoms: N_1  and  C_2
REMARK    2  A    between atoms: C_2  and  C_3
REMARK    3  A    between atoms: C_6  and  N_7
REMARK    4  A    between atoms: N_7  and  C_8
REMARK    5  A    between atoms: C_8  and  C_9
REMARK                            x       y       z     vdW  Elec       q    Type
REMARK                         _______ _______ _______ _____ _____    ______ ____
ROOT
ATOM      1  C   UNL     1      47.346   6.798  13.590  0.00  0.00    +0.000 A 
ATOM      2  C   UNL     1      47.178   5.416  13.744  0.00  0.00    +0.000 A 
ATOM      3  C   UNL     1      46.045   4.772  13.237  0.00  0.00    +0.000 A 
ATOM      4  C   UNL     1      45.046   5.497  12.582  0.00  0.00    +0.000 A 
ATOM      5  C   UNL     1      45.264   6.859  12.350  0.00  0.00    +0.000 A 
ATOM      6  C   UNL     1      46.387   7.511  12.862  0.00  0.00    +0.000 A 
ENDROOT
BRANCH   4   7
ATOM      7  N   UNL     1      43.862   4.939  12.103  0.00  0.00    +0.000 N 
ATOM      8  H   UNL     1      43.082   5.114  12.733  0.00  0.00    +0.000 HD
BRANCH   7   9
ATOM      9  C   UNL     1      43.511   5.123  10.703  0.00  0.00    +0.000 C 
BRANCH   9  10
ATOM     10  C   UNL     1      44.265   4.102   9.882  0.00  0.00    +0.000 A 
ATOM     11  C   UNL     1      44.132   2.732  10.174  0.00  0.00    +0.000 A 
ATOM     12  C   UNL     1      44.819   1.771   9.432  0.00  0.00    +0.000 A 
ATOM     13  C   UNL     1      45.656   2.169   8.392  0.00  0.00    +0.000 A 
ATOM     14  C   UNL     1      45.803   3.526   8.104  0.00  0.00    +0.000 A 
ATOM     15 CL   UNL     1      46.842   4.015   6.821  0.00  0.00    +0.000 Cl
ATOM     16  C   UNL     1      45.118   4.492   8.842  0.00  0.00    +0.000 A 
ENDBRANCH   9  10
ENDBRANCH   7   9
ENDBRANCH   4   7
BRANCH   1  17
ATOM     17  C   UNL     1      48.501   7.512  14.242  0.00  0.00    +0.000 C 
BRANCH  17  18
ATOM     18  N   UNL     1      49.789   7.019  13.773  0.00  0.00    +0.000 NA
ATOM     19  H   UNL     1      49.897   7.262  12.790  0.00  0.00    +0.000 HD
ATOM     20  H   UNL     1      49.784   6.003  13.818  0.00  0.00    +0.000 HD
ENDBRANCH  17  18
ENDBRANCH   1  17
TORSDOF 5
ENDMDL
MODEL 6
REMARK VINA RESULT:    -5.385      3.435      6.580
REMARK INTER + INTRA:          -7.374
REMARK INTER:                  -7.074
REMARK INTRA:                  -0.300
REMARK UNBOUND:                -0.572
REMARK  Name = 
REMARK  5 active torsions:
REMARK  status: ('A' for Active; 'I' for Inactive)
REMARK    1  A    between atoms: N_1  and  C_2
REMARK    2  A    between atoms: C_2  and  C_3
REMARK    3  A    between atoms: C_6  and  N_7
REMARK    4  A    between atoms: N_7  and  C_8
REMARK    5  A    between atoms: C_8  and  C_9
REMARK                            x       y       z     vdW  Elec       q    Type
REMARK                         _______ _______ _______ _____ _____    ______ ____
ROOT
ATOM      1  C   UNL     1      47.748   5.017  15.615  0.00  0.00    +0.000 A 
ATOM      2  C   UNL     1      48.282   6.209  15.106  0.00  0.00    +0.000 A 
ATOM      3  C   UNL     1      47.942   6.656  13.826  0.00  0.00    +0.000 A 
ATOM      4  C   UNL     1      47.077   5.914  13.018  0.00  0.00    +0.000 A 
ATOM      5  C   UNL     1      46.475   4.775  13.566  0.00  0.00    +0.000 A 
ATOM      6  C   UNL     1      46.818   4.317  14.840  0.00  0.00    +0.000 A 
ENDROOT
BRANCH   4   7
ATOM      7  N   UNL     1      46.738   6.260  11.711  0.00  0.00    +0.000 N 
ATOM      8  H   UNL     1      47.361   5.827  11.034  0.00  0.00    +0.000 HD
BRANCH   7   9
ATOM      9  C   UNL     1      45.341   6.210  11.308  0.00  0.00    +0.000 C 
BRANCH   9  10
ATOM     10  C   UNL     1      45.133   4.981  10.452  0.00  0.00    +0.000 A 
ATOM     11  C   UNL     1      44.344   3.919  10.930  0.00  0.00    +0.000 A 
ATOM     12  C   UNL     1      44.139   2.775  10.159  0.00  0.00    +0.000 A 
ATOM     13  C   UNL     1      44.728   2.675   8.900  0.00  0.00    +0.000 A 
ATOM     14  C   UNL     1      45.521   3.718   8.423  0.00  0.00    +0.000 A 
ATOM     15 CL   UNL     1      46.252   3.589   6.870  0.00  0.00    +0.000 Cl
ATOM     16  C   UNL     1      45.729   4.866   9.190  0.00  0.00    +0.000 A 
ENDBRANCH   9  10
ENDBRANCH   7   9
ENDBRANCH   4   7
BRANCH   1  17
ATOM     17  C   UNL     1      48.209   4.470  16.941  0.00  0.00    +0.000 C 
BRANCH  17  18
ATOM     18  N   UNL     1      49.277   3.491  16.792  0.00  0.00    +0.000 NA
ATOM     19  H   UNL     1      50.150   3.981  16.606  0.00  0.00    +0.000 HD
ATOM     20  H   UNL     1      49.086   2.925  15.970  0.00  0.00    +0.000 HD
ENDBRANCH  17  18
ENDBRANCH   1  17
TORSDOF 5
ENDMDL
MODEL 7
REMARK VINA RESULT:    -5.331      4.870      8.074
REMARK INTER + INTRA:          -7.306
REMARK INTER:                  -6.970
REMARK INTRA:                  -0.336
REMARK UNBOUND:                -0.572
REMARK  Name = 
REMARK  5 active torsions:
REMARK  status: ('A' for Active; 'I' for Inactive)
REMARK    1  A    between atoms: N_1  and  C_2
REMARK    2  A    between atoms: C_2  and  C_3
REMARK    3  A    between atoms: C_6  and  N_7
REMARK    4  A    between atoms: N_7  and  C_8
REMARK    5  A    between atoms: C_8  and  C_9
REMARK                            x       y       z     vdW  Elec       q    Type
REMARK                         _______ _______ _______ _____ _____    ______ ____
ROOT
ATOM      1  C   UNL     1      48.810   4.328  18.734  0.00  0.00    +0.000 A 
ATOM      2  C   UNL     1      48.235   3.126  18.301  0.00  0.00    +0.000 A 
ATOM      3  C   UNL     1      47.663   3.025  17.029  0.00  0.00    +0.000 A 
ATOM      4  C   UNL     1      47.635   4.125  16.170  0.00  0.00    +0.000 A 
ATOM      5  C   UNL     1      48.292   5.294  16.572  0.00  0.00    +0.000 A 
ATOM      6  C   UNL     1      48.856   5.406  17.844  0.00  0.00    +0.000 A 
ENDROOT
BRANCH   4   7
ATOM      7  N   UNL     1      47.031   4.122  14.914  0.00  0.00    +0.000 N 
ATOM      8  H   UNL     1      46.107   3.698  14.942  0.00  0.00    +0.000 HD
BRANCH   7   9
ATOM      9  C   UNL     1      47.076   5.332  14.106  0.00  0.00    +0.000 C 
BRANCH   9  10
ATOM     10  C   UNL     1      46.215   5.122  12.881  0.00  0.00    +0.000 A 
ATOM     11  C   UNL     1      46.353   5.977  11.772  0.00  0.00    +0.000 A 
ATOM     12  C   UNL     1      45.569   5.803  10.632  0.00  0.00    +0.000 A 
ATOM     13  C   UNL     1      44.629   4.776  10.589  0.00  0.00    +0.000 A 
ATOM     14  C   UNL     1      44.476   3.932  11.689  0.00  0.00    +0.000 A 
ATOM     15 CL   UNL     1      43.310   2.667  11.634  0.00  0.00    +0.000 Cl
ATOM     16  C   UNL     1      45.259   4.099  12.832  0.00  0.00    +0.000 A 
ENDBRANCH   9  10
ENDBRANCH   7   9
ENDBRANCH   4   7
BRANCH   1  17
ATOM     17  C   UNL     1      49.313   4.477  20.147  0.00  0.00    +0.000 C 
BRANCH  17  18
ATOM     18  N   UNL     1      48.244   4.358  21.128  0.00  0.00    +0.000 NA
ATOM     19  H   UNL     1      47.812   5.271  21.257  0.00  0.00    +0.000 HD
ATOM     20  H   UNL     1      48.652   4.105  22.024  0.00  0.00    +0.000 HD
ENDBRANCH  17  18
ENDBRANCH   1  17
TORSDOF 5
ENDMDL
MODEL 8
REMARK VINA RESULT:    -5.163      4.829      7.446
REMARK INTER + INTRA:          -7.093
REMARK INTER:                  -6.686
REMARK INTRA:                  -0.407
REMARK UNBOUND:                -0.572
REMARK  Name = 
REMARK  5 active torsions:
REMARK  status: ('A' for Active; 'I' for Inactive)
REMARK    1  A    between atoms: N_1  and  C_2
REMARK    2  A    between atoms: C_2  and  C_3
REMARK    3  A    between atoms: C_6  and  N_7
REMARK    4  A    between atoms: N_7  and  C_8
REMARK    5  A    between atoms: C_8  and  C_9
REMARK                            x       y       z     vdW  Elec       q    Type
REMARK                         _______ _______ _______ _____ _____    ______ ____
ROOT
ATOM      1  C   UNL     1      50.304   2.875  17.397  0.00  0.00    +0.000 A 
ATOM      2  C   UNL     1      50.229   4.270  17.505  0.00  0.00    +0.000 A 
ATOM      3  C   UNL     1      49.174   4.977  16.919  0.00  0.00    +0.000 A 
ATOM      4  C   UNL     1      48.182   4.310  16.198  0.00  0.00    +0.000 A 
ATOM      5  C   UNL     1      48.211   2.911  16.173  0.00  0.00    +0.000 A 
ATOM      6  C   UNL     1      49.267   2.199  16.746  0.00  0.00    +0.000 A 
ENDROOT
BRANCH   4   7
ATOM      7  N   UNL     1      47.134   4.947  15.535  0.00  0.00    +0.000 N 
ATOM      8  H   UNL     1      46.452   5.328  16.187  0.00  0.00    +0.000 HD
BRANCH   7   9
ATOM      9  C   UNL     1      47.441   5.856  14.441  0.00  0.00    +0.000 C 
BRANCH   9  10
ATOM     10  C   UNL     1      46.564   5.500  13.262  0.00  0.00    +0.000 A 
ATOM     11  C   UNL     1      46.678   6.222  12.060  0.00  0.00    +0.000 A 
ATOM     12  C   UNL     1      45.879   5.912  10.959  0.00  0.00    +0.000 A 
ATOM     13  C   UNL     1      44.949   4.879  11.049  0.00  0.00    +0.000 A 
ATOM     14  C   UNL     1      44.820   4.166  12.241  0.00  0.00    +0.000 A 
ATOM     15 CL   UNL     1      43.666   2.894  12.351  0.00  0.00    +0.000 Cl
ATOM     16  C   UNL     1      45.617   4.471  13.345  0.00  0.00    +0.000 A 
ENDBRANCH   9  10
ENDBRANCH   7   9
ENDBRANCH   4   7
BRANCH   1  17
ATOM     17  C   UNL     1      51.502   2.125  17.918  0.00  0.00    +0.000 C 
BRANCH  17  18
ATOM     18  N   UNL     1      51.359   0.684  17.761  0.00  0.00    +0.000 NA
ATOM     19  H   UNL     1      52.171   0.226  18.170  0.00  0.00    +0.000 HD
ATOM     20  H   UNL     1      51.376   0.462  16.769  0.00  0.00    +0.000 HD
ENDBRANCH  17  18
ENDBRANCH   1  17
TORSDOF 5
ENDMDL
MODEL 9
REMARK VINA RESULT:    -5.129      2.861      4.417
REMARK INTER + INTRA:          -7.050
REMARK INTER:                  -6.493
REMARK INTRA:                  -0.558
REMARK UNBOUND:                -0.572
REMARK  Name = 
REMARK  5 active torsions:
REMARK  status: ('A' for Active; 'I' for Inactive)
REMARK    1  A    between atoms: N_1  and  C_2
REMARK    2  A    between atoms: C_2  and  C_3
REMARK    3  A    between atoms: C_6  and  N_7
REMARK    4  A    between atoms: N_7  and  C_8
REMARK    5  A    between atoms: C_8  and  C_9
REMARK                            x       y       z     vdW  Elec       q    Type
REMARK                         _______ _______ _______ _____ _____    ______ ____
ROOT
ATOM      1  C   UNL     1      44.818   3.693  10.488  0.00  0.00    +0.000 A 
ATOM      2  C   UNL     1      44.939   3.274  11.819  0.00  0.00    +0.000 A 
ATOM      3  C   UNL     1      45.340   4.168  12.816  0.00  0.00    +0.000 A 
ATOM      4  C   UNL     1      45.648   5.494  12.504  0.00  0.00    +0.000 A 
ATOM      5  C   UNL     1      45.436   5.929  11.191  0.00  0.00    +0.000 A 
ATOM      6  C   UNL     1      45.046   5.040  10.188  0.00  0.00    +0.000 A 
ENDROOT
BRANCH   4   7
ATOM      7  N   UNL     1      46.112   6.428  13.428  0.00  0.00    +0.000 N 
ATOM      8  H   UNL     1      45.496   6.499  14.234  0.00  0.00    +0.000 HD
BRANCH   7   9
ATOM      9  C   UNL     1      47.522   6.420  13.792  0.00  0.00    +0.000 C 
BRANCH   9  10
ATOM     10  C   UNL     1      48.245   7.427  12.927  0.00  0.00    +0.000 A 
ATOM     11  C   UNL     1      47.712   8.718  12.759  0.00  0.00    +0.000 A 
ATOM     12  C   UNL     1      48.361   9.663  11.965  0.00  0.00    +0.000 A 
ATOM     13  C   UNL     1      49.549   9.326  11.320  0.00  0.00    +0.000 A 
ATOM     14  C   UNL     1      50.078   8.045  11.471  0.00  0.00    +0.000 A 
ATOM     15 CL   UNL     1      51.544   7.630  10.669  0.00  0.00    +0.000 Cl
ATOM     16  C   UNL     1      49.434   7.095  12.265  0.00  0.00    +0.000 A 
ENDBRANCH   9  10
ENDBRANCH   7   9
ENDBRANCH   4   7
BRANCH   1  17
ATOM     17  C   UNL     1      44.508   2.705   9.393  0.00  0.00    +0.000 C 
BRANCH  17  18
ATOM     18  N   UNL     1      44.416   3.341   8.086  0.00  0.00    +0.000 NA
ATOM     19  H   UNL     1      45.229   3.079   7.533  0.00  0.00    +0.000 HD
ATOM     20  H   UNL     1      44.467   4.349   8.212  0.00  0.00    +0.000 HD
ENDBRANCH  17  18
ENDBRANCH   1  17
TORSDOF 5
ENDMDL
