MODEL 1
REMARK VINA RESULT:    -8.073      0.000      0.000
REMARK INTER + INTRA:         -12.923
REMARK INTER:                 -11.849
REMARK INTRA:                  -1.075
REMARK UNBOUND:                -1.075
REMARK  Name = 
REMARK  13 active torsions:
REMARK  status: ('A' for Active; 'I' for Inactive)
REMARK    1  A    between atoms: C_1  and  C_2
REMARK    2  A    between atoms: C_2  and  C_3
REMARK    3  A    between atoms: C_5  and  C_6
REMARK    4  A    between atoms: C_5  and  N_7
REMARK    5  A    between atoms: N_7  and  C_8
REMARK    6  A    between atoms: C_10  and  S_11
REMARK    7  A    between atoms: S_11  and  C_12
REMARK    8  A    between atoms: C_12  and  C_13
REMARK    9  A    between atoms: C_13  and  C_14
REMARK   10  A    between atoms: C_13  and  C_15
REMARK   11  A    between atoms: C_13  and  C_16
REMARK   12  A    between atoms: C_19  and  C_20
REMARK   13  A    between atoms: C_26  and  C_27
REMARK                            x       y       z     vdW  Elec       q    Type
REMARK                         _______ _______ _______ _____ _____    ______ ____
ROOT
ATOM      1  C   UNL     1      48.245   6.617  14.593  0.00  0.00    +0.000 A 
ATOM      2  C   UNL     1      47.053   6.443  13.891  0.00  0.00    +0.000 A 
ATOM      3  C   UNL     1      46.951   6.779  12.545  0.00  0.00    +0.000 A 
ATOM      4  C   UNL     1      48.068   7.268  11.868  0.00  0.00    +0.000 A 
ATOM      5  C   UNL     1      49.285   7.446  12.542  0.00  0.00    +0.000 A 
ATOM      6  C   UNL     1      49.364   7.107  13.904  0.00  0.00    +0.000 A 
ENDROOT
BRANCH   5   7
ATOM      7  C   UNL     1      50.475   8.033  11.828  0.00  0.00    +0.000 C 
ATOM      8  F   UNL     1      50.233   9.258  11.286  0.00  0.00    +0.000 F 
ATOM      9  F   UNL     1      51.546   8.198  12.652  0.00  0.00    +0.000 F 
ATOM     10  F   UNL     1      50.909   7.251  10.800  0.00  0.00    +0.000 F 
ENDBRANCH   5   7
BRANCH   1  11
ATOM     11  N   UNL     1      48.311   6.473  15.987  0.00  0.00    +0.000 N 
ATOM     12  H   UNL     1      48.474   7.337  16.497  0.00  0.00    +0.000 HD
BRANCH  11  17
ATOM     13  C   UNL     1      51.094   4.474  18.764  0.00  0.00    +0.000 C 
ATOM     14  C   UNL     1      50.308   5.401  17.850  0.00  0.00    +0.000 C 
ATOM     15  C   UNL     1      51.076   6.690  17.563  0.00  0.00    +0.000 C 
ATOM     16  C   UNL     1      48.835   5.542  18.263  0.00  0.00    +0.000 C 
ATOM     17  C   UNL     1      48.540   5.287  16.762  0.00  0.00    +0.000 C 
ATOM     18  C   UNL     1      47.512   4.226  16.407  0.00  0.00    +0.000 C 
ATOM     19  O   UNL     1      49.896   4.752  16.607  0.00  0.00    +0.000 OA
ENDBRANCH  11  17
ENDBRANCH   1  11
BRANCH   3  20
ATOM     20  S   UNL     1      45.423   6.506  11.692  0.00  0.00    +0.000 S 
BRANCH  20  21
ATOM     21  C   UNL     1      45.162   4.693  11.980  0.00  0.00    +0.000 C 
BRANCH  21  22
ATOM     22  C   UNL     1      44.261   4.030  10.886  0.00  0.00    +0.000 C 
ATOM     23  C   UNL     1      43.558   2.788  11.487  0.00  0.00    +0.000 C 
ATOM     24  C   UNL     1      43.212   5.056  10.392  0.00  0.00    +0.000 C 
BRANCH  22  25
ATOM     25  C   UNL     1      45.080   3.564   9.664  0.00  0.00    +0.000 A 
ATOM     26  C   UNL     1      45.617   4.501   8.774  0.00  0.00    +0.000 A 
ATOM     27  C   UNL     1      46.338   4.081   7.664  0.00  0.00    +0.000 A 
ATOM     28  C   UNL     1      46.527   2.720   7.434  0.00  0.00    +0.000 A 
ATOM     29  C   UNL     1      45.971   1.849   8.362  0.00  0.00    +0.000 A 
ATOM     30  N   UNL     1      45.255   2.233   9.459  0.00  0.00    +0.000 NA
BRANCH  28  31
ATOM     31  C   UNL     1      47.298   2.300   6.238  0.00  0.00    +0.000 C 
ATOM     32  N   UNL     1      47.111   2.958   5.055  0.00  0.00    +0.000 N 
ATOM     33  O   UNL     1      48.099   1.378   6.297  0.00  0.00    +0.000 OA
ATOM     34  H   UNL     1      46.496   3.738   4.900  0.00  0.00    +0.000 HD
ATOM     35  H   UNL     1      47.668   2.641   4.273  0.00  0.00    +0.000 HD
ENDBRANCH  28  31
ENDBRANCH  22  25
ENDBRANCH  21  22
ENDBRANCH  20  21
ENDBRANCH   3  20
TORSDOF 8
ENDMDL
MODEL 2
REMARK VINA RESULT:    -7.917      3.086      4.713
REMARK INTER + INTRA:         -12.694
REMARK INTER:                 -11.417
REMARK INTRA:                  -1.277
REMARK UNBOUND:                -1.075
REMARK  Name = 
REMARK  13 active torsions:
REMARK  status: ('A' for Active; 'I' for Inactive)
REMARK    1  A    between atoms: C_1  and  C_2
REMARK    2  A    between atoms: C_2  and  C_3
REMARK    3  A    between atoms: C_5  and  C_6
REMARK    4  A    between atoms: C_5  and  N_7
REMARK    5  A    between atoms: N_7  and  C_8
REMARK    6  A    between atoms: C_10  and  S_11
REMARK    7  A    between atoms: S_11  and  C_12
REMARK    8  A    between atoms: C_12  and  C_13
REMARK    9  A    between atoms: C_13  and  C_14
REMARK   10  A    between atoms: C_13  and  C_15
REMARK   11  A    between atoms: C_13  and  C_16
REMARK   12  A    between atoms: C_19  and  C_20
REMARK   13  A    between atoms: C_26  and  C_27
REMARK                            x       y       z     vdW  Elec       q    Type
REMARK                         _______ _______ _______ _____ _____    ______ ____
ROOT
ATOM      1  C   UNL     1      48.260   6.294  14.918  0.00  0.00    +0.000 A 
ATOM      2  C   UNL     1      47.529   5.546  13.995  0.00  0.00    +0.000 A 
ATOM      3  C   UNL     1      47.001   4.303  14.327  0.00  0.00    +0.000 A 
ATOM      4  C   UNL     1      47.173   3.801  15.617  0.00  0.00    +0.000 A 
ATOM      5  C   UNL     1      47.894   4.531  16.572  0.00  0.00    +0.000 A 
ATOM      6  C   UNL     1      48.425   5.782  16.214  0.00  0.00    +0.000 A 
ENDROOT
BRANCH   5   7
ATOM      7  C   UNL     1      48.133   3.963  17.948  0.00  0.00    +0.000 C 
ATOM      8  F   UNL     1      49.452   3.840  18.263  0.00  0.00    +0.000 F 
ATOM      9  F   UNL     1      47.589   4.733  18.930  0.00  0.00    +0.000 F 
ATOM     10  F   UNL     1      47.597   2.720  18.104  0.00  0.00    +0.000 F 
ENDBRANCH   5   7
BRANCH   1  11
ATOM     11  N   UNL     1      48.964   7.448  14.545  0.00  0.00    +0.000 N 
ATOM     12  H   UNL     1      49.971   7.390  14.666  0.00  0.00    +0.000 HD
BRANCH  11  17
ATOM     13  C   UNL     1      48.069  10.586  11.577  0.00  0.00    +0.000 C 
ATOM     14  C   UNL     1      48.413   9.330  12.363  0.00  0.00    +0.000 C 
ATOM     15  C   UNL     1      48.978   8.238  11.455  0.00  0.00    +0.000 C 
ATOM     16  C   UNL     1      47.311   8.918  13.350  0.00  0.00    +0.000 C 
ATOM     17  C   UNL     1      48.473   8.786  14.368  0.00  0.00    +0.000 C 
ATOM     18  C   UNL     1      48.321   9.468  15.717  0.00  0.00    +0.000 C 
ATOM     19  O   UNL     1      49.316   9.594  13.482  0.00  0.00    +0.000 OA
ENDBRANCH  11  17
ENDBRANCH   1  11
BRANCH   3  20
ATOM     20  S   UNL     1      46.053   3.410  13.127  0.00  0.00    +0.000 S 
BRANCH  20  21
ATOM     21  C   UNL     1      45.309   4.797  12.146  0.00  0.00    +0.000 C 
BRANCH  21  22
ATOM     22  C   UNL     1      44.327   4.294  11.035  0.00  0.00    +0.000 C 
ATOM     23  C   UNL     1      43.490   3.115  11.589  0.00  0.00    +0.000 C 
ATOM     24  C   UNL     1      43.400   5.456  10.603  0.00  0.00    +0.000 C 
BRANCH  22  25
ATOM     25  C   UNL     1      45.075   3.795   9.782  0.00  0.00    +0.000 A 
ATOM     26  C   UNL     1      45.211   2.422   9.539  0.00  0.00    +0.000 A 
ATOM     27  C   UNL     1      45.901   1.973   8.421  0.00  0.00    +0.000 A 
ATOM     28  C   UNL     1      46.462   2.891   7.537  0.00  0.00    +0.000 A 
ATOM     29  C   UNL     1      46.283   4.235   7.838  0.00  0.00    +0.000 A 
ATOM     30  N   UNL     1      45.614   4.706   8.931  0.00  0.00    +0.000 NA
BRANCH  28  31
ATOM     31  C   UNL     1      47.197   2.383   6.353  0.00  0.00    +0.000 C 
ATOM     32  N   UNL     1      47.139   3.080   5.178  0.00  0.00    +0.000 N 
ATOM     33  O   UNL     1      47.855   1.354   6.413  0.00  0.00    +0.000 OA
ATOM     34  H   UNL     1      46.646   3.942   5.024  0.00  0.00    +0.000 HD
ATOM     35  H   UNL     1      47.666   2.698   4.404  0.00  0.00    +0.000 HD
ENDBRANCH  28  31
ENDBRANCH  22  25
ENDBRANCH  21  22
ENDBRANCH  20  21
ENDBRANCH   3  20
TORSDOF 8
ENDMDL
MODEL 3
REMARK VINA RESULT:    -7.782      3.156      4.090
REMARK INTER + INTRA:         -12.497
REMARK INTER:                 -11.396
REMARK INTRA:                  -1.101
REMARK UNBOUND:                -1.075
REMARK  Name = 
REMARK  13 active torsions:
REMARK  status: ('A' for Active; 'I' for Inactive)
REMARK    1  A    between atoms: C_1  and  C_2
REMARK    2  A    between atoms: C_2  and  C_3
REMARK    3  A    between atoms: C_5  and  C_6
REMARK    4  A    between atoms: C_5  and  N_7
REMARK    5  A    between atoms: N_7  and  C_8
REMARK    6  A    between atoms: C_10  and  S_11
REMARK    7  A    between atoms: S_11  and  C_12
REMARK    8  A    between atoms: C_12  and  C_13
REMARK    9  A    between atoms: C_13  and  C_14
REMARK   10  A    between atoms: C_13  and  C_15
REMARK   11  A    between atoms: C_13  and  C_16
REMARK   12  A    between atoms: C_19  and  C_20
REMARK   13  A    between atoms: C_26  and  C_27
REMARK                            x       y       z     vdW  Elec       q    Type
REMARK                         _______ _______ _______ _____ _____    ______ ____
ROOT
ATOM      1  C   UNL     1      48.596   6.828  15.347  0.00  0.00    +0.000 A 
ATOM      2  C   UNL     1      47.841   6.827  14.174  0.00  0.00    +0.000 A 
ATOM      3  C   UNL     1      47.092   5.717  13.798  0.00  0.00    +0.000 A 
ATOM      4  C   UNL     1      47.063   4.591  14.620  0.00  0.00    +0.000 A 
ATOM      5  C   UNL     1      47.803   4.563  15.811  0.00  0.00    +0.000 A 
ATOM      6  C   UNL     1      48.559   5.692  16.169  0.00  0.00    +0.000 A 
ENDROOT
BRANCH   5   7
ATOM      7  C   UNL     1      47.821   3.324  16.670  0.00  0.00    +0.000 C 
ATOM      8  F   UNL     1      48.788   3.343  17.629  0.00  0.00    +0.000 F 
ATOM      9  F   UNL     1      46.648   3.133  17.333  0.00  0.00    +0.000 F 
ATOM     10  F   UNL     1      48.035   2.188  15.949  0.00  0.00    +0.000 F 
ENDBRANCH   5   7
BRANCH   1  11
ATOM     11  N   UNL     1      49.507   7.853  15.640  0.00  0.00    +0.000 N 
ATOM     12  H   UNL     1      50.381   7.540  16.054  0.00  0.00    +0.000 HD
BRANCH  11  17
ATOM     13  C   UNL     1      47.836  10.971  18.275  0.00  0.00    +0.000 C 
ATOM     14  C   UNL     1      48.375   9.718  17.602  0.00  0.00    +0.000 C 
ATOM     15  C   UNL     1      48.067   8.465  18.420  0.00  0.00    +0.000 C 
ATOM     16  C   UNL     1      49.814   9.884  17.091  0.00  0.00    +0.000 C 
ATOM     17  C   UNL     1      49.267   9.261  15.780  0.00  0.00    +0.000 C 
ATOM     18  C   UNL     1      49.567   9.974  14.472  0.00  0.00    +0.000 C 
ATOM     19  O   UNL     1      47.905   9.570  16.225  0.00  0.00    +0.000 OA
ENDBRANCH  11  17
ENDBRANCH   1  11
BRANCH   3  20
ATOM     20  S   UNL     1      46.125   5.781  12.315  0.00  0.00    +0.000 S 
BRANCH  20  21
ATOM     21  C   UNL     1      45.271   4.136  12.365  0.00  0.00    +0.000 C 
BRANCH  21  22
ATOM     22  C   UNL     1      44.289   3.927  11.164  0.00  0.00    +0.000 C 
ATOM     23  C   UNL     1      43.288   2.799  11.513  0.00  0.00    +0.000 C 
ATOM     24  C   UNL     1      43.533   5.248  10.881  0.00  0.00    +0.000 C 
BRANCH  22  25
ATOM     25  C   UNL     1      45.030   3.519   9.874  0.00  0.00    +0.000 A 
ATOM     26  C   UNL     1      45.215   2.167   9.562  0.00  0.00    +0.000 A 
ATOM     27  C   UNL     1      45.899   1.801   8.410  0.00  0.00    +0.000 A 
ATOM     28  C   UNL     1      46.403   2.782   7.560  0.00  0.00    +0.000 A 
ATOM     29  C   UNL     1      46.176   4.102   7.930  0.00  0.00    +0.000 A 
ATOM     30  N   UNL     1      45.512   4.492   9.057  0.00  0.00    +0.000 NA
BRANCH  28  31
ATOM     31  C   UNL     1      47.132   2.362   6.339  0.00  0.00    +0.000 C 
ATOM     32  N   UNL     1      47.065   3.141   5.218  0.00  0.00    +0.000 N 
ATOM     33  O   UNL     1      47.793   1.333   6.321  0.00  0.00    +0.000 OA
ATOM     34  H   UNL     1      46.570   4.011   5.128  0.00  0.00    +0.000 HD
ATOM     35  H   UNL     1      47.589   2.817   4.415  0.00  0.00    +0.000 HD
ENDBRANCH  28  31
ENDBRANCH  22  25
ENDBRANCH  21  22
ENDBRANCH  20  21
ENDBRANCH   3  20
TORSDOF 8
ENDMDL
MODEL 4
REMARK VINA RESULT:    -7.700      2.853      4.124
REMARK INTER + INTRA:         -12.376
REMARK INTER:                 -11.286
REMARK INTRA:                  -1.090
REMARK UNBOUND:                -1.075
REMARK  Name = 
REMARK  13 active torsions:
REMARK  status: ('A' for Active; 'I' for Inactive)
REMARK    1  A    between atoms: C_1  and  C_2
REMARK    2  A    between atoms: C_2  and  C_3
REMARK    3  A    between atoms: C_5  and  C_6
REMARK    4  A    between atoms: C_5  and  N_7
REMARK    5  A    between atoms: N_7  and  C_8
REMARK    6  A    between atoms: C_10  and  S_11
REMARK    7  A    between atoms: S_11  and  C_12
REMARK    8  A    between atoms: C_12  and  C_13
REMARK    9  A    between atoms: C_13  and  C_14
REMARK   10  A    between atoms: C_13  and  C_15
REMARK   11  A    between atoms: C_13  and  C_16
REMARK   12  A    between atoms: C_19  and  C_20
REMARK   13  A    between atoms: C_26  and  C_27
REMARK                            x       y       z     vdW  Elec       q    Type
REMARK                         _______ _______ _______ _____ _____    ______ ____
ROOT
ATOM      1  C   UNL     1      48.558   7.047  15.101  0.00  0.00    +0.000 A 
ATOM      2  C   UNL     1      47.744   7.003  13.969  0.00  0.00    +0.000 A 
ATOM      3  C   UNL     1      46.978   5.880  13.674  0.00  0.00    +0.000 A 
ATOM      4  C   UNL     1      46.993   4.786  14.538  0.00  0.00    +0.000 A 
ATOM      5  C   UNL     1      47.793   4.801  15.689  0.00  0.00    +0.000 A 
ATOM      6  C   UNL     1      48.565   5.943  15.966  0.00  0.00    +0.000 A 
ENDROOT
BRANCH   5   7
ATOM      7  C   UNL     1      47.857   3.596  16.592  0.00  0.00    +0.000 C 
ATOM      8  F   UNL     1      48.662   3.772  17.676  0.00  0.00    +0.000 F 
ATOM      9  F   UNL     1      46.637   3.254  17.090  0.00  0.00    +0.000 F 
ATOM     10  F   UNL     1      48.328   2.487  15.955  0.00  0.00    +0.000 F 
ENDBRANCH   5   7
BRANCH   1  11
ATOM     11  N   UNL     1      49.483   8.082  15.308  0.00  0.00    +0.000 N 
ATOM     12  H   UNL     1      49.072   8.972  15.575  0.00  0.00    +0.000 HD
BRANCH  11  17
ATOM     13  C   UNL     1      52.154   9.770  12.231  0.00  0.00    +0.000 C 
ATOM     14  C   UNL     1      51.027   9.364  13.168  0.00  0.00    +0.000 C 
ATOM     15  C   UNL     1      49.671   9.850  12.659  0.00  0.00    +0.000 C 
ATOM     16  C   UNL     1      51.354   9.625  14.647  0.00  0.00    +0.000 C 
ATOM     17  C   UNL     1      50.845   8.176  14.865  0.00  0.00    +0.000 C 
ATOM     18  C   UNL     1      51.720   7.225  15.664  0.00  0.00    +0.000 C 
ATOM     19  O   UNL     1      51.001   7.925  13.430  0.00  0.00    +0.000 OA
ENDBRANCH  11  17
ENDBRANCH   1  11
BRANCH   3  20
ATOM     20  S   UNL     1      45.936   5.890  12.242  0.00  0.00    +0.000 S 
BRANCH  20  21
ATOM     21  C   UNL     1      45.238   4.172  12.286  0.00  0.00    +0.000 C 
BRANCH  21  22
ATOM     22  C   UNL     1      44.289   3.873  11.078  0.00  0.00    +0.000 C 
ATOM     23  C   UNL     1      43.338   2.710  11.452  0.00  0.00    +0.000 C 
ATOM     24  C   UNL     1      43.475   5.144  10.735  0.00  0.00    +0.000 C 
BRANCH  22  25
ATOM     25  C   UNL     1      45.071   3.456   9.816  0.00  0.00    +0.000 A 
ATOM     26  C   UNL     1      45.550   4.426   8.927  0.00  0.00    +0.000 A 
ATOM     27  C   UNL     1      46.237   4.050   7.781  0.00  0.00    +0.000 A 
ATOM     28  C   UNL     1      46.453   2.700   7.513  0.00  0.00    +0.000 A 
ATOM     29  C   UNL     1      45.956   1.794   8.441  0.00  0.00    +0.000 A 
ATOM     30  N   UNL     1      45.273   2.134   9.573  0.00  0.00    +0.000 NA
BRANCH  28  31
ATOM     31  C   UNL     1      47.187   2.327   6.280  0.00  0.00    +0.000 C 
ATOM     32  N   UNL     1      47.016   3.073   5.146  0.00  0.00    +0.000 N 
ATOM     33  O   UNL     1      47.944   1.367   6.262  0.00  0.00    +0.000 OA
ATOM     34  H   UNL     1      46.436   3.889   5.054  0.00  0.00    +0.000 HD
ATOM     35  H   UNL     1      47.548   2.784   4.336  0.00  0.00    +0.000 HD
ENDBRANCH  28  31
ENDBRANCH  22  25
ENDBRANCH  21  22
ENDBRANCH  20  21
ENDBRANCH   3  20
TORSDOF 8
ENDMDL
MODEL 5
REMARK VINA RESULT:    -7.649      1.444      2.089
REMARK INTER + INTRA:         -12.301
REMARK INTER:                 -11.335
REMARK INTRA:                  -0.966
REMARK UNBOUND:                -1.075
REMARK  Name = 
REMARK  13 active torsions:
REMARK  status: ('A' for Active; 'I' for Inactive)
REMARK    1  A    between atoms: C_1  and  C_2
REMARK    2  A    between atoms: C_2  and  C_3
REMARK    3  A    between atoms: C_5  and  C_6
REMARK    4  A    between atoms: C_5  and  N_7
REMARK    5  A    between atoms: N_7  and  C_8
REMARK    6  A    between atoms: C_10  and  S_11
REMARK    7  A    between atoms: S_11  and  C_12
REMARK    8  A    between atoms: C_12  and  C_13
REMARK    9  A    between atoms: C_13  and  C_14
REMARK   10  A    between atoms: C_13  and  C_15
REMARK   11  A    between atoms: C_13  and  C_16
REMARK   12  A    between atoms: C_19  and  C_20
REMARK   13  A    between atoms: C_26  and  C_27
REMARK                            x       y       z     vdW  Elec       q    Type
REMARK                         _______ _______ _______ _____ _____    ______ ____
ROOT
ATOM      1  C   UNL     1      48.987   6.619  15.463  0.00  0.00    +0.000 A 
ATOM      2  C   UNL     1      47.941   5.751  15.150  0.00  0.00    +0.000 A 
ATOM      3  C   UNL     1      47.455   5.643  13.851  0.00  0.00    +0.000 A 
ATOM      4  C   UNL     1      48.042   6.389  12.829  0.00  0.00    +0.000 A 
ATOM      5  C   UNL     1      49.101   7.264  13.108  0.00  0.00    +0.000 A 
ATOM      6  C   UNL     1      49.572   7.363  14.429  0.00  0.00    +0.000 A 
ENDROOT
BRANCH   5   7
ATOM      7  C   UNL     1      49.696   8.116  12.016  0.00  0.00    +0.000 C 
ATOM      8  F   UNL     1      50.382   7.401  11.082  0.00  0.00    +0.000 F 
ATOM      9  F   UNL     1      48.750   8.811  11.326  0.00  0.00    +0.000 F 
ATOM     10  F   UNL     1      50.572   9.044  12.492  0.00  0.00    +0.000 F 
ENDBRANCH   5   7
BRANCH   1  11
ATOM     11  N   UNL     1      49.354   6.888  16.790  0.00  0.00    +0.000 N 
ATOM     12  H   UNL     1      49.999   7.665  16.904  0.00  0.00    +0.000 HD
BRANCH  11  17
ATOM     13  C   UNL     1      47.528   6.446  20.780  0.00  0.00    +0.000 C 
ATOM     14  C   UNL     1      47.971   6.829  19.377  0.00  0.00    +0.000 C 
ATOM     15  C   UNL     1      47.438   8.203  18.975  0.00  0.00    +0.000 C 
ATOM     16  C   UNL     1      47.802   5.688  18.362  0.00  0.00    +0.000 C 
ATOM     17  C   UNL     1      49.253   6.039  17.943  0.00  0.00    +0.000 C 
ATOM     18  C   UNL     1      50.262   4.906  17.847  0.00  0.00    +0.000 C 
ATOM     19  O   UNL     1      49.422   6.763  19.206  0.00  0.00    +0.000 OA
ENDBRANCH  11  17
ENDBRANCH   1  11
BRANCH   3  20
ATOM     20  S   UNL     1      46.147   4.500  13.502  0.00  0.00    +0.000 S 
BRANCH  20  21
ATOM     21  C   UNL     1      45.288   5.347  12.095  0.00  0.00    +0.000 C 
BRANCH  21  22
ATOM     22  C   UNL     1      44.333   4.391  11.305  0.00  0.00    +0.000 C 
ATOM     23  C   UNL     1      43.968   3.181  12.199  0.00  0.00    +0.000 C 
ATOM     24  C   UNL     1      43.054   5.163  10.898  0.00  0.00    +0.000 C 
BRANCH  22  25
ATOM     25  C   UNL     1      44.988   3.848  10.019  0.00  0.00    +0.000 A 
ATOM     26  C   UNL     1      45.019   2.472   9.767  0.00  0.00    +0.000 A 
ATOM     27  C   UNL     1      45.626   1.982   8.618  0.00  0.00    +0.000 A 
ATOM     28  C   UNL     1      46.209   2.864   7.712  0.00  0.00    +0.000 A 
ATOM     29  C   UNL     1      46.136   4.216   8.024  0.00  0.00    +0.000 A 
ATOM     30  N   UNL     1      45.550   4.725   9.147  0.00  0.00    +0.000 NA
BRANCH  28  31
ATOM     31  C   UNL     1      46.854   2.313   6.495  0.00  0.00    +0.000 C 
ATOM     32  N   UNL     1      47.020   3.118   5.402  0.00  0.00    +0.000 N 
ATOM     33  O   UNL     1      47.241   1.155   6.456  0.00  0.00    +0.000 OA
ATOM     34  H   UNL     1      46.757   4.086   5.332  0.00  0.00    +0.000 HD
ATOM     35  H   UNL     1      47.475   2.699   4.602  0.00  0.00    +0.000 HD
ENDBRANCH  28  31
ENDBRANCH  22  25
ENDBRANCH  21  22
ENDBRANCH  20  21
ENDBRANCH   3  20
TORSDOF 8
ENDMDL
MODEL 6
REMARK VINA RESULT:    -7.475      2.946      4.197
REMARK INTER + INTRA:         -12.046
REMARK INTER:                 -10.626
REMARK INTRA:                  -1.420
REMARK UNBOUND:                -1.075
REMARK  Name = 
REMARK  13 active torsions:
REMARK  status: ('A' for Active; 'I' for Inactive)
REMARK    1  A    between atoms: C_1  and  C_2
REMARK    2  A    between atoms: C_2  and  C_3
REMARK    3  A    between atoms: C_5  and  C_6
REMARK    4  A    between atoms: C_5  and  N_7
REMARK    5  A    between atoms: N_7  and  C_8
REMARK    6  A    between atoms: C_10  and  S_11
REMARK    7  A    between atoms: S_11  and  C_12
REMARK    8  A    between atoms: C_12  and  C_13
REMARK    9  A    between atoms: C_13  and  C_14
REMARK   10  A    between atoms: C_13  and  C_15
REMARK   11  A    between atoms: C_13  and  C_16
REMARK   12  A    between atoms: C_19  and  C_20
REMARK   13  A    between atoms: C_26  and  C_27
REMARK                            x       y       z     vdW  Elec       q    Type
REMARK                         _______ _______ _______ _____ _____    ______ ____
ROOT
ATOM      1  C   UNL     1      47.210   8.681  12.967  0.00  0.00    +0.000 A 
ATOM      2  C   UNL     1      46.518   7.501  13.234  0.00  0.00    +0.000 A 
ATOM      3  C   UNL     1      45.232   7.290  12.746  0.00  0.00    +0.000 A 
ATOM      4  C   UNL     1      44.629   8.261  11.946  0.00  0.00    +0.000 A 
ATOM      5  C   UNL     1      45.301   9.455  11.651  0.00  0.00    +0.000 A 
ATOM      6  C   UNL     1      46.597   9.651  12.160  0.00  0.00    +0.000 A 
ENDROOT
BRANCH   5   7
ATOM      7  C   UNL     1      44.627  10.531  10.838  0.00  0.00    +0.000 C 
ATOM      8  F   UNL     1      45.501  11.356  10.199  0.00  0.00    +0.000 F 
ATOM      9  F   UNL     1      43.824  10.020   9.865  0.00  0.00    +0.000 F 
ATOM     10  F   UNL     1      43.834  11.341  11.593  0.00  0.00    +0.000 F 
ENDBRANCH   5   7
BRANCH   1  11
ATOM     11  N   UNL     1      48.418   8.994  13.610  0.00  0.00    +0.000 N 
ATOM     12  H   UNL     1      48.497   9.957  13.922  0.00  0.00    +0.000 HD
BRANCH  11  17
ATOM     13  C   UNL     1      52.207   8.490  11.410  0.00  0.00    +0.000 C 
ATOM     14  C   UNL     1      50.861   8.898  11.989  0.00  0.00    +0.000 C 
ATOM     15  C   UNL     1      50.158   9.926  11.105  0.00  0.00    +0.000 C 
ATOM     16  C   UNL     1      50.921   9.194  13.495  0.00  0.00    +0.000 C 
ATOM     17  C   UNL     1      49.666   8.286  13.577  0.00  0.00    +0.000 C 
ATOM     18  C   UNL     1      49.660   7.168  14.606  0.00  0.00    +0.000 C 
ATOM     19  O   UNL     1      49.989   7.753  12.250  0.00  0.00    +0.000 OA
ENDBRANCH  11  17
ENDBRANCH   1  11
BRANCH   3  20
ATOM     20  S   UNL     1      44.411   5.758  13.086  0.00  0.00    +0.000 S 
BRANCH  20  21
ATOM     21  C   UNL     1      45.309   4.602  11.948  0.00  0.00    +0.000 C 
BRANCH  21  22
ATOM     22  C   UNL     1      44.385   4.012  10.831  0.00  0.00    +0.000 C 
ATOM     23  C   UNL     1      43.630   2.782  11.390  0.00  0.00    +0.000 C 
ATOM     24  C   UNL     1      43.380   5.096  10.370  0.00  0.00    +0.000 C 
BRANCH  22  25
ATOM     25  C   UNL     1      45.187   3.554   9.597  0.00  0.00    +0.000 A 
ATOM     26  C   UNL     1      45.764   4.496   8.737  0.00  0.00    +0.000 A 
ATOM     27  C   UNL     1      46.470   4.084   7.615  0.00  0.00    +0.000 A 
ATOM     28  C   UNL     1      46.606   2.725   7.342  0.00  0.00    +0.000 A 
ATOM     29  C   UNL     1      46.014   1.847   8.242  0.00  0.00    +0.000 A 
ATOM     30  N   UNL     1      45.311   2.224   9.349  0.00  0.00    +0.000 NA
BRANCH  28  31
ATOM     31  C   UNL     1      47.363   2.312   6.135  0.00  0.00    +0.000 C 
ATOM     32  N   UNL     1      47.208   3.018   4.974  0.00  0.00    +0.000 N 
ATOM     33  O   UNL     1      48.123   1.355   6.164  0.00  0.00    +0.000 OA
ATOM     34  H   UNL     1      46.627   3.828   4.845  0.00  0.00    +0.000 HD
ATOM     35  H   UNL     1      47.755   2.704   4.183  0.00  0.00    +0.000 HD
ENDBRANCH  28  31
ENDBRANCH  22  25
ENDBRANCH  21  22
ENDBRANCH  20  21
ENDBRANCH   3  20
TORSDOF 8
ENDMDL
MODEL 7
REMARK VINA RESULT:    -6.999      3.984      5.517
REMARK INTER + INTRA:         -11.347
REMARK INTER:                  -9.993
REMARK INTRA:                  -1.354
REMARK UNBOUND:                -1.075
REMARK  Name = 
REMARK  13 active torsions:
REMARK  status: ('A' for Active; 'I' for Inactive)
REMARK    1  A    between atoms: C_1  and  C_2
REMARK    2  A    between atoms: C_2  and  C_3
REMARK    3  A    between atoms: C_5  and  C_6
REMARK    4  A    between atoms: C_5  and  N_7
REMARK    5  A    between atoms: N_7  and  C_8
REMARK    6  A    between atoms: C_10  and  S_11
REMARK    7  A    between atoms: S_11  and  C_12
REMARK    8  A    between atoms: C_12  and  C_13
REMARK    9  A    between atoms: C_13  and  C_14
REMARK   10  A    between atoms: C_13  and  C_15
REMARK   11  A    between atoms: C_13  and  C_16
REMARK   12  A    between atoms: C_19  and  C_20
REMARK   13  A    between atoms: C_26  and  C_27
REMARK                            x       y       z     vdW  Elec       q    Type
REMARK                         _______ _______ _______ _____ _____    ______ ____
ROOT
ATOM      1  C   UNL     1      48.288   6.688  18.104  0.00  0.00    +0.000 A 
ATOM      2  C   UNL     1      48.802   7.031  16.854  0.00  0.00    +0.000 A 
ATOM      3  C   UNL     1      48.810   8.350  16.413  0.00  0.00    +0.000 A 
ATOM      4  C   UNL     1      48.328   9.360  17.245  0.00  0.00    +0.000 A 
ATOM      5  C   UNL     1      47.812   9.051  18.511  0.00  0.00    +0.000 A 
ATOM      6  C   UNL     1      47.806   7.710  18.935  0.00  0.00    +0.000 A 
ENDROOT
BRANCH   5   7
ATOM      7  C   UNL     1      47.234  10.134  19.386  0.00  0.00    +0.000 C 
ATOM      8  F   UNL     1      46.040   9.797  19.948  0.00  0.00    +0.000 F 
ATOM      9  F   UNL     1      48.052  10.456  20.425  0.00  0.00    +0.000 F 
ATOM     10  F   UNL     1      47.011  11.294  18.708  0.00  0.00    +0.000 F 
ENDBRANCH   5   7
BRANCH   1  11
ATOM     11  N   UNL     1      48.089   5.351  18.482  0.00  0.00    +0.000 N 
ATOM     12  H   UNL     1      48.183   5.172  19.478  0.00  0.00    +0.000 HD
BRANCH  11  17
ATOM     13  C   UNL     1      50.649   2.054  17.060  0.00  0.00    +0.000 C 
ATOM     14  C   UNL     1      49.993   3.249  17.733  0.00  0.00    +0.000 C 
ATOM     15  C   UNL     1      50.997   4.045  18.566  0.00  0.00    +0.000 C 
ATOM     16  C   UNL     1      48.652   2.903  18.398  0.00  0.00    +0.000 C 
ATOM     17  C   UNL     1      48.130   4.169  17.670  0.00  0.00    +0.000 C 
ATOM     18  C   UNL     1      46.850   4.049  16.859  0.00  0.00    +0.000 C 
ATOM     19  O   UNL     1      49.298   4.119  16.786  0.00  0.00    +0.000 OA
ENDBRANCH  11  17
ENDBRANCH   1  11
BRANCH   3  20
ATOM     20  S   UNL     1      49.506   8.735  14.830  0.00  0.00    +0.000 S 
BRANCH  20  21
ATOM     21  C   UNL     1      49.048   7.226  13.854  0.00  0.00    +0.000 C 
BRANCH  21  22
ATOM     22  C   UNL     1      47.999   7.527  12.732  0.00  0.00    +0.000 C 
ATOM     23  C   UNL     1      47.151   8.756  13.142  0.00  0.00    +0.000 C 
ATOM     24  C   UNL     1      48.736   7.802  11.398  0.00  0.00    +0.000 C 
BRANCH  22  25
ATOM     25  C   UNL     1      47.037   6.343  12.506  0.00  0.00    +0.000 A 
ATOM     26  C   UNL     1      46.253   6.279  11.348  0.00  0.00    +0.000 A 
ATOM     27  C   UNL     1      45.373   5.223  11.154  0.00  0.00    +0.000 A 
ATOM     28  C   UNL     1      45.268   4.221  12.115  0.00  0.00    +0.000 A 
ATOM     29  C   UNL     1      46.080   4.347  13.235  0.00  0.00    +0.000 A 
ATOM     30  N   UNL     1      46.951   5.375  13.455  0.00  0.00    +0.000 NA
BRANCH  28  31
ATOM     31  C   UNL     1      44.317   3.106  11.883  0.00  0.00    +0.000 C 
ATOM     32  N   UNL     1      44.230   2.549  10.638  0.00  0.00    +0.000 N 
ATOM     33  O   UNL     1      43.616   2.678  12.788  0.00  0.00    +0.000 OA
ATOM     34  H   UNL     1      44.770   2.809   9.831  0.00  0.00    +0.000 HD
ATOM     35  H   UNL     1      43.575   1.785  10.534  0.00  0.00    +0.000 HD
ENDBRANCH  28  31
ENDBRANCH  22  25
ENDBRANCH  21  22
ENDBRANCH  20  21
ENDBRANCH   3  20
TORSDOF 8
ENDMDL
MODEL 8
REMARK VINA RESULT:    -6.895      4.128      6.439
REMARK INTER + INTRA:         -11.194
REMARK INTER:                  -9.435
REMARK INTRA:                  -1.759
REMARK UNBOUND:                -1.075
REMARK  Name = 
REMARK  13 active torsions:
REMARK  status: ('A' for Active; 'I' for Inactive)
REMARK    1  A    between atoms: C_1  and  C_2
REMARK    2  A    between atoms: C_2  and  C_3
REMARK    3  A    between atoms: C_5  and  C_6
REMARK    4  A    between atoms: C_5  and  N_7
REMARK    5  A    between atoms: N_7  and  C_8
REMARK    6  A    between atoms: C_10  and  S_11
REMARK    7  A    between atoms: S_11  and  C_12
REMARK    8  A    between atoms: C_12  and  C_13
REMARK    9  A    between atoms: C_13  and  C_14
REMARK   10  A    between atoms: C_13  and  C_15
REMARK   11  A    between atoms: C_13  and  C_16
REMARK   12  A    between atoms: C_19  and  C_20
REMARK   13  A    between atoms: C_26  and  C_27
REMARK                            x       y       z     vdW  Elec       q    Type
REMARK                         _______ _______ _______ _____ _____    ______ ____
ROOT
ATOM      1  C   UNL     1      50.754   4.511  18.640  0.00  0.00    +0.000 A 
ATOM      2  C   UNL     1      50.916   5.803  18.141  0.00  0.00    +0.000 A 
ATOM      3  C   UNL     1      50.036   6.332  17.203  0.00  0.00    +0.000 A 
ATOM      4  C   UNL     1      48.948   5.574  16.772  0.00  0.00    +0.000 A 
ATOM      5  C   UNL     1      48.750   4.275  17.260  0.00  0.00    +0.000 A 
ATOM      6  C   UNL     1      49.656   3.757  18.202  0.00  0.00    +0.000 A 
ENDROOT
BRANCH   5   7
ATOM      7  C   UNL     1      47.610   3.432  16.749  0.00  0.00    +0.000 C 
ATOM      8  F   UNL     1      47.941   2.668  15.671  0.00  0.00    +0.000 F 
ATOM      9  F   UNL     1      47.144   2.564  17.688  0.00  0.00    +0.000 F 
ATOM     10  F   UNL     1      46.538   4.177  16.361  0.00  0.00    +0.000 F 
ENDBRANCH   5   7
BRANCH   1  11
ATOM     11  N   UNL     1      51.736   3.893  19.428  0.00  0.00    +0.000 N 
ATOM     12  H   UNL     1      51.510   3.829  20.417  0.00  0.00    +0.000 HD
BRANCH  11  17
ATOM     13  C   UNL     1      54.589   1.195  17.420  0.00  0.00    +0.000 C 
ATOM     14  C   UNL     1      53.399   1.962  17.975  0.00  0.00    +0.000 C 
ATOM     15  C   UNL     1      52.087   1.219  17.724  0.00  0.00    +0.000 C 
ATOM     16  C   UNL     1      53.433   3.457  17.626  0.00  0.00    +0.000 C 
ATOM     17  C   UNL     1      53.122   3.667  19.131  0.00  0.00    +0.000 C 
ATOM     18  C   UNL     1      53.988   4.644  19.909  0.00  0.00    +0.000 C 
ATOM     19  O   UNL     1      53.550   2.290  19.392  0.00  0.00    +0.000 OA
ENDBRANCH  11  17
ENDBRANCH   1  11
BRANCH   3  20
ATOM     20  S   UNL     1      50.269   7.992  16.629  0.00  0.00    +0.000 S 
BRANCH  20  21
ATOM     21  C   UNL     1      48.642   8.324  15.805  0.00  0.00    +0.000 C 
BRANCH  21  22
ATOM     22  C   UNL     1      48.719   8.215  14.245  0.00  0.00    +0.000 C 
ATOM     23  C   UNL     1      48.338   9.578  13.618  0.00  0.00    +0.000 C 
ATOM     24  C   UNL     1      50.156   7.814  13.828  0.00  0.00    +0.000 C 
BRANCH  22  25
ATOM     25  C   UNL     1      47.751   7.151  13.690  0.00  0.00    +0.000 A 
ATOM     26  C   UNL     1      46.504   7.528  13.177  0.00  0.00    +0.000 A 
ATOM     27  C   UNL     1      45.624   6.569  12.694  0.00  0.00    +0.000 A 
ATOM     28  C   UNL     1      45.982   5.223  12.720  0.00  0.00    +0.000 A 
ATOM     29  C   UNL     1      47.237   4.924  13.237  0.00  0.00    +0.000 A 
ATOM     30  N   UNL     1      48.120   5.844  13.722  0.00  0.00    +0.000 NA
BRANCH  28  31
ATOM     31  C   UNL     1      45.022   4.220  12.201  0.00  0.00    +0.000 C 
ATOM     32  N   UNL     1      45.213   2.897  12.492  0.00  0.00    +0.000 N 
ATOM     33  O   UNL     1      44.063   4.556  11.523  0.00  0.00    +0.000 OA
ATOM     34  H   UNL     1      45.953   2.514  13.053  0.00  0.00    +0.000 HD
ATOM     35  H   UNL     1      44.524   2.254  12.125  0.00  0.00    +0.000 HD
ENDBRANCH  28  31
ENDBRANCH  22  25
ENDBRANCH  21  22
ENDBRANCH  20  21
ENDBRANCH   3  20
TORSDOF 8
ENDMDL
MODEL 9
REMARK VINA RESULT:    -6.822      4.403      8.248
REMARK INTER + INTRA:         -11.088
REMARK INTER:                  -9.989
REMARK INTRA:                  -1.099
REMARK UNBOUND:                -1.075
REMARK  Name = 
REMARK  13 active torsions:
REMARK  status: ('A' for Active; 'I' for Inactive)
REMARK    1  A    between atoms: C_1  and  C_2
REMARK    2  A    between atoms: C_2  and  C_3
REMARK    3  A    between atoms: C_5  and  C_6
REMARK    4  A    between atoms: C_5  and  N_7
REMARK    5  A    between atoms: N_7  and  C_8
REMARK    6  A    between atoms: C_10  and  S_11
REMARK    7  A    between atoms: S_11  and  C_12
REMARK    8  A    between atoms: C_12  and  C_13
REMARK    9  A    between atoms: C_13  and  C_14
REMARK   10  A    between atoms: C_13  and  C_15
REMARK   11  A    between atoms: C_13  and  C_16
REMARK   12  A    between atoms: C_19  and  C_20
REMARK   13  A    between atoms: C_26  and  C_27
REMARK                            x       y       z     vdW  Elec       q    Type
REMARK                         _______ _______ _______ _____ _____    ______ ____
ROOT
ATOM      1  C   UNL     1      46.566   6.501  11.994  0.00  0.00    +0.000 A 
ATOM      2  C   UNL     1      46.971   5.922  13.196  0.00  0.00    +0.000 A 
ATOM      3  C   UNL     1      46.413   4.732  13.650  0.00  0.00    +0.000 A 
ATOM      4  C   UNL     1      45.451   4.081  12.878  0.00  0.00    +0.000 A 
ATOM      5  C   UNL     1      45.027   4.631  11.660  0.00  0.00    +0.000 A 
ATOM      6  C   UNL     1      45.599   5.839  11.223  0.00  0.00    +0.000 A 
ENDROOT
BRANCH   5   7
ATOM      7  C   UNL     1      43.943   3.961  10.855  0.00  0.00    +0.000 C 
ATOM      8  F   UNL     1      44.167   2.635  10.642  0.00  0.00    +0.000 F 
ATOM      9  F   UNL     1      42.725   4.037  11.458  0.00  0.00    +0.000 F 
ATOM     10  F   UNL     1      43.787   4.515   9.620  0.00  0.00    +0.000 F 
ENDBRANCH   5   7
BRANCH   1  11
ATOM     11  N   UNL     1      46.969   7.792  11.620  0.00  0.00    +0.000 N 
ATOM     12  H   UNL     1      47.681   7.822  10.896  0.00  0.00    +0.000 HD
BRANCH  11  17
ATOM     13  C   UNL     1      49.012  10.804  14.111  0.00  0.00    +0.000 C 
ATOM     14  C   UNL     1      48.582   9.657  13.210  0.00  0.00    +0.000 C 
ATOM     15  C   UNL     1      49.711   8.648  13.008  0.00  0.00    +0.000 C 
ATOM     16  C   UNL     1      47.832  10.129  11.955  0.00  0.00    +0.000 C 
ATOM     17  C   UNL     1      46.806   9.029  12.330  0.00  0.00    +0.000 C 
ATOM     18  C   UNL     1      45.336   9.411  12.380  0.00  0.00    +0.000 C 
ATOM     19  O   UNL     1      47.368   8.993  13.683  0.00  0.00    +0.000 OA
ENDBRANCH  11  17
ENDBRANCH   1  11
BRANCH   3  20
ATOM     20  S   UNL     1      46.989   4.022  15.167  0.00  0.00    +0.000 S 
BRANCH  20  21
ATOM     21  C   UNL     1      48.258   5.267  15.694  0.00  0.00    +0.000 C 
BRANCH  21  22
ATOM     22  C   UNL     1      48.658   5.124  17.200  0.00  0.00    +0.000 C 
ATOM     23  C   UNL     1      49.166   6.489  17.725  0.00  0.00    +0.000 C 
ATOM     24  C   UNL     1      47.427   4.659  18.017  0.00  0.00    +0.000 C 
BRANCH  22  25
ATOM     25  C   UNL     1      49.782   4.090  17.406  0.00  0.00    +0.000 A 
ATOM     26  C   UNL     1      51.022   4.485  17.924  0.00  0.00    +0.000 A 
ATOM     27  C   UNL     1      52.041   3.557  18.091  0.00  0.00    +0.000 A 
ATOM     28  C   UNL     1      51.831   2.225  17.742  0.00  0.00    +0.000 A 
ATOM     29  C   UNL     1      50.575   1.905  17.240  0.00  0.00    +0.000 A 
ATOM     30  N   UNL     1      49.557   2.795  17.061  0.00  0.00    +0.000 NA
BRANCH  28  31
ATOM     31  C   UNL     1      52.938   1.256  17.928  0.00  0.00    +0.000 C 
ATOM     32  N   UNL     1      53.135   0.278  16.994  0.00  0.00    +0.000 N 
ATOM     33  O   UNL     1      53.676   1.321  18.900  0.00  0.00    +0.000 OA
ATOM     34  H   UNL     1      52.602   0.144  16.152  0.00  0.00    +0.000 HD
ATOM     35  H   UNL     1      53.910  -0.351  17.160  0.00  0.00    +0.000 HD
ENDBRANCH  28  31
ENDBRANCH  22  25
ENDBRANCH  21  22
ENDBRANCH  20  21
ENDBRANCH   3  20
TORSDOF 8
ENDMDL
