MODEL 1
REMARK VINA RESULT:    -7.901      0.000      0.000
REMARK INTER + INTRA:          -9.889
REMARK INTER:                  -9.518
REMARK INTRA:                  -0.371
REMARK UNBOUND:                -0.371
REMARK  Name = 
REMARK  4 active torsions:
REMARK  status: ('A' for Active; 'I' for Inactive)
REMARK    1  A    between atoms: N_1  and  C_2
REMARK    2  A    between atoms: C_2  and  C_3
REMARK    3  A    between atoms: C_9  and  C_10
REMARK    4  A    between atoms: C_10  and  C_11
REMARK                            x       y       z     vdW  Elec       q    Type
REMARK                         _______ _______ _______ _____ _____    ______ ____
ROOT
ATOM      1  C   UNL     1      46.702   5.960  12.506  0.00  0.00    +0.000 A 
ATOM      2  C   UNL     1      46.343   5.394  13.746  0.00  0.00    +0.000 A 
ATOM      3  N   UNL     1      45.389   4.445  13.940  0.00  0.00    +0.000 NA
ATOM      4  C   UNL     1      44.786   4.037  12.767  0.00  0.00    +0.000 A 
ATOM      5  N   UNL     1      43.853   3.095  12.705  0.00  0.00    +0.000 NA
ATOM      6  C   UNL     1      43.554   2.968  11.406  0.00  0.00    +0.000 C 
ATOM      7  C   UNL     1      44.270   3.859  10.607  0.00  0.00    +0.000 C 
ATOM      8  C   UNL     1      45.085   4.542  11.509  0.00  0.00    +0.000 A 
ATOM      9  C   UNL     1      46.046   5.536  11.334  0.00  0.00    +0.000 A 
ENDROOT
BRANCH   1  10
ATOM     10  C   UNL     1      47.820   6.961  12.422  0.00  0.00    +0.000 C 
BRANCH  10  11
ATOM     11  N   UNL     1      49.070   6.374  12.885  0.00  0.00    +0.000 NA
ATOM     12  H   UNL     1      49.815   7.066  12.815  0.00  0.00    +0.000 HD
ATOM     13  H   UNL     1      49.336   5.607  12.271  0.00  0.00    +0.000 HD
ENDBRANCH  10  11
ENDBRANCH   1  10
BRANCH   7  14
ATOM     14  C   UNL     1      44.175   4.029   9.128  0.00  0.00    +0.000 C 
BRANCH  14  15
ATOM     15  C   UNL     1      45.201   3.202   8.389  0.00  0.00    +0.000 A 
ATOM     16  C   UNL     1      45.513   1.921   8.807  0.00  0.00    +0.000 A 
ATOM     17  C   UNL     1      46.388   1.227   8.010  0.00  0.00    +0.000 A 
ATOM     18  N   UNL     1      46.951   1.740   6.903  0.00  0.00    +0.000 NA
ATOM     19  C   UNL     1      46.601   2.987   6.581  0.00  0.00    +0.000 A 
ATOM     20  N   UNL     1      47.175   3.534   5.454  0.00  0.00    +0.000 N 
ATOM     21  N   UNL     1      45.758   3.752   7.287  0.00  0.00    +0.000 NA
ATOM     22  H   UNL     1      48.031   3.042   5.240  0.00  0.00    +0.000 HD
ATOM     23  H   UNL     1      47.225   4.539   5.543  0.00  0.00    +0.000 HD
ENDBRANCH  14  15
ENDBRANCH   7  14
TORSDOF 4
ENDMDL
MODEL 2
REMARK VINA RESULT:    -7.432      2.028      2.655
REMARK INTER + INTRA:          -9.324
REMARK INTER:                  -8.812
REMARK INTRA:                  -0.512
REMARK UNBOUND:                -0.371
REMARK  Name = 
REMARK  4 active torsions:
REMARK  status: ('A' for Active; 'I' for Inactive)
REMARK    1  A    between atoms: N_1  and  C_2
REMARK    2  A    between atoms: C_2  and  C_3
REMARK    3  A    between atoms: C_9  and  C_10
REMARK    4  A    between atoms: C_10  and  C_11
REMARK                            x       y       z     vdW  Elec       q    Type
REMARK                         _______ _______ _______ _____ _____    ______ ____
ROOT
ATOM      1  C   UNL     1      44.891   7.354  11.751  0.00  0.00    +0.000 A 
ATOM      2  C   UNL     1      45.646   7.292  12.939  0.00  0.00    +0.000 A 
ATOM      3  N   UNL     1      46.085   6.156  13.543  0.00  0.00    +0.000 NA
ATOM      4  C   UNL     1      45.742   5.010  12.853  0.00  0.00    +0.000 A 
ATOM      5  N   UNL     1      46.093   3.787  13.232  0.00  0.00    +0.000 NA
ATOM      6  C   UNL     1      45.603   2.965  12.295  0.00  0.00    +0.000 C 
ATOM      7  C   UNL     1      44.892   3.648  11.309  0.00  0.00    +0.000 C 
ATOM      8  C   UNL     1      45.005   4.988  11.678  0.00  0.00    +0.000 A 
ATOM      9  C   UNL     1      44.538   6.162  11.090  0.00  0.00    +0.000 A 
ENDROOT
BRANCH   1  10
ATOM     10  C   UNL     1      44.520   8.683  11.155  0.00  0.00    +0.000 C 
BRANCH  10  11
ATOM     11  N   UNL     1      43.109   8.709  10.795  0.00  0.00    +0.000 NA
ATOM     12  H   UNL     1      42.754   7.754  10.748  0.00  0.00    +0.000 HD
ATOM     13  H   UNL     1      43.001   9.098   9.860  0.00  0.00    +0.000 HD
ENDBRANCH  10  11
ENDBRANCH   1  10
BRANCH   7  14
ATOM     14  C   UNL     1      44.182   3.064  10.134  0.00  0.00    +0.000 C 
BRANCH  14  15
ATOM     15  C   UNL     1      45.120   2.767   8.987  0.00  0.00    +0.000 A 
ATOM     16  C   UNL     1      45.582   3.781   8.169  0.00  0.00    +0.000 A 
ATOM     17  C   UNL     1      46.501   3.413   7.217  0.00  0.00    +0.000 A 
ATOM     18  N   UNL     1      46.922   2.149   7.043  0.00  0.00    +0.000 NA
ATOM     19  C   UNL     1      46.415   1.233   7.871  0.00  0.00    +0.000 A 
ATOM     20  N   UNL     1      46.829  -0.070   7.702  0.00  0.00    +0.000 N 
ATOM     21  N   UNL     1      45.515   1.483   8.831  0.00  0.00    +0.000 NA
ATOM     22  H   UNL     1      47.181  -0.192   6.763  0.00  0.00    +0.000 HD
ATOM     23  H   UNL     1      46.110  -0.706   8.016  0.00  0.00    +0.000 HD
ENDBRANCH  14  15
ENDBRANCH   7  14
TORSDOF 4
ENDMDL
MODEL 3
REMARK VINA RESULT:    -7.171      1.386      5.744
REMARK INTER + INTRA:          -9.009
REMARK INTER:                  -8.506
REMARK INTRA:                  -0.503
REMARK UNBOUND:                -0.371
REMARK  Name = 
REMARK  4 active torsions:
REMARK  status: ('A' for Active; 'I' for Inactive)
REMARK    1  A    between atoms: N_1  and  C_2
REMARK    2  A    between atoms: C_2  and  C_3
REMARK    3  A    between atoms: C_9  and  C_10
REMARK    4  A    between atoms: C_10  and  C_11
REMARK                            x       y       z     vdW  Elec       q    Type
REMARK                         _______ _______ _______ _____ _____    ______ ____
ROOT
ATOM      1  C   UNL     1      45.757   3.428   8.021  0.00  0.00    +0.000 A 
ATOM      2  C   UNL     1      45.029   2.232   8.179  0.00  0.00    +0.000 A 
ATOM      3  N   UNL     1      44.199   1.937   9.214  0.00  0.00    +0.000 NA
ATOM      4  C   UNL     1      44.096   2.963  10.133  0.00  0.00    +0.000 A 
ATOM      5  N   UNL     1      43.316   2.918  11.206  0.00  0.00    +0.000 NA
ATOM      6  C   UNL     1      43.470   4.101  11.813  0.00  0.00    +0.000 C 
ATOM      7  C   UNL     1      44.386   4.921  11.155  0.00  0.00    +0.000 C 
ATOM      8  C   UNL     1      44.776   4.170  10.047  0.00  0.00    +0.000 A 
ATOM      9  C   UNL     1      45.646   4.441   8.992  0.00  0.00    +0.000 A 
ENDROOT
BRANCH   1  10
ATOM     10  C   UNL     1      46.596   3.652   6.794  0.00  0.00    +0.000 C 
BRANCH  10  11
ATOM     11  N   UNL     1      47.829   2.881   6.867  0.00  0.00    +0.000 NA
ATOM     12  H   UNL     1      47.613   1.888   6.787  0.00  0.00    +0.000 HD
ATOM     13  H   UNL     1      48.257   3.006   7.782  0.00  0.00    +0.000 HD
ENDBRANCH  10  11
ENDBRANCH   1  10
BRANCH   7  14
ATOM     14  C   UNL     1      44.833   6.287  11.556  0.00  0.00    +0.000 C 
BRANCH  14  15
ATOM     15  C   UNL     1      46.153   6.265  12.290  0.00  0.00    +0.000 A 
ATOM     16  C   UNL     1      47.260   6.912  11.774  0.00  0.00    +0.000 A 
ATOM     17  C   UNL     1      48.382   6.907  12.566  0.00  0.00    +0.000 A 
ATOM     18  N   UNL     1      48.444   6.293  13.760  0.00  0.00    +0.000 NA
ATOM     19  C   UNL     1      47.331   5.685  14.174  0.00  0.00    +0.000 A 
ATOM     20  N   UNL     1      47.377   5.042  15.392  0.00  0.00    +0.000 N 
ATOM     21  N   UNL     1      46.185   5.628  13.482  0.00  0.00    +0.000 NA
ATOM     22  H   UNL     1      48.338   4.831  15.624  0.00  0.00    +0.000 HD
ATOM     23  H   UNL     1      46.717   4.278  15.407  0.00  0.00    +0.000 HD
ENDBRANCH  14  15
ENDBRANCH   7  14
TORSDOF 4
ENDMDL
MODEL 4
REMARK VINA RESULT:    -7.070      1.832      5.942
REMARK INTER + INTRA:          -8.888
REMARK INTER:                  -8.403
REMARK INTRA:                  -0.485
REMARK UNBOUND:                -0.371
REMARK  Name = 
REMARK  4 active torsions:
REMARK  status: ('A' for Active; 'I' for Inactive)
REMARK    1  A    between atoms: N_1  and  C_2
REMARK    2  A    between atoms: C_2  and  C_3
REMARK    3  A    between atoms: C_9  and  C_10
REMARK    4  A    between atoms: C_10  and  C_11
REMARK                            x       y       z     vdW  Elec       q    Type
REMARK                         _______ _______ _______ _____ _____    ______ ____
ROOT
ATOM      1  C   UNL     1      45.245   3.534   8.616  0.00  0.00    +0.000 A 
ATOM      2  C   UNL     1      44.503   2.472   9.171  0.00  0.00    +0.000 A 
ATOM      3  N   UNL     1      43.811   2.512  10.340  0.00  0.00    +0.000 NA
ATOM      4  C   UNL     1      43.870   3.743  10.962  0.00  0.00    +0.000 A 
ATOM      5  N   UNL     1      43.242   4.030  12.095  0.00  0.00    +0.000 NA
ATOM      6  C   UNL     1      43.518   5.315  12.346  0.00  0.00    +0.000 C 
ATOM      7  C   UNL     1      44.365   5.873  11.388  0.00  0.00    +0.000 C 
ATOM      8  C   UNL     1      44.575   4.837  10.479  0.00  0.00    +0.000 A 
ATOM      9  C   UNL     1      45.302   4.768   9.292  0.00  0.00    +0.000 A 
ENDROOT
BRANCH   1  10
ATOM     10  C   UNL     1      45.916   3.376   7.281  0.00  0.00    +0.000 C 
BRANCH  10  11
ATOM     11  N   UNL     1      46.998   4.339   7.133  0.00  0.00    +0.000 NA
ATOM     12  H   UNL     1      46.607   5.275   7.029  0.00  0.00    +0.000 HD
ATOM     13  H   UNL     1      47.512   4.149   6.275  0.00  0.00    +0.000 HD
ENDBRANCH  10  11
ENDBRANCH   1  10
BRANCH   7  14
ATOM     14  C   UNL     1      44.910   7.262  11.358  0.00  0.00    +0.000 C 
BRANCH  14  15
ATOM     15  C   UNL     1      46.189   7.392  12.152  0.00  0.00    +0.000 A 
ATOM     16  C   UNL     1      47.351   6.774  11.730  0.00  0.00    +0.000 A 
ATOM     17  C   UNL     1      48.474   7.035  12.475  0.00  0.00    +0.000 A 
ATOM     18  N   UNL     1      48.474   7.812  13.571  0.00  0.00    +0.000 NA
ATOM     19  C   UNL     1      47.305   8.360  13.911  0.00  0.00    +0.000 A 
ATOM     20  N   UNL     1      47.282   9.152  15.038  0.00  0.00    +0.000 N 
ATOM     21  N   UNL     1      46.151   8.171  13.257  0.00  0.00    +0.000 NA
ATOM     22  H   UNL     1      48.067   8.919  15.629  0.00  0.00    +0.000 HD
ATOM     23  H   UNL     1      46.363   9.135  15.456  0.00  0.00    +0.000 HD
ENDBRANCH  14  15
ENDBRANCH   7  14
TORSDOF 4
ENDMDL
MODEL 5
REMARK VINA RESULT:    -6.605      1.788      2.308
REMARK INTER + INTRA:          -8.328
REMARK INTER:                  -8.034
REMARK INTRA:                  -0.294
REMARK UNBOUND:                -0.371
REMARK  Name = 
REMARK  4 active torsions:
REMARK  status: ('A' for Active; 'I' for Inactive)
REMARK    1  A    between atoms: N_1  and  C_2
REMARK    2  A    between atoms: C_2  and  C_3
REMARK    3  A    between atoms: C_9  and  C_10
REMARK    4  A    between atoms: C_10  and  C_11
REMARK                            x       y       z     vdW  Elec       q    Type
REMARK                         _______ _______ _______ _____ _____    ______ ____
ROOT
ATOM      1  C   UNL     1      47.021   6.700  12.349  0.00  0.00    +0.000 A 
ATOM      2  C   UNL     1      46.209   7.850  12.428  0.00  0.00    +0.000 A 
ATOM      3  N   UNL     1      44.902   7.925  12.062  0.00  0.00    +0.000 NA
ATOM      4  C   UNL     1      44.397   6.722  11.610  0.00  0.00    +0.000 A 
ATOM      5  N   UNL     1      43.136   6.545  11.234  0.00  0.00    +0.000 NA
ATOM      6  C   UNL     1      43.037   5.252  10.902  0.00  0.00    +0.000 C 
ATOM      7  C   UNL     1      44.252   4.577  11.026  0.00  0.00    +0.000 C 
ATOM      8  C   UNL     1      45.130   5.548  11.506  0.00  0.00    +0.000 A 
ATOM      9  C   UNL     1      46.477   5.498  11.859  0.00  0.00    +0.000 A 
ENDROOT
BRANCH   1  10
ATOM     10  C   UNL     1      48.440   6.737  12.845  0.00  0.00    +0.000 C 
BRANCH  10  11
ATOM     11  N   UNL     1      48.522   6.217  14.203  0.00  0.00    +0.000 NA
ATOM     12  H   UNL     1      48.057   6.862  14.841  0.00  0.00    +0.000 HD
ATOM     13  H   UNL     1      49.496   6.179  14.497  0.00  0.00    +0.000 HD
ENDBRANCH  10  11
ENDBRANCH   1  10
BRANCH   7  14
ATOM     14  C   UNL     1      44.530   3.145  10.714  0.00  0.00    +0.000 C 
BRANCH  14  15
ATOM     15  C   UNL     1      45.208   2.971   9.375  0.00  0.00    +0.000 A 
ATOM     16  C   UNL     1      45.392   4.049   8.530  0.00  0.00    +0.000 A 
ATOM     17  C   UNL     1      46.101   3.796   7.382  0.00  0.00    +0.000 A 
ATOM     18  N   UNL     1      46.574   2.582   7.054  0.00  0.00    +0.000 NA
ATOM     19  C   UNL     1      46.341   1.598   7.925  0.00  0.00    +0.000 A 
ATOM     20  N   UNL     1      46.811   0.344   7.602  0.00  0.00    +0.000 N 
ATOM     21  N   UNL     1      45.661   1.734   9.071  0.00  0.00    +0.000 NA
ATOM     22  H   UNL     1      46.953   0.284   6.603  0.00  0.00    +0.000 HD
ATOM     23  H   UNL     1      46.234  -0.365   8.033  0.00  0.00    +0.000 HD
ENDBRANCH  14  15
ENDBRANCH   7  14
TORSDOF 4
ENDMDL
MODEL 6
REMARK VINA RESULT:    -6.381      2.965      5.998
REMARK INTER + INTRA:          -8.058
REMARK INTER:                  -7.745
REMARK INTRA:                  -0.313
REMARK UNBOUND:                -0.371
REMARK  Name = 
REMARK  4 active torsions:
REMARK  status: ('A' for Active; 'I' for Inactive)
REMARK    1  A    between atoms: N_1  and  C_2
REMARK    2  A    between atoms: C_2  and  C_3
REMARK    3  A    between atoms: C_9  and  C_10
REMARK    4  A    between atoms: C_10  and  C_11
REMARK                            x       y       z     vdW  Elec       q    Type
REMARK                         _______ _______ _______ _____ _____    ______ ____
ROOT
ATOM      1  C   UNL     1      45.185   3.691   8.838  0.00  0.00    +0.000 A 
ATOM      2  C   UNL     1      44.260   2.786   9.399  0.00  0.00    +0.000 A 
ATOM      3  N   UNL     1      43.825   2.791  10.686  0.00  0.00    +0.000 NA
ATOM      4  C   UNL     1      44.364   3.818  11.435  0.00  0.00    +0.000 A 
ATOM      5  N   UNL     1      44.057   4.045  12.707  0.00  0.00    +0.000 NA
ATOM      6  C   UNL     1      44.752   5.134  13.057  0.00  0.00    +0.000 C 
ATOM      7  C   UNL     1      45.552   5.610  12.018  0.00  0.00    +0.000 C 
ATOM      8  C   UNL     1      45.276   4.749  10.957  0.00  0.00    +0.000 A 
ATOM      9  C   UNL     1      45.732   4.709   9.641  0.00  0.00    +0.000 A 
ENDROOT
BRANCH   1  10
ATOM     10  C   UNL     1      45.537   3.611   7.379  0.00  0.00    +0.000 C 
BRANCH  10  11
ATOM     11  N   UNL     1      46.842   4.208   7.133  0.00  0.00    +0.000 NA
ATOM     12  H   UNL     1      47.141   4.724   7.960  0.00  0.00    +0.000 HD
ATOM     13  H   UNL     1      46.770   4.892   6.382  0.00  0.00    +0.000 HD
ENDBRANCH  10  11
ENDBRANCH   1  10
BRANCH   7  14
ATOM     14  C   UNL     1      46.482   6.776  12.051  0.00  0.00    +0.000 C 
BRANCH  14  15
ATOM     15  C   UNL     1      45.758   8.092  11.885  0.00  0.00    +0.000 A 
ATOM     16  C   UNL     1      46.377   9.286  12.205  0.00  0.00    +0.000 A 
ATOM     17  C   UNL     1      45.663  10.425  11.929  0.00  0.00    +0.000 A 
ATOM     18  N   UNL     1      44.424  10.416  11.410  0.00  0.00    +0.000 NA
ATOM     19  C   UNL     1      43.900   9.217  11.142  0.00  0.00    +0.000 A 
ATOM     20  N   UNL     1      42.626   9.187  10.617  0.00  0.00    +0.000 N 
ATOM     21  N   UNL     1      44.509   8.046  11.372  0.00  0.00    +0.000 NA
ATOM     22  H   UNL     1      42.150  10.050  10.839  0.00  0.00    +0.000 HD
ATOM     23  H   UNL     1      42.167   8.324  10.870  0.00  0.00    +0.000 HD
ENDBRANCH  14  15
ENDBRANCH   7  14
TORSDOF 4
ENDMDL
MODEL 7
REMARK VINA RESULT:    -6.158      3.460      6.743
REMARK INTER + INTRA:          -7.790
REMARK INTER:                  -7.346
REMARK INTRA:                  -0.444
REMARK UNBOUND:                -0.371
REMARK  Name = 
REMARK  4 active torsions:
REMARK  status: ('A' for Active; 'I' for Inactive)
REMARK    1  A    between atoms: N_1  and  C_2
REMARK    2  A    between atoms: C_2  and  C_3
REMARK    3  A    between atoms: C_9  and  C_10
REMARK    4  A    between atoms: C_10  and  C_11
REMARK                            x       y       z     vdW  Elec       q    Type
REMARK                         _______ _______ _______ _____ _____    ______ ____
ROOT
ATOM      1  C   UNL     1      44.076   4.284  11.407  0.00  0.00    +0.000 A 
ATOM      2  C   UNL     1      43.079   5.256  11.185  0.00  0.00    +0.000 A 
ATOM      3  N   UNL     1      43.232   6.598  11.330  0.00  0.00    +0.000 NA
ATOM      4  C   UNL     1      44.511   6.959  11.703  0.00  0.00    +0.000 A 
ATOM      5  N   UNL     1      44.906   8.216  11.868  0.00  0.00    +0.000 NA
ATOM      6  C   UNL     1      46.203   8.148  12.191  0.00  0.00    +0.000 C 
ATOM      7  C   UNL     1      46.661   6.833  12.274  0.00  0.00    +0.000 C 
ATOM      8  C   UNL     1      45.547   6.065  11.937  0.00  0.00    +0.000 A 
ATOM      9  C   UNL     1      45.362   4.690  11.811  0.00  0.00    +0.000 A 
ENDROOT
BRANCH   1  10
ATOM     10  C   UNL     1      43.791   2.831  11.150  0.00  0.00    +0.000 C 
BRANCH  10  11
ATOM     11  N   UNL     1      43.490   2.139  12.396  0.00  0.00    +0.000 NA
ATOM     12  H   UNL     1      43.286   2.824  13.123  0.00  0.00    +0.000 HD
ATOM     13  H   UNL     1      44.311   1.627  12.711  0.00  0.00    +0.000 HD
ENDBRANCH  10  11
ENDBRANCH   1  10
BRANCH   7  14
ATOM     14  C   UNL     1      48.032   6.371  12.641  0.00  0.00    +0.000 C 
BRANCH  14  15
ATOM     15  C   UNL     1      48.162   6.076  14.117  0.00  0.00    +0.000 A 
ATOM     16  C   UNL     1      48.803   6.963  14.962  0.00  0.00    +0.000 A 
ATOM     17  C   UNL     1      48.783   6.641  16.296  0.00  0.00    +0.000 A 
ATOM     18  N   UNL     1      48.212   5.526  16.782  0.00  0.00    +0.000 NA
ATOM     19  C   UNL     1      47.625   4.723  15.892  0.00  0.00    +0.000 A 
ATOM     20  N   UNL     1      47.041   3.569  16.370  0.00  0.00    +0.000 N 
ATOM     21  N   UNL     1      47.587   4.940  14.571  0.00  0.00    +0.000 NA
ATOM     22  H   UNL     1      47.446   3.333  17.265  0.00  0.00    +0.000 HD
ATOM     23  H   UNL     1      47.045   2.856  15.655  0.00  0.00    +0.000 HD
ENDBRANCH  14  15
ENDBRANCH   7  14
TORSDOF 4
ENDMDL
MODEL 8
REMARK VINA RESULT:    -5.993      2.729      5.163
REMARK INTER + INTRA:          -7.590
REMARK INTER:                  -7.219
REMARK INTRA:                  -0.371
REMARK UNBOUND:                -0.371
REMARK  Name = 
REMARK  4 active torsions:
REMARK  status: ('A' for Active; 'I' for Inactive)
REMARK    1  A    between atoms: N_1  and  C_2
REMARK    2  A    between atoms: C_2  and  C_3
REMARK    3  A    between atoms: C_9  and  C_10
REMARK    4  A    between atoms: C_10  and  C_11
REMARK                            x       y       z     vdW  Elec       q    Type
REMARK                         _______ _______ _______ _____ _____    ______ ____
ROOT
ATOM      1  C   UNL     1      48.300   5.369  17.003  0.00  0.00    +0.000 A 
ATOM      2  C   UNL     1      49.011   6.551  16.711  0.00  0.00    +0.000 A 
ATOM      3  N   UNL     1      49.069   7.164  15.500  0.00  0.00    +0.000 NA
ATOM      4  C   UNL     1      48.319   6.524  14.533  0.00  0.00    +0.000 A 
ATOM      5  N   UNL     1      48.195   6.961  13.286  0.00  0.00    +0.000 NA
ATOM      6  C   UNL     1      47.370   6.096  12.682  0.00  0.00    +0.000 C 
ATOM      7  C   UNL     1      46.975   5.060  13.528  0.00  0.00    +0.000 C 
ATOM      8  C   UNL     1      47.590   5.361  14.742  0.00  0.00    +0.000 A 
ATOM      9  C   UNL     1      47.567   4.731  15.984  0.00  0.00    +0.000 A 
ENDROOT
BRANCH   1  10
ATOM     10  C   UNL     1      48.269   4.827  18.405  0.00  0.00    +0.000 C 
BRANCH  10  11
ATOM     11  N   UNL     1      46.984   5.100  19.032  0.00  0.00    +0.000 NA
ATOM     12  H   UNL     1      46.263   4.533  18.588  0.00  0.00    +0.000 HD
ATOM     13  H   UNL     1      46.723   6.070  18.871  0.00  0.00    +0.000 HD
ENDBRANCH  10  11
ENDBRANCH   1  10
BRANCH   7  14
ATOM     14  C   UNL     1      46.094   3.903  13.194  0.00  0.00    +0.000 C 
BRANCH  14  15
ATOM     15  C   UNL     1      44.896   4.314  12.369  0.00  0.00    +0.000 A 
ATOM     16  C   UNL     1      43.793   4.895  12.965  0.00  0.00    +0.000 A 
ATOM     17  C   UNL     1      42.802   5.313  12.111  0.00  0.00    +0.000 A 
ATOM     18  N   UNL     1      42.854   5.154  10.778  0.00  0.00    +0.000 NA
ATOM     19  C   UNL     1      43.953   4.573  10.292  0.00  0.00    +0.000 A 
ATOM     20  N   UNL     1      44.022   4.393   8.928  0.00  0.00    +0.000 N 
ATOM     21  N   UNL     1      44.977   4.128  11.033  0.00  0.00    +0.000 NA
ATOM     22  H   UNL     1      43.089   4.408   8.539  0.00  0.00    +0.000 HD
ATOM     23  H   UNL     1      44.602   3.595   8.711  0.00  0.00    +0.000 HD
ENDBRANCH  14  15
ENDBRANCH   7  14
TORSDOF 4
ENDMDL
MODEL 9
REMARK VINA RESULT:    -5.920      3.310      7.692
REMARK INTER + INTRA:          -7.503
REMARK INTER:                  -7.239
REMARK INTRA:                  -0.264
REMARK UNBOUND:                -0.371
REMARK  Name = 
REMARK  4 active torsions:
REMARK  status: ('A' for Active; 'I' for Inactive)
REMARK    1  A    between atoms: N_1  and  C_2
REMARK    2  A    between atoms: C_2  and  C_3
REMARK    3  A    between atoms: C_9  and  C_10
REMARK    4  A    between atoms: C_10  and  C_11
REMARK                            x       y       z     vdW  Elec       q    Type
REMARK                         _______ _______ _______ _____ _____    ______ ____
ROOT
ATOM      1  C   UNL     1      44.769   4.126  11.461  0.00  0.00    +0.000 A 
ATOM      2  C   UNL     1      45.048   5.381  10.884  0.00  0.00    +0.000 A 
ATOM      3  N   UNL     1      45.875   6.327  11.401  0.00  0.00    +0.000 NA
ATOM      4  C   UNL     1      46.475   5.935  12.581  0.00  0.00    +0.000 A 
ATOM      5  N   UNL     1      47.349   6.678  13.248  0.00  0.00    +0.000 NA
ATOM      6  C   UNL     1      47.718   5.941  14.303  0.00  0.00    +0.000 C 
ATOM      7  C   UNL     1      47.054   4.715  14.353  0.00  0.00    +0.000 C 
ATOM      8  C   UNL     1      46.255   4.717  13.210  0.00  0.00    +0.000 A 
ATOM      9  C   UNL     1      45.380   3.772  12.679  0.00  0.00    +0.000 A 
ENDROOT
BRANCH   1  10
ATOM     10  C   UNL     1      43.878   3.144  10.753  0.00  0.00    +0.000 C 
BRANCH  10  11
ATOM     11  N   UNL     1      43.106   2.367  11.712  0.00  0.00    +0.000 NA
ATOM     12  H   UNL     1      42.876   1.461  11.306  0.00  0.00    +0.000 HD
ATOM     13  H   UNL     1      42.218   2.831  11.893  0.00  0.00    +0.000 HD
ENDBRANCH  10  11
ENDBRANCH   1  10
BRANCH   7  14
ATOM     14  C   UNL     1      47.183   3.656  15.395  0.00  0.00    +0.000 C 
BRANCH  14  15
ATOM     15  C   UNL     1      47.928   4.141  16.617  0.00  0.00    +0.000 A 
ATOM     16  C   UNL     1      47.252   4.713  17.678  0.00  0.00    +0.000 A 
ATOM     17  C   UNL     1      48.016   5.033  18.773  0.00  0.00    +0.000 A 
ATOM     18  N   UNL     1      49.345   4.845  18.831  0.00  0.00    +0.000 NA
ATOM     19  C   UNL     1      49.916   4.297  17.757  0.00  0.00    +0.000 A 
ATOM     20  N   UNL     1      51.279   4.105  17.794  0.00  0.00    +0.000 N 
ATOM     21  N   UNL     1      49.266   3.948  16.638  0.00  0.00    +0.000 NA
ATOM     22  H   UNL     1      51.688   4.723  18.481  0.00  0.00    +0.000 HD
ATOM     23  H   UNL     1      51.660   4.133  16.859  0.00  0.00    +0.000 HD
ENDBRANCH  14  15
ENDBRANCH   7  14
TORSDOF 4
ENDMDL
