MODEL 1
REMARK VINA RESULT:    -8.043      0.000      0.000
REMARK INTER + INTRA:         -11.279
REMARK INTER:                 -10.864
REMARK INTRA:                  -0.415
REMARK UNBOUND:                -0.415
REMARK  Name = 
REMARK  7 active torsions:
REMARK  status: ('A' for Active; 'I' for Inactive)
REMARK    1  A    between atoms: C_1  and  O_2
REMARK    2  A    between atoms: O_2  and  C_3
REMARK    3  A    between atoms: C_5  and  C_6
REMARK    4  A    between atoms: C_11  and  O_12
REMARK    5  A    between atoms: O_12  and  C_13
REMARK    6  A    between atoms: C_13  and  C_14
REMARK    7  A    between atoms: C_18  and  C_19
REMARK                            x       y       z     vdW  Elec       q    Type
REMARK                         _______ _______ _______ _____ _____    ______ ____
ROOT
ATOM      1  O   UNL     1      44.005   5.158   9.904  0.00  0.00    +0.000 OA
ENDROOT
BRANCH   1   7
ATOM      2  C   UNL     1      44.460   2.705   9.643  0.00  0.00    +0.000 A 
ATOM      3  C   UNL     1      45.245   1.749   8.984  0.00  0.00    +0.000 A 
ATOM      4  C   UNL     1      46.220   2.117   8.045  0.00  0.00    +0.000 A 
ATOM      5  C   UNL     1      46.405   3.470   7.758  0.00  0.00    +0.000 A 
ATOM      6  C   UNL     1      45.628   4.434   8.414  0.00  0.00    +0.000 A 
ATOM      7  C   UNL     1      44.655   4.070   9.359  0.00  0.00    +0.000 A 
BRANCH   4   8
ATOM      8  C   UNL     1      46.993   1.012   7.405  0.00  0.00    +0.000 C 
ATOM      9  N   UNL     1      46.687  -0.283   7.716  0.00  0.00    +0.000 N 
ATOM     10  O   UNL     1      47.893   1.243   6.607  0.00  0.00    +0.000 OA
ATOM     11  H   UNL     1      45.974  -0.567   8.368  0.00  0.00    +0.000 HD
ATOM     12  H   UNL     1      47.237  -1.003   7.266  0.00  0.00    +0.000 HD
ENDBRANCH   4   8
BRANCH   2  14
ATOM     13  C   UNL     1      43.784   2.246  11.891  0.00  0.00    +0.000 C 
ATOM     14  O   UNL     1      43.462   2.341  10.508  0.00  0.00    +0.000 OA
ENDBRANCH   2  14
ENDBRANCH   1   7
BRANCH   1  15
ATOM     15  C   UNL     1      44.051   5.290  11.323  0.00  0.00    +0.000 C 
BRANCH  15  16
ATOM     16  C   UNL     1      45.426   5.642  11.848  0.00  0.00    +0.000 A 
ATOM     17  C   UNL     1      46.161   6.641  11.194  0.00  0.00    +0.000 A 
ATOM     18  C   UNL     1      47.364   7.095  11.724  0.00  0.00    +0.000 A 
ATOM     19  C   UNL     1      47.832   6.572  12.930  0.00  0.00    +0.000 A 
ATOM     20  C   UNL     1      47.110   5.589  13.634  0.00  0.00    +0.000 A 
ATOM     21  C   UNL     1      45.912   5.122  13.057  0.00  0.00    +0.000 A 
BRANCH  20  22
ATOM     22  C   UNL     1      47.557   5.116  14.960  0.00  0.00    +0.000 A 
ATOM     23  C   UNL     1      47.138   3.894  15.506  0.00  0.00    +0.000 A 
ATOM     24  C   UNL     1      47.547   3.509  16.784  0.00  0.00    +0.000 A 
ATOM     25  C   UNL     1      48.383   4.355  17.490  0.00  0.00    +0.000 A 
ATOM     26  N   UNL     1      48.820   5.536  17.015  0.00  0.00    +0.000 NA
ATOM     27  C   UNL     1      48.394   5.885  15.775  0.00  0.00    +0.000 A 
ENDBRANCH  20  22
ENDBRANCH  15  16
ENDBRANCH   1  15
TORSDOF 6
ENDMDL
MODEL 2
REMARK VINA RESULT:    -7.868      1.804      3.009
REMARK INTER + INTRA:         -11.043
REMARK INTER:                 -10.777
REMARK INTRA:                  -0.266
REMARK UNBOUND:                -0.415
REMARK  Name = 
REMARK  7 active torsions:
REMARK  status: ('A' for Active; 'I' for Inactive)
REMARK    1  A    between atoms: C_1  and  O_2
REMARK    2  A    between atoms: O_2  and  C_3
REMARK    3  A    between atoms: C_5  and  C_6
REMARK    4  A    between atoms: C_11  and  O_12
REMARK    5  A    between atoms: O_12  and  C_13
REMARK    6  A    between atoms: C_13  and  C_14
REMARK    7  A    between atoms: C_18  and  C_19
REMARK                            x       y       z     vdW  Elec       q    Type
REMARK                         _______ _______ _______ _____ _____    ______ ____
ROOT
ATOM      1  O   UNL     1      43.890   4.925  10.330  0.00  0.00    +0.000 OA
ENDROOT
BRANCH   1   7
ATOM      2  C   UNL     1      44.637   2.658   9.558  0.00  0.00    +0.000 A 
ATOM      3  C   UNL     1      45.523   1.968   8.719  0.00  0.00    +0.000 A 
ATOM      4  C   UNL     1      46.431   2.643   7.891  0.00  0.00    +0.000 A 
ATOM      5  C   UNL     1      46.444   4.039   7.900  0.00  0.00    +0.000 A 
ATOM      6  C   UNL     1      45.566   4.738   8.738  0.00  0.00    +0.000 A 
ATOM      7  C   UNL     1      44.659   4.066   9.573  0.00  0.00    +0.000 A 
BRANCH   4   8
ATOM      8  C   UNL     1      47.322   1.803   7.038  0.00  0.00    +0.000 C 
ATOM      9  N   UNL     1      48.376   2.388   6.394  0.00  0.00    +0.000 N 
ATOM     10  O   UNL     1      47.128   0.601   6.905  0.00  0.00    +0.000 OA
ATOM     11  H   UNL     1      48.604   3.368   6.434  0.00  0.00    +0.000 HD
ATOM     12  H   UNL     1      48.952   1.786   5.821  0.00  0.00    +0.000 HD
ENDBRANCH   4   8
BRANCH   2  14
ATOM     13  C   UNL     1      43.478   2.462  11.641  0.00  0.00    +0.000 C 
ATOM     14  O   UNL     1      43.705   1.999  10.315  0.00  0.00    +0.000 OA
ENDBRANCH   2  14
ENDBRANCH   1   7
BRANCH   1  15
ATOM     15  C   UNL     1      44.476   6.179  10.672  0.00  0.00    +0.000 C 
BRANCH  15  16
ATOM     16  C   UNL     1      45.445   6.092  11.832  0.00  0.00    +0.000 A 
ATOM     17  C   UNL     1      45.210   5.140  12.835  0.00  0.00    +0.000 A 
ATOM     18  C   UNL     1      46.147   4.929  13.840  0.00  0.00    +0.000 A 
ATOM     19  C   UNL     1      47.341   5.650  13.839  0.00  0.00    +0.000 A 
ATOM     20  C   UNL     1      47.629   6.594  12.835  0.00  0.00    +0.000 A 
ATOM     21  C   UNL     1      46.648   6.814  11.847  0.00  0.00    +0.000 A 
BRANCH  20  22
ATOM     22  C   UNL     1      48.937   7.277  12.779  0.00  0.00    +0.000 A 
ATOM     23  C   UNL     1      49.519   7.697  11.575  0.00  0.00    +0.000 A 
ATOM     24  C   UNL     1      50.780   8.295  11.566  0.00  0.00    +0.000 A 
ATOM     25  C   UNL     1      51.432   8.475  12.772  0.00  0.00    +0.000 A 
ATOM     26  N   UNL     1      50.920   8.097  13.959  0.00  0.00    +0.000 NA
ATOM     27  C   UNL     1      49.699   7.508  13.930  0.00  0.00    +0.000 A 
ENDBRANCH  20  22
ENDBRANCH  15  16
ENDBRANCH   1  15
TORSDOF 6
ENDMDL
MODEL 3
REMARK VINA RESULT:    -7.627      3.573      7.649
REMARK INTER + INTRA:         -10.718
REMARK INTER:                  -9.774
REMARK INTRA:                  -0.944
REMARK UNBOUND:                -0.415
REMARK  Name = 
REMARK  7 active torsions:
REMARK  status: ('A' for Active; 'I' for Inactive)
REMARK    1  A    between atoms: C_1  and  O_2
REMARK    2  A    between atoms: O_2  and  C_3
REMARK    3  A    between atoms: C_5  and  C_6
REMARK    4  A    between atoms: C_11  and  O_12
REMARK    5  A    between atoms: O_12  and  C_13
REMARK    6  A    between atoms: C_13  and  C_14
REMARK    7  A    between atoms: C_18  and  C_19
REMARK                            x       y       z     vdW  Elec       q    Type
REMARK                         _______ _______ _______ _____ _____    ______ ____
ROOT
ATOM      1  O   UNL     1      45.020   6.789  12.592  0.00  0.00    +0.000 OA
ENDROOT
BRANCH   1   7
ATOM      2  C   UNL     1      46.171   8.997  12.293  0.00  0.00    +0.000 A 
ATOM      3  C   UNL     1      47.396   9.624  12.027  0.00  0.00    +0.000 A 
ATOM      4  C   UNL     1      48.572   8.887  11.825  0.00  0.00    +0.000 A 
ATOM      5  C   UNL     1      48.518   7.495  11.901  0.00  0.00    +0.000 A 
ATOM      6  C   UNL     1      47.298   6.858  12.163  0.00  0.00    +0.000 A 
ATOM      7  C   UNL     1      46.116   7.592  12.360  0.00  0.00    +0.000 A 
BRANCH   4   8
ATOM      8  C   UNL     1      49.817   9.663  11.552  0.00  0.00    +0.000 C 
ATOM      9  N   UNL     1      49.723  10.881  10.938  0.00  0.00    +0.000 N 
ATOM     10  O   UNL     1      50.919   9.232  11.867  0.00  0.00    +0.000 OA
ATOM     11  H   UNL     1      48.865  11.309  10.633  0.00  0.00    +0.000 HD
ATOM     12  H   UNL     1      50.590  11.372  10.764  0.00  0.00    +0.000 HD
ENDBRANCH   4   8
BRANCH   2  14
ATOM     13  C   UNL     1      44.414  10.396  11.472  0.00  0.00    +0.000 C 
ATOM     14  O   UNL     1      45.038   9.721  12.558  0.00  0.00    +0.000 OA
ENDBRANCH   2  14
ENDBRANCH   1   7
BRANCH   1  15
ATOM     15  C   UNL     1      44.219   6.450  11.461  0.00  0.00    +0.000 C 
BRANCH  15  16
ATOM     16  C   UNL     1      44.317   4.990  11.074  0.00  0.00    +0.000 A 
ATOM     17  C   UNL     1      43.460   4.070  11.694  0.00  0.00    +0.000 A 
ATOM     18  C   UNL     1      43.416   2.747  11.269  0.00  0.00    +0.000 A 
ATOM     19  C   UNL     1      44.212   2.336  10.199  0.00  0.00    +0.000 A 
ATOM     20  C   UNL     1      45.064   3.234   9.529  0.00  0.00    +0.000 A 
ATOM     21  C   UNL     1      45.115   4.560  10.003  0.00  0.00    +0.000 A 
BRANCH  20  22
ATOM     22  C   UNL     1      45.824   2.819   8.332  0.00  0.00    +0.000 A 
ATOM     23  C   UNL     1      46.066   3.683   7.254  0.00  0.00    +0.000 A 
ATOM     24  C   UNL     1      46.747   3.233   6.123  0.00  0.00    +0.000 A 
ATOM     25  C   UNL     1      47.187   1.922   6.097  0.00  0.00    +0.000 A 
ATOM     26  N   UNL     1      46.988   1.050   7.103  0.00  0.00    +0.000 NA
ATOM     27  C   UNL     1      46.313   1.517   8.182  0.00  0.00    +0.000 A 
ENDBRANCH  20  22
ENDBRANCH  15  16
ENDBRANCH   1  15
TORSDOF 6
ENDMDL
MODEL 4
REMARK VINA RESULT:    -7.367      3.059      7.198
REMARK INTER + INTRA:         -10.366
REMARK INTER:                  -9.486
REMARK INTRA:                  -0.880
REMARK UNBOUND:                -0.415
REMARK  Name = 
REMARK  7 active torsions:
REMARK  status: ('A' for Active; 'I' for Inactive)
REMARK    1  A    between atoms: C_1  and  O_2
REMARK    2  A    between atoms: O_2  and  C_3
REMARK    3  A    between atoms: C_5  and  C_6
REMARK    4  A    between atoms: C_11  and  O_12
REMARK    5  A    between atoms: O_12  and  C_13
REMARK    6  A    between atoms: C_13  and  C_14
REMARK    7  A    between atoms: C_18  and  C_19
REMARK                            x       y       z     vdW  Elec       q    Type
REMARK                         _______ _______ _______ _____ _____    ______ ____
ROOT
ATOM      1  O   UNL     1      45.578   7.175  13.063  0.00  0.00    +0.000 OA
ENDROOT
BRANCH   1   7
ATOM      2  C   UNL     1      47.978   6.633  13.546  0.00  0.00    +0.000 A 
ATOM      3  C   UNL     1      49.308   6.960  13.250  0.00  0.00    +0.000 A 
ATOM      4  C   UNL     1      49.632   7.965  12.327  0.00  0.00    +0.000 A 
ATOM      5  C   UNL     1      48.600   8.649  11.684  0.00  0.00    +0.000 A 
ATOM      6  C   UNL     1      47.267   8.333  11.975  0.00  0.00    +0.000 A 
ATOM      7  C   UNL     1      46.938   7.331  12.903  0.00  0.00    +0.000 A 
BRANCH   4   8
ATOM      8  C   UNL     1      51.083   8.223  12.091  0.00  0.00    +0.000 C 
ATOM      9  N   UNL     1      51.729   7.542  11.097  0.00  0.00    +0.000 N 
ATOM     10  O   UNL     1      51.705   9.032  12.768  0.00  0.00    +0.000 OA
ATOM     11  H   UNL     1      51.304   6.852  10.501  0.00  0.00    +0.000 HD
ATOM     12  H   UNL     1      52.713   7.741  10.973  0.00  0.00    +0.000 HD
ENDBRANCH   4   8
BRANCH   2  14
ATOM     13  C   UNL     1      46.983   4.479  13.852  0.00  0.00    +0.000 C 
ATOM     14  O   UNL     1      47.664   5.605  14.395  0.00  0.00    +0.000 OA
ENDBRANCH   2  14
ENDBRANCH   1   7
BRANCH   1  15
ATOM     15  C   UNL     1      44.801   7.046  11.873  0.00  0.00    +0.000 C 
BRANCH  15  16
ATOM     16  C   UNL     1      44.574   5.607  11.459  0.00  0.00    +0.000 A 
ATOM     17  C   UNL     1      43.504   4.903  12.030  0.00  0.00    +0.000 A 
ATOM     18  C   UNL     1      43.173   3.632  11.576  0.00  0.00    +0.000 A 
ATOM     19  C   UNL     1      43.893   3.060  10.527  0.00  0.00    +0.000 A 
ATOM     20  C   UNL     1      44.955   3.745   9.907  0.00  0.00    +0.000 A 
ATOM     21  C   UNL     1      45.292   5.018  10.408  0.00  0.00    +0.000 A 
BRANCH  20  22
ATOM     22  C   UNL     1      45.645   3.179   8.728  0.00  0.00    +0.000 A 
ATOM     23  C   UNL     1      46.035   3.963   7.634  0.00  0.00    +0.000 A 
ATOM     24  C   UNL     1      46.641   3.378   6.521  0.00  0.00    +0.000 A 
ATOM     25  C   UNL     1      46.858   2.013   6.532  0.00  0.00    +0.000 A 
ATOM     26  N   UNL     1      46.510   1.212   7.556  0.00  0.00    +0.000 NA
ATOM     27  C   UNL     1      45.913   1.811   8.616  0.00  0.00    +0.000 A 
ENDBRANCH  20  22
ENDBRANCH  15  16
ENDBRANCH   1  15
TORSDOF 6
ENDMDL
MODEL 5
REMARK VINA RESULT:    -7.244      2.439      3.172
REMARK INTER + INTRA:         -10.201
REMARK INTER:                  -9.579
REMARK INTRA:                  -0.622
REMARK UNBOUND:                -0.415
REMARK  Name = 
REMARK  7 active torsions:
REMARK  status: ('A' for Active; 'I' for Inactive)
REMARK    1  A    between atoms: C_1  and  O_2
REMARK    2  A    between atoms: O_2  and  C_3
REMARK    3  A    between atoms: C_5  and  C_6
REMARK    4  A    between atoms: C_11  and  O_12
REMARK    5  A    between atoms: O_12  and  C_13
REMARK    6  A    between atoms: C_13  and  C_14
REMARK    7  A    between atoms: C_18  and  C_19
REMARK                            x       y       z     vdW  Elec       q    Type
REMARK                         _______ _______ _______ _____ _____    ______ ____
ROOT
ATOM      1  O   UNL     1      44.244   5.396  10.336  0.00  0.00    +0.000 OA
ENDROOT
BRANCH   1   7
ATOM      2  C   UNL     1      44.468   2.951   9.828  0.00  0.00    +0.000 A 
ATOM      3  C   UNL     1      45.140   1.999   9.048  0.00  0.00    +0.000 A 
ATOM      4  C   UNL     1      46.109   2.371   8.105  0.00  0.00    +0.000 A 
ATOM      5  C   UNL     1      46.403   3.725   7.937  0.00  0.00    +0.000 A 
ATOM      6  C   UNL     1      45.740   4.683   8.714  0.00  0.00    +0.000 A 
ATOM      7  C   UNL     1      44.773   4.315   9.664  0.00  0.00    +0.000 A 
BRANCH   4   8
ATOM      8  C   UNL     1      46.755   1.271   7.330  0.00  0.00    +0.000 C 
ATOM      9  N   UNL     1      46.682  -0.010   7.802  0.00  0.00    +0.000 N 
ATOM     10  O   UNL     1      47.348   1.493   6.282  0.00  0.00    +0.000 OA
ATOM     11  H   UNL     1      46.228  -0.284   8.658  0.00  0.00    +0.000 HD
ATOM     12  H   UNL     1      47.138  -0.726   7.252  0.00  0.00    +0.000 HD
ENDBRANCH   4   8
BRANCH   2  14
ATOM     13  C   UNL     1      43.793   2.533  12.084  0.00  0.00    +0.000 C 
ATOM     14  O   UNL     1      43.474   2.591  10.699  0.00  0.00    +0.000 OA
ENDBRANCH   2  14
ENDBRANCH   1   7
BRANCH   1  15
ATOM     15  C   UNL     1      44.797   5.691  11.617  0.00  0.00    +0.000 C 
BRANCH  15  16
ATOM     16  C   UNL     1      45.515   7.023  11.668  0.00  0.00    +0.000 A 
ATOM     17  C   UNL     1      44.752   8.200  11.661  0.00  0.00    +0.000 A 
ATOM     18  C   UNL     1      45.359   9.436  11.849  0.00  0.00    +0.000 A 
ATOM     19  C   UNL     1      46.735   9.507  12.072  0.00  0.00    +0.000 A 
ATOM     20  C   UNL     1      47.532   8.348  12.117  0.00  0.00    +0.000 A 
ATOM     21  C   UNL     1      46.897   7.111  11.889  0.00  0.00    +0.000 A 
BRANCH  20  22
ATOM     22  C   UNL     1      48.968   8.420  12.458  0.00  0.00    +0.000 A 
ATOM     23  C   UNL     1      49.967   8.586  11.489  0.00  0.00    +0.000 A 
ATOM     24  C   UNL     1      51.314   8.600  11.853  0.00  0.00    +0.000 A 
ATOM     25  C   UNL     1      51.636   8.460  13.190  0.00  0.00    +0.000 A 
ATOM     26  N   UNL     1      50.720   8.304  14.164  0.00  0.00    +0.000 NA
ATOM     27  C   UNL     1      49.422   8.282  13.774  0.00  0.00    +0.000 A 
ENDBRANCH  20  22
ENDBRANCH  15  16
ENDBRANCH   1  15
TORSDOF 6
ENDMDL
MODEL 6
REMARK VINA RESULT:    -7.018      3.316      8.370
REMARK INTER + INTRA:          -9.895
REMARK INTER:                  -9.276
REMARK INTRA:                  -0.619
REMARK UNBOUND:                -0.415
REMARK  Name = 
REMARK  7 active torsions:
REMARK  status: ('A' for Active; 'I' for Inactive)
REMARK    1  A    between atoms: C_1  and  O_2
REMARK    2  A    between atoms: O_2  and  C_3
REMARK    3  A    between atoms: C_5  and  C_6
REMARK    4  A    between atoms: C_11  and  O_12
REMARK    5  A    between atoms: O_12  and  C_13
REMARK    6  A    between atoms: C_13  and  C_14
REMARK    7  A    between atoms: C_18  and  C_19
REMARK                            x       y       z     vdW  Elec       q    Type
REMARK                         _______ _______ _______ _____ _____    ______ ____
ROOT
ATOM      1  O   UNL     1      46.949   4.436  14.216  0.00  0.00    +0.000 OA
ENDROOT
BRANCH   1   7
ATOM      2  C   UNL     1      48.529   5.462  15.871  0.00  0.00    +0.000 A 
ATOM      3  C   UNL     1      49.018   5.393  17.183  0.00  0.00    +0.000 A 
ATOM      4  C   UNL     1      48.550   4.436  18.094  0.00  0.00    +0.000 A 
ATOM      5  C   UNL     1      47.566   3.535  17.683  0.00  0.00    +0.000 A 
ATOM      6  C   UNL     1      47.074   3.593  16.372  0.00  0.00    +0.000 A 
ATOM      7  C   UNL     1      47.544   4.547  15.454  0.00  0.00    +0.000 A 
BRANCH   4   8
ATOM      8  C   UNL     1      49.141   4.461  19.465  0.00  0.00    +0.000 C 
ATOM      9  N   UNL     1      48.467   3.865  20.493  0.00  0.00    +0.000 N 
ATOM     10  O   UNL     1      50.217   5.003  19.684  0.00  0.00    +0.000 OA
ATOM     11  H   UNL     1      47.574   3.408  20.410  0.00  0.00    +0.000 HD
ATOM     12  H   UNL     1      48.898   3.910  21.408  0.00  0.00    +0.000 HD
ENDBRANCH   4   8
BRANCH   2  14
ATOM     13  C   UNL     1      49.607   7.573  15.549  0.00  0.00    +0.000 C 
ATOM     14  O   UNL     1      48.937   6.441  15.004  0.00  0.00    +0.000 OA
ENDBRANCH   2  14
ENDBRANCH   1   7
BRANCH   1  15
ATOM     15  C   UNL     1      45.887   5.343  13.929  0.00  0.00    +0.000 C 
BRANCH  15  16
ATOM     16  C   UNL     1      45.015   4.899  12.773  0.00  0.00    +0.000 A 
ATOM     17  C   UNL     1      43.650   5.216  12.799  0.00  0.00    +0.000 A 
ATOM     18  C   UNL     1      42.843   4.954  11.698  0.00  0.00    +0.000 A 
ATOM     19  C   UNL     1      43.399   4.394  10.548  0.00  0.00    +0.000 A 
ATOM     20  C   UNL     1      44.770   4.087  10.470  0.00  0.00    +0.000 A 
ATOM     21  C   UNL     1      45.559   4.331  11.611  0.00  0.00    +0.000 A 
BRANCH  20  22
ATOM     22  C   UNL     1      45.373   3.593   9.214  0.00  0.00    +0.000 A 
ATOM     23  C   UNL     1      45.565   2.229   8.954  0.00  0.00    +0.000 A 
ATOM     24  C   UNL     1      46.183   1.810   7.775  0.00  0.00    +0.000 A 
ATOM     25  C   UNL     1      46.588   2.772   6.867  0.00  0.00    +0.000 A 
ATOM     26  N   UNL     1      46.424   4.094   7.060  0.00  0.00    +0.000 NA
ATOM     27  C   UNL     1      45.831   4.466   8.222  0.00  0.00    +0.000 A 
ENDBRANCH  20  22
ENDBRANCH  15  16
ENDBRANCH   1  15
TORSDOF 6
ENDMDL
MODEL 7
REMARK VINA RESULT:    -6.974      2.661      7.748
REMARK INTER + INTRA:          -9.836
REMARK INTER:                  -8.950
REMARK INTRA:                  -0.886
REMARK UNBOUND:                -0.415
REMARK  Name = 
REMARK  7 active torsions:
REMARK  status: ('A' for Active; 'I' for Inactive)
REMARK    1  A    between atoms: C_1  and  O_2
REMARK    2  A    between atoms: O_2  and  C_3
REMARK    3  A    between atoms: C_5  and  C_6
REMARK    4  A    between atoms: C_11  and  O_12
REMARK    5  A    between atoms: O_12  and  C_13
REMARK    6  A    between atoms: C_13  and  C_14
REMARK    7  A    between atoms: C_18  and  C_19
REMARK                            x       y       z     vdW  Elec       q    Type
REMARK                         _______ _______ _______ _____ _____    ______ ____
ROOT
ATOM      1  O   UNL     1      46.362   3.449  13.520  0.00  0.00    +0.000 OA
ENDROOT
BRANCH   1   7
ATOM      2  C   UNL     1      47.423   4.532  15.518  0.00  0.00    +0.000 A 
ATOM      3  C   UNL     1      48.128   5.654  15.973  0.00  0.00    +0.000 A 
ATOM      4  C   UNL     1      48.488   6.699  15.109  0.00  0.00    +0.000 A 
ATOM      5  C   UNL     1      48.139   6.611  13.761  0.00  0.00    +0.000 A 
ATOM      6  C   UNL     1      47.430   5.495  13.297  0.00  0.00    +0.000 A 
ATOM      7  C   UNL     1      47.063   4.449  14.159  0.00  0.00    +0.000 A 
BRANCH   4   8
ATOM      8  C   UNL     1      49.240   7.841  15.706  0.00  0.00    +0.000 C 
ATOM      9  N   UNL     1      50.576   7.700  15.960  0.00  0.00    +0.000 N 
ATOM     10  O   UNL     1      48.686   8.900  15.972  0.00  0.00    +0.000 OA
ATOM     11  H   UNL     1      51.111   6.865  15.787  0.00  0.00    +0.000 HD
ATOM     12  H   UNL     1      51.049   8.495  16.372  0.00  0.00    +0.000 HD
ENDBRANCH   4   8
BRANCH   2  14
ATOM     13  C   UNL     1      48.222   2.803  16.965  0.00  0.00    +0.000 C 
ATOM     14  O   UNL     1      47.133   3.482  16.348  0.00  0.00    +0.000 OA
ENDBRANCH   2  14
ENDBRANCH   1   7
BRANCH   1  15
ATOM     15  C   UNL     1      44.967   3.668  13.320  0.00  0.00    +0.000 C 
BRANCH  15  16
ATOM     16  C   UNL     1      44.592   3.849  11.864  0.00  0.00    +0.000 A 
ATOM     17  C   UNL     1      43.656   4.837  11.528  0.00  0.00    +0.000 A 
ATOM     18  C   UNL     1      43.389   5.133  10.196  0.00  0.00    +0.000 A 
ATOM     19  C   UNL     1      44.075   4.460   9.184  0.00  0.00    +0.000 A 
ATOM     20  C   UNL     1      45.043   3.482   9.479  0.00  0.00    +0.000 A 
ATOM     21  C   UNL     1      45.270   3.177  10.836  0.00  0.00    +0.000 A 
BRANCH  20  22
ATOM     22  C   UNL     1      45.841   2.848   8.408  0.00  0.00    +0.000 A 
ATOM     23  C   UNL     1      46.356   3.570   7.323  0.00  0.00    +0.000 A 
ATOM     24  C   UNL     1      47.063   2.921   6.310  0.00  0.00    +0.000 A 
ATOM     25  C   UNL     1      47.253   1.555   6.411  0.00  0.00    +0.000 A 
ATOM     26  N   UNL     1      46.787   0.812   7.432  0.00  0.00    +0.000 NA
ATOM     27  C   UNL     1      46.094   1.472   8.392  0.00  0.00    +0.000 A 
ENDBRANCH  20  22
ENDBRANCH  15  16
ENDBRANCH   1  15
TORSDOF 6
ENDMDL
MODEL 8
REMARK VINA RESULT:    -6.896      4.009      6.229
REMARK INTER + INTRA:          -9.730
REMARK INTER:                  -8.689
REMARK INTRA:                  -1.040
REMARK UNBOUND:                -0.415
REMARK  Name = 
REMARK  7 active torsions:
REMARK  status: ('A' for Active; 'I' for Inactive)
REMARK    1  A    between atoms: C_1  and  O_2
REMARK    2  A    between atoms: O_2  and  C_3
REMARK    3  A    between atoms: C_5  and  C_6
REMARK    4  A    between atoms: C_11  and  O_12
REMARK    5  A    between atoms: O_12  and  C_13
REMARK    6  A    between atoms: C_13  and  C_14
REMARK    7  A    between atoms: C_18  and  C_19
REMARK                            x       y       z     vdW  Elec       q    Type
REMARK                         _______ _______ _______ _____ _____    ______ ____
ROOT
ATOM      1  O   UNL     1      48.945   6.558  14.218  0.00  0.00    +0.000 OA
ENDROOT
BRANCH   1   7
ATOM      2  C   UNL     1      46.959   5.040  14.011  0.00  0.00    +0.000 A 
ATOM      3  C   UNL     1      45.669   4.908  13.481  0.00  0.00    +0.000 A 
ATOM      4  C   UNL     1      45.066   5.937  12.743  0.00  0.00    +0.000 A 
ATOM      5  C   UNL     1      45.770   7.125  12.543  0.00  0.00    +0.000 A 
ATOM      6  C   UNL     1      47.062   7.266  13.066  0.00  0.00    +0.000 A 
ATOM      7  C   UNL     1      47.672   6.236  13.800  0.00  0.00    +0.000 A 
BRANCH   4   8
ATOM      8  C   UNL     1      43.687   5.684  12.230  0.00  0.00    +0.000 C 
ATOM      9  N   UNL     1      42.665   5.516  13.121  0.00  0.00    +0.000 N 
ATOM     10  O   UNL     1      43.455   5.624  11.029  0.00  0.00    +0.000 OA
ATOM     11  H   UNL     1      42.762   5.535  14.123  0.00  0.00    +0.000 HD
ATOM     12  H   UNL     1      41.747   5.339  12.734  0.00  0.00    +0.000 HD
ENDBRANCH   4   8
BRANCH   2  14
ATOM     13  C   UNL     1      47.150   4.012  16.162  0.00  0.00    +0.000 C 
ATOM     14  O   UNL     1      47.519   4.061  14.789  0.00  0.00    +0.000 OA
ENDBRANCH   2  14
ENDBRANCH   1   7
BRANCH   1  15
ATOM     15  C   UNL     1      49.051   7.466  15.313  0.00  0.00    +0.000 C 
BRANCH  15  16
ATOM     16  C   UNL     1      49.440   6.794  16.613  0.00  0.00    +0.000 A 
ATOM     17  C   UNL     1      48.879   7.265  17.809  0.00  0.00    +0.000 A 
ATOM     18  C   UNL     1      49.097   6.590  19.005  0.00  0.00    +0.000 A 
ATOM     19  C   UNL     1      49.857   5.421  19.014  0.00  0.00    +0.000 A 
ATOM     20  C   UNL     1      50.414   4.898  17.831  0.00  0.00    +0.000 A 
ATOM     21  C   UNL     1      50.207   5.619  16.638  0.00  0.00    +0.000 A 
BRANCH  20  22
ATOM     22  C   UNL     1      51.128   3.604  17.829  0.00  0.00    +0.000 A 
ATOM     23  C   UNL     1      52.468   3.481  18.223  0.00  0.00    +0.000 A 
ATOM     24  C   UNL     1      53.117   2.247  18.158  0.00  0.00    +0.000 A 
ATOM     25  C   UNL     1      52.403   1.151  17.711  0.00  0.00    +0.000 A 
ATOM     26  N   UNL     1      51.114   1.208  17.325  0.00  0.00    +0.000 NA
ATOM     27  C   UNL     1      50.518   2.425  17.389  0.00  0.00    +0.000 A 
ENDBRANCH  20  22
ENDBRANCH  15  16
ENDBRANCH   1  15
TORSDOF 6
ENDMDL
MODEL 9
REMARK VINA RESULT:    -6.821      3.403      7.828
REMARK INTER + INTRA:          -9.629
REMARK INTER:                  -8.759
REMARK INTRA:                  -0.870
REMARK UNBOUND:                -0.415
REMARK  Name = 
REMARK  7 active torsions:
REMARK  status: ('A' for Active; 'I' for Inactive)
REMARK    1  A    between atoms: C_1  and  O_2
REMARK    2  A    between atoms: O_2  and  C_3
REMARK    3  A    between atoms: C_5  and  C_6
REMARK    4  A    between atoms: C_11  and  O_12
REMARK    5  A    between atoms: O_12  and  C_13
REMARK    6  A    between atoms: C_13  and  C_14
REMARK    7  A    between atoms: C_18  and  C_19
REMARK                            x       y       z     vdW  Elec       q    Type
REMARK                         _______ _______ _______ _____ _____    ______ ____
ROOT
ATOM      1  O   UNL     1      47.374   4.973  13.683  0.00  0.00    +0.000 OA
ENDROOT
BRANCH   1   7
ATOM      2  C   UNL     1      48.698   6.810  14.762  0.00  0.00    +0.000 A 
ATOM      3  C   UNL     1      49.083   8.154  14.664  0.00  0.00    +0.000 A 
ATOM      4  C   UNL     1      48.668   8.964  13.597  0.00  0.00    +0.000 A 
ATOM      5  C   UNL     1      47.858   8.411  12.605  0.00  0.00    +0.000 A 
ATOM      6  C   UNL     1      47.465   7.069  12.695  0.00  0.00    +0.000 A 
ATOM      7  C   UNL     1      47.873   6.256  13.765  0.00  0.00    +0.000 A 
BRANCH   4   8
ATOM      8  C   UNL     1      49.143  10.379  13.598  0.00  0.00    +0.000 C 
ATOM      9  N   UNL     1      48.225  11.391  13.577  0.00  0.00    +0.000 N 
ATOM     10  O   UNL     1      50.337  10.650  13.618  0.00  0.00    +0.000 OA
ATOM     11  H   UNL     1      47.226  11.264  13.547  0.00  0.00    +0.000 HD
ATOM     12  H   UNL     1      48.587  12.336  13.572  0.00  0.00    +0.000 HD
ENDBRANCH   4   8
BRANCH   2  14
ATOM     13  C   UNL     1      48.704   6.263  17.090  0.00  0.00    +0.000 C 
ATOM     14  O   UNL     1      49.161   6.003  15.767  0.00  0.00    +0.000 OA
ENDBRANCH   2  14
ENDBRANCH   1   7
BRANCH   1  15
ATOM     15  C   UNL     1      46.004   4.792  14.033  0.00  0.00    +0.000 C 
BRANCH  15  16
ATOM     16  C   UNL     1      45.107   4.548  12.837  0.00  0.00    +0.000 A 
ATOM     17  C   UNL     1      43.799   5.051  12.863  0.00  0.00    +0.000 A 
ATOM     18  C   UNL     1      42.990   4.975  11.735  0.00  0.00    +0.000 A 
ATOM     19  C   UNL     1      43.491   4.417  10.558  0.00  0.00    +0.000 A 
ATOM     20  C   UNL     1      44.809   3.927  10.481  0.00  0.00    +0.000 A 
ATOM     21  C   UNL     1      45.596   3.985  11.648  0.00  0.00    +0.000 A 
BRANCH  20  22
ATOM     22  C   UNL     1      45.368   3.435   9.205  0.00  0.00    +0.000 A 
ATOM     23  C   UNL     1      45.592   2.074   8.954  0.00  0.00    +0.000 A 
ATOM     24  C   UNL     1      46.167   1.659   7.752  0.00  0.00    +0.000 A 
ATOM     25  C   UNL     1      46.497   2.619   6.814  0.00  0.00    +0.000 A 
ATOM     26  N   UNL     1      46.300   3.938   6.997  0.00  0.00    +0.000 NA
ATOM     27  C   UNL     1      45.751   4.308   8.181  0.00  0.00    +0.000 A 
ENDBRANCH  20  22
ENDBRANCH  15  16
ENDBRANCH   1  15
TORSDOF 6
ENDMDL
