MODEL 1
REMARK VINA RESULT:    -8.848      0.000      0.000
REMARK INTER + INTRA:         -13.580
REMARK INTER:                 -12.468
REMARK INTRA:                  -1.112
REMARK UNBOUND:                -1.112
REMARK  Name = 
REMARK  8 active torsions:
REMARK  status: ('A' for Active; 'I' for Inactive)
REMARK    1  A    between atoms: C_1  and  C_2
REMARK    2  A    between atoms: C_2  and  C_3
REMARK    3  A    between atoms: C_2  and  C_15
REMARK    4  A    between atoms: C_3  and  N_4
REMARK    5  A    between atoms: N_4  and  C_5
REMARK    6  A    between atoms: C_8  and  C_9
REMARK    7  A    between atoms: C_19  and  O_20
REMARK    8  A    between atoms: O_20  and  C_21
REMARK                            x       y       z     vdW  Elec       q    Type
REMARK                         _______ _______ _______ _____ _____    ______ ____
ROOT
ATOM      1  C   UNL     1      44.004   3.191  11.807  0.00  0.00    +0.000 C 
ENDROOT
BRANCH   1   3
ATOM      2  C   UNL     1      42.933   5.508  12.098  0.00  0.00    +0.000 C 
ATOM      3  C   UNL     1      43.906   4.472  12.663  0.00  0.00    +0.000 C 
BRANCH   3   4
ATOM      4  C   UNL     1      45.307   5.066  12.793  0.00  0.00    +0.000 A 
ATOM      5  C   UNL     1      45.796   5.972  11.844  0.00  0.00    +0.000 A 
ATOM      6  C   UNL     1      47.052   6.562  12.013  0.00  0.00    +0.000 A 
ATOM      7  C   UNL     1      47.838   6.262  13.131  0.00  0.00    +0.000 A 
ATOM      8  C   UNL     1      47.367   5.357  14.075  0.00  0.00    +0.000 A 
ATOM      9  C   UNL     1      46.116   4.766  13.904  0.00  0.00    +0.000 A 
BRANCH   8  10
ATOM     10  O   UNL     1      48.014   5.008  15.232  0.00  0.00    +0.000 OA
BRANCH  10  11
ATOM     11  C   UNL     1      47.346   4.139  16.172  0.00  0.00    +0.000 C 
ATOM     12  C   UNL     1      47.287   4.575  17.641  0.00  0.00    +0.000 C 
ATOM     13  O   UNL     1      47.969   3.378  18.082  0.00  0.00    +0.000 OA
ATOM     14  C   UNL     1      48.204   2.985  16.711  0.00  0.00    +0.000 C 
ENDBRANCH  10  11
ENDBRANCH   8  10
ENDBRANCH   3   4
ENDBRANCH   1   3
BRANCH   1  15
ATOM     15  N   UNL     1      43.562   3.354  10.413  0.00  0.00    +0.000 N 
ATOM     16  H   UNL     1      43.137   4.265  10.246  0.00  0.00    +0.000 HD
BRANCH  15  17
ATOM     17  C   UNL     1      44.568   3.102   9.455  0.00  0.00    +0.000 A 
ATOM     18  C   UNL     1      45.096   4.157   8.697  0.00  0.00    +0.000 A 
ATOM     19  C   UNL     1      46.086   3.926   7.728  0.00  0.00    +0.000 A 
ATOM     20  C   UNL     1      46.546   2.626   7.473  0.00  0.00    +0.000 A 
ATOM     21  C   UNL     1      45.978   1.575   8.184  0.00  0.00    +0.000 A 
ATOM     22  F   UNL     1      46.356   0.304   7.978  0.00  0.00    +0.000 F 
ATOM     23  C   UNL     1      44.994   1.804   9.140  0.00  0.00    +0.000 A 
BRANCH  20  24
ATOM     24  C   UNL     1      47.605   2.413   6.456  0.00  0.00    +0.000 C 
ATOM     25  N   UNL     1      47.463   3.027   5.241  0.00  0.00    +0.000 N 
ATOM     26  O   UNL     1      48.577   1.703   6.684  0.00  0.00    +0.000 OA
ATOM     27  H   UNL     1      46.678   3.627   5.013  0.00  0.00    +0.000 HD
ATOM     28  H   UNL     1      48.184   2.887   4.550  0.00  0.00    +0.000 HD
ENDBRANCH  20  24
ENDBRANCH  15  17
ENDBRANCH   1  15
TORSDOF 7
ENDMDL
MODEL 2
REMARK VINA RESULT:    -7.775      3.307      5.036
REMARK INTER + INTRA:         -12.069
REMARK INTER:                 -11.410
REMARK INTRA:                  -0.659
REMARK UNBOUND:                -1.112
REMARK  Name = 
REMARK  8 active torsions:
REMARK  status: ('A' for Active; 'I' for Inactive)
REMARK    1  A    between atoms: C_1  and  C_2
REMARK    2  A    between atoms: C_2  and  C_3
REMARK    3  A    between atoms: C_2  and  C_15
REMARK    4  A    between atoms: C_3  and  N_4
REMARK    5  A    between atoms: N_4  and  C_5
REMARK    6  A    between atoms: C_8  and  C_9
REMARK    7  A    between atoms: C_19  and  O_20
REMARK    8  A    between atoms: O_20  and  C_21
REMARK                            x       y       z     vdW  Elec       q    Type
REMARK                         _______ _______ _______ _____ _____    ______ ____
ROOT
ATOM      1  C   UNL     1      44.225   5.035  11.459  0.00  0.00    +0.000 C 
ENDROOT
BRANCH   1   3
ATOM      2  C   UNL     1      45.966   4.491  13.268  0.00  0.00    +0.000 C 
ATOM      3  C   UNL     1      45.687   5.182  11.932  0.00  0.00    +0.000 C 
BRANCH   3   4
ATOM      4  C   UNL     1      46.012   6.672  12.021  0.00  0.00    +0.000 A 
ATOM      5  C   UNL     1      47.334   7.114  12.148  0.00  0.00    +0.000 A 
ATOM      6  C   UNL     1      47.623   8.482  12.158  0.00  0.00    +0.000 A 
ATOM      7  C   UNL     1      46.601   9.429  12.036  0.00  0.00    +0.000 A 
ATOM      8  C   UNL     1      45.284   9.002  11.918  0.00  0.00    +0.000 A 
ATOM      9  C   UNL     1      44.996   7.638  11.913  0.00  0.00    +0.000 A 
BRANCH   8  10
ATOM     10  O   UNL     1      44.196   9.820  11.751  0.00  0.00    +0.000 OA
BRANCH  10  11
ATOM     11  C   UNL     1      43.342   9.621  10.604  0.00  0.00    +0.000 C 
ATOM     12  C   UNL     1      43.473  10.597   9.428  0.00  0.00    +0.000 C 
ATOM     13  O   UNL     1      42.085  10.989   9.525  0.00  0.00    +0.000 OA
ATOM     14  C   UNL     1      41.932  10.215  10.736  0.00  0.00    +0.000 C 
ENDBRANCH  10  11
ENDBRANCH   8  10
ENDBRANCH   3   4
ENDBRANCH   1   3
BRANCH   1  15
ATOM     15  N   UNL     1      44.044   5.133  10.002  0.00  0.00    +0.000 N 
ATOM     16  H   UNL     1      44.134   6.090   9.664  0.00  0.00    +0.000 HD
BRANCH  15  17
ATOM     17  C   UNL     1      44.878   4.271   9.256  0.00  0.00    +0.000 A 
ATOM     18  C   UNL     1      45.844   4.805   8.391  0.00  0.00    +0.000 A 
ATOM     19  C   UNL     1      46.674   3.966   7.629  0.00  0.00    +0.000 A 
ATOM     20  C   UNL     1      46.532   2.573   7.692  0.00  0.00    +0.000 A 
ATOM     21  C   UNL     1      45.534   2.048   8.506  0.00  0.00    +0.000 A 
ATOM     22  F   UNL     1      45.329   0.725   8.601  0.00  0.00    +0.000 F 
ATOM     23  C   UNL     1      44.709   2.880   9.256  0.00  0.00    +0.000 A 
BRANCH  20  24
ATOM     24  C   UNL     1      47.434   1.711   6.889  0.00  0.00    +0.000 C 
ATOM     25  N   UNL     1      48.486   2.303   6.246  0.00  0.00    +0.000 N 
ATOM     26  O   UNL     1      47.244   0.504   6.790  0.00  0.00    +0.000 OA
ATOM     27  H   UNL     1      48.683   3.296   6.306  0.00  0.00    +0.000 HD
ATOM     28  H   UNL     1      49.103   1.717   5.704  0.00  0.00    +0.000 HD
ENDBRANCH  20  24
ENDBRANCH  15  17
ENDBRANCH   1  15
TORSDOF 7
ENDMDL
MODEL 3
REMARK VINA RESULT:    -7.770      1.599      2.081
REMARK INTER + INTRA:         -12.062
REMARK INTER:                 -11.038
REMARK INTRA:                  -1.024
REMARK UNBOUND:                -1.112
REMARK  Name = 
REMARK  8 active torsions:
REMARK  status: ('A' for Active; 'I' for Inactive)
REMARK    1  A    between atoms: C_1  and  C_2
REMARK    2  A    between atoms: C_2  and  C_3
REMARK    3  A    between atoms: C_2  and  C_15
REMARK    4  A    between atoms: C_3  and  N_4
REMARK    5  A    between atoms: N_4  and  C_5
REMARK    6  A    between atoms: C_8  and  C_9
REMARK    7  A    between atoms: C_19  and  O_20
REMARK    8  A    between atoms: O_20  and  C_21
REMARK                            x       y       z     vdW  Elec       q    Type
REMARK                         _______ _______ _______ _____ _____    ______ ____
ROOT
ATOM      1  C   UNL     1      44.317   3.333  12.071  0.00  0.00    +0.000 C 
ENDROOT
BRANCH   1   3
ATOM      2  C   UNL     1      42.667   5.253  12.505  0.00  0.00    +0.000 C 
ATOM      3  C   UNL     1      44.003   4.609  12.880  0.00  0.00    +0.000 C 
BRANCH   3   4
ATOM      4  C   UNL     1      45.150   5.597  12.676  0.00  0.00    +0.000 A 
ATOM      5  C   UNL     1      44.983   6.741  11.886  0.00  0.00    +0.000 A 
ATOM      6  C   UNL     1      46.019   7.672  11.765  0.00  0.00    +0.000 A 
ATOM      7  C   UNL     1      47.233   7.480  12.432  0.00  0.00    +0.000 A 
ATOM      8  C   UNL     1      47.414   6.344  13.211  0.00  0.00    +0.000 A 
ATOM      9  C   UNL     1      46.382   5.414  13.328  0.00  0.00    +0.000 A 
BRANCH   8  10
ATOM     10  O   UNL     1      48.534   6.056  13.947  0.00  0.00    +0.000 OA
BRANCH  10  11
ATOM     11  C   UNL     1      48.751   6.755  15.192  0.00  0.00    +0.000 C 
ATOM     12  C   UNL     1      50.198   6.997  15.640  0.00  0.00    +0.000 C 
ATOM     13  O   UNL     1      49.995   6.281  16.879  0.00  0.00    +0.000 OA
ATOM     14  C   UNL     1      48.675   5.877  16.449  0.00  0.00    +0.000 C 
ENDBRANCH  10  11
ENDBRANCH   8  10
ENDBRANCH   3   4
ENDBRANCH   1   3
BRANCH   1  15
ATOM     15  N   UNL     1      43.689   3.284  10.742  0.00  0.00    +0.000 N 
ATOM     16  H   UNL     1      43.119   4.106  10.552  0.00  0.00    +0.000 HD
BRANCH  15  17
ATOM     17  C   UNL     1      44.595   3.063   9.682  0.00  0.00    +0.000 A 
ATOM     18  C   UNL     1      44.855   1.758   9.241  0.00  0.00    +0.000 A 
ATOM     19  C   UNL     1      45.765   1.514   8.199  0.00  0.00    +0.000 A 
ATOM     20  C   UNL     1      46.459   2.572   7.597  0.00  0.00    +0.000 A 
ATOM     21  C   UNL     1      46.244   3.860   8.075  0.00  0.00    +0.000 A 
ATOM     22  F   UNL     1      46.888   4.918   7.559  0.00  0.00    +0.000 F 
ATOM     23  C   UNL     1      45.347   4.099   9.111  0.00  0.00    +0.000 A 
BRANCH  20  24
ATOM     24  C   UNL     1      47.402   2.288   6.486  0.00  0.00    +0.000 C 
ATOM     25  N   UNL     1      47.217   2.949   5.301  0.00  0.00    +0.000 N 
ATOM     26  O   UNL     1      48.314   1.480   6.612  0.00  0.00    +0.000 OA
ATOM     27  H   UNL     1      46.479   3.630   5.157  0.00  0.00    +0.000 HD
ATOM     28  H   UNL     1      47.860   2.761   4.547  0.00  0.00    +0.000 HD
ENDBRANCH  20  24
ENDBRANCH  15  17
ENDBRANCH   1  15
TORSDOF 7
ENDMDL
MODEL 4
REMARK VINA RESULT:    -7.399      2.206      3.353
REMARK INTER + INTRA:         -11.538
REMARK INTER:                 -10.763
REMARK INTRA:                  -0.776
REMARK UNBOUND:                -1.112
REMARK  Name = 
REMARK  8 active torsions:
REMARK  status: ('A' for Active; 'I' for Inactive)
REMARK    1  A    between atoms: C_1  and  C_2
REMARK    2  A    between atoms: C_2  and  C_3
REMARK    3  A    between atoms: C_2  and  C_15
REMARK    4  A    between atoms: C_3  and  N_4
REMARK    5  A    between atoms: N_4  and  C_5
REMARK    6  A    between atoms: C_8  and  C_9
REMARK    7  A    between atoms: C_19  and  O_20
REMARK    8  A    between atoms: O_20  and  C_21
REMARK                            x       y       z     vdW  Elec       q    Type
REMARK                         _______ _______ _______ _____ _____    ______ ____
ROOT
ATOM      1  C   UNL     1      43.666   4.525  11.286  0.00  0.00    +0.000 C 
ENDROOT
BRANCH   1   3
ATOM      2  C   UNL     1      43.576   7.092  11.319  0.00  0.00    +0.000 C 
ATOM      3  C   UNL     1      43.861   5.814  12.110  0.00  0.00    +0.000 C 
BRANCH   3   4
ATOM      4  C   UNL     1      45.291   5.825  12.649  0.00  0.00    +0.000 A 
ATOM      5  C   UNL     1      45.683   4.947  13.666  0.00  0.00    +0.000 A 
ATOM      6  C   UNL     1      47.013   4.919  14.100  0.00  0.00    +0.000 A 
ATOM      7  C   UNL     1      47.969   5.762  13.525  0.00  0.00    +0.000 A 
ATOM      8  C   UNL     1      47.589   6.644  12.521  0.00  0.00    +0.000 A 
ATOM      9  C   UNL     1      46.263   6.674  12.091  0.00  0.00    +0.000 A 
BRANCH   8  10
ATOM     10  O   UNL     1      48.431   7.491  11.847  0.00  0.00    +0.000 OA
BRANCH  10  11
ATOM     11  C   UNL     1      49.789   7.645  12.314  0.00  0.00    +0.000 C 
ATOM     12  C   UNL     1      50.100   8.817  13.253  0.00  0.00    +0.000 C 
ATOM     13  O   UNL     1      51.087   9.357  12.345  0.00  0.00    +0.000 OA
ATOM     14  C   UNL     1      50.728   8.376  11.344  0.00  0.00    +0.000 C 
ENDBRANCH  10  11
ENDBRANCH   8  10
ENDBRANCH   3   4
ENDBRANCH   1   3
BRANCH   1  15
ATOM     15  N   UNL     1      43.646   4.730   9.829  0.00  0.00    +0.000 N 
ATOM     16  H   UNL     1      43.676   5.717   9.577  0.00  0.00    +0.000 HD
BRANCH  15  17
ATOM     17  C   UNL     1      44.644   4.016   9.130  0.00  0.00    +0.000 A 
ATOM     18  C   UNL     1      45.569   4.704   8.331  0.00  0.00    +0.000 A 
ATOM     19  C   UNL     1      46.561   4.013   7.616  0.00  0.00    +0.000 A 
ATOM     20  C   UNL     1      46.627   2.613   7.659  0.00  0.00    +0.000 A 
ATOM     21  C   UNL     1      45.672   1.931   8.404  0.00  0.00    +0.000 A 
ATOM     22  F   UNL     1      45.664   0.590   8.476  0.00  0.00    +0.000 F 
ATOM     23  C   UNL     1      44.687   2.616   9.109  0.00  0.00    +0.000 A 
BRANCH  20  24
ATOM     24  C   UNL     1      47.695   1.909   6.908  0.00  0.00    +0.000 C 
ATOM     25  N   UNL     1      48.668   2.666   6.312  0.00  0.00    +0.000 N 
ATOM     26  O   UNL     1      47.710   0.688   6.808  0.00  0.00    +0.000 OA
ATOM     27  H   UNL     1      48.697   3.678   6.374  0.00  0.00    +0.000 HD
ATOM     28  H   UNL     1      49.398   2.189   5.805  0.00  0.00    +0.000 HD
ENDBRANCH  20  24
ENDBRANCH  15  17
ENDBRANCH   1  15
TORSDOF 7
ENDMDL
MODEL 5
REMARK VINA RESULT:    -7.264      3.247      7.967
REMARK INTER + INTRA:         -11.348
REMARK INTER:                 -10.289
REMARK INTRA:                  -1.059
REMARK UNBOUND:                -1.112
REMARK  Name = 
REMARK  8 active torsions:
REMARK  status: ('A' for Active; 'I' for Inactive)
REMARK    1  A    between atoms: C_1  and  C_2
REMARK    2  A    between atoms: C_2  and  C_3
REMARK    3  A    between atoms: C_2  and  C_15
REMARK    4  A    between atoms: C_3  and  N_4
REMARK    5  A    between atoms: N_4  and  C_5
REMARK    6  A    between atoms: C_8  and  C_9
REMARK    7  A    between atoms: C_19  and  O_20
REMARK    8  A    between atoms: O_20  and  C_21
REMARK                            x       y       z     vdW  Elec       q    Type
REMARK                         _______ _______ _______ _____ _____    ______ ____
ROOT
ATOM      1  C   UNL     1      46.764   6.341  11.522  0.00  0.00    +0.000 C 
ENDROOT
BRANCH   1   3
ATOM      2  C   UNL     1      44.239   6.694  11.833  0.00  0.00    +0.000 C 
ATOM      3  C   UNL     1      45.367   6.333  10.866  0.00  0.00    +0.000 C 
BRANCH   3   4
ATOM      4  C   UNL     1      45.133   4.951  10.258  0.00  0.00    +0.000 A 
ATOM      5  C   UNL     1      44.422   3.969  10.958  0.00  0.00    +0.000 A 
ATOM      6  C   UNL     1      44.154   2.733  10.362  0.00  0.00    +0.000 A 
ATOM      7  C   UNL     1      44.587   2.458   9.061  0.00  0.00    +0.000 A 
ATOM      8  C   UNL     1      45.302   3.422   8.360  0.00  0.00    +0.000 A 
ATOM      9  C   UNL     1      45.572   4.653   8.956  0.00  0.00    +0.000 A 
BRANCH   8  10
ATOM     10  O   UNL     1      45.747   3.299   7.069  0.00  0.00    +0.000 OA
BRANCH  10  11
ATOM     11  C   UNL     1      47.149   3.050   6.834  0.00  0.00    +0.000 C 
ATOM     12  C   UNL     1      47.587   2.679   5.412  0.00  0.00    +0.000 C 
ATOM     13  O   UNL     1      48.150   1.422   5.853  0.00  0.00    +0.000 OA
ATOM     14  C   UNL     1      47.623   1.632   7.183  0.00  0.00    +0.000 C 
ENDBRANCH  10  11
ENDBRANCH   8  10
ENDBRANCH   3   4
ENDBRANCH   1   3
BRANCH   1  15
ATOM     15  N   UNL     1      46.790   6.871  12.894  0.00  0.00    +0.000 N 
ATOM     16  H   UNL     1      45.915   7.326  13.149  0.00  0.00    +0.000 HD
BRANCH  15  17
ATOM     17  C   UNL     1      47.151   5.922  13.875  0.00  0.00    +0.000 A 
ATOM     18  C   UNL     1      46.657   4.612  13.799  0.00  0.00    +0.000 A 
ATOM     19  C   UNL     1      46.991   3.656  14.772  0.00  0.00    +0.000 A 
ATOM     20  C   UNL     1      47.803   4.000  15.861  0.00  0.00    +0.000 A 
ATOM     21  C   UNL     1      48.243   5.315  15.966  0.00  0.00    +0.000 A 
ATOM     22  F   UNL     1      49.008   5.719  16.992  0.00  0.00    +0.000 F 
ATOM     23  C   UNL     1      47.907   6.262  15.004  0.00  0.00    +0.000 A 
BRANCH  20  24
ATOM     24  C   UNL     1      48.155   2.965  16.865  0.00  0.00    +0.000 C 
ATOM     25  N   UNL     1      47.305   2.778  17.921  0.00  0.00    +0.000 N 
ATOM     26  O   UNL     1      49.179   2.300  16.766  0.00  0.00    +0.000 OA
ATOM     27  H   UNL     1      46.444   3.303  18.038  0.00  0.00    +0.000 HD
ATOM     28  H   UNL     1      47.540   2.072  18.602  0.00  0.00    +0.000 HD
ENDBRANCH  20  24
ENDBRANCH  15  17
ENDBRANCH   1  15
TORSDOF 7
ENDMDL
MODEL 6
REMARK VINA RESULT:    -7.016      2.444      3.309
REMARK INTER + INTRA:         -10.999
REMARK INTER:                 -10.338
REMARK INTRA:                  -0.661
REMARK UNBOUND:                -1.112
REMARK  Name = 
REMARK  8 active torsions:
REMARK  status: ('A' for Active; 'I' for Inactive)
REMARK    1  A    between atoms: C_1  and  C_2
REMARK    2  A    between atoms: C_2  and  C_3
REMARK    3  A    between atoms: C_2  and  C_15
REMARK    4  A    between atoms: C_3  and  N_4
REMARK    5  A    between atoms: N_4  and  C_5
REMARK    6  A    between atoms: C_8  and  C_9
REMARK    7  A    between atoms: C_19  and  O_20
REMARK    8  A    between atoms: O_20  and  C_21
REMARK                            x       y       z     vdW  Elec       q    Type
REMARK                         _______ _______ _______ _____ _____    ______ ____
ROOT
ATOM      1  C   UNL     1      43.806   4.923  11.331  0.00  0.00    +0.000 C 
ENDROOT
BRANCH   1   3
ATOM      2  C   UNL     1      44.094   7.453  10.993  0.00  0.00    +0.000 C 
ATOM      3  C   UNL     1      44.056   6.295  11.991  0.00  0.00    +0.000 C 
BRANCH   3   4
ATOM      4  C   UNL     1      45.366   6.217  12.773  0.00  0.00    +0.000 A 
ATOM      5  C   UNL     1      45.836   4.996  13.270  0.00  0.00    +0.000 A 
ATOM      6  C   UNL     1      47.071   4.927  13.922  0.00  0.00    +0.000 A 
ATOM      7  C   UNL     1      47.857   6.072  14.085  0.00  0.00    +0.000 A 
ATOM      8  C   UNL     1      47.397   7.292  13.603  0.00  0.00    +0.000 A 
ATOM      9  C   UNL     1      46.164   7.360  12.957  0.00  0.00    +0.000 A 
BRANCH   8  10
ATOM     10  O   UNL     1      48.084   8.478  13.659  0.00  0.00    +0.000 OA
BRANCH  10  11
ATOM     11  C   UNL     1      48.930   8.743  14.799  0.00  0.00    +0.000 C 
ATOM     12  C   UNL     1      48.259   9.168  16.111  0.00  0.00    +0.000 C 
ATOM     13  O   UNL     1      48.996  10.412  16.151  0.00  0.00    +0.000 OA
ATOM     14  C   UNL     1      49.542  10.150  14.837  0.00  0.00    +0.000 C 
ENDBRANCH  10  11
ENDBRANCH   8  10
ENDBRANCH   3   4
ENDBRANCH   1   3
BRANCH   1  15
ATOM     15  N   UNL     1      43.727   4.959   9.862  0.00  0.00    +0.000 N 
ATOM     16  H   UNL     1      43.907   5.890   9.488  0.00  0.00    +0.000 HD
BRANCH  15  17
ATOM     17  C   UNL     1      44.545   4.006   9.215  0.00  0.00    +0.000 A 
ATOM     18  C   UNL     1      44.530   2.669   9.636  0.00  0.00    +0.000 A 
ATOM     19  C   UNL     1      45.346   1.708   9.017  0.00  0.00    +0.000 A 
ATOM     20  C   UNL     1      46.220   2.073   7.984  0.00  0.00    +0.000 A 
ATOM     21  C   UNL     1      46.276   3.410   7.609  0.00  0.00    +0.000 A 
ATOM     22  F   UNL     1      47.103   3.834   6.641  0.00  0.00    +0.000 F 
ATOM     23  C   UNL     1      45.472   4.363   8.226  0.00  0.00    +0.000 A 
BRANCH  20  24
ATOM     24  C   UNL     1      47.059   1.034   7.336  0.00  0.00    +0.000 C 
ATOM     25  N   UNL     1      46.781  -0.279   7.608  0.00  0.00    +0.000 N 
ATOM     26  O   UNL     1      47.981   1.332   6.586  0.00  0.00    +0.000 OA
ATOM     27  H   UNL     1      46.024  -0.569   8.217  0.00  0.00    +0.000 HD
ATOM     28  H   UNL     1      47.347  -0.986   7.165  0.00  0.00    +0.000 HD
ENDBRANCH  20  24
ENDBRANCH  15  17
ENDBRANCH   1  15
TORSDOF 7
ENDMDL
MODEL 7
REMARK VINA RESULT:    -6.719      3.538      7.792
REMARK INTER + INTRA:         -10.581
REMARK INTER:                  -9.592
REMARK INTRA:                  -0.988
REMARK UNBOUND:                -1.112
REMARK  Name = 
REMARK  8 active torsions:
REMARK  status: ('A' for Active; 'I' for Inactive)
REMARK    1  A    between atoms: C_1  and  C_2
REMARK    2  A    between atoms: C_2  and  C_3
REMARK    3  A    between atoms: C_2  and  C_15
REMARK    4  A    between atoms: C_3  and  N_4
REMARK    5  A    between atoms: N_4  and  C_5
REMARK    6  A    between atoms: C_8  and  C_9
REMARK    7  A    between atoms: C_19  and  O_20
REMARK    8  A    between atoms: O_20  and  C_21
REMARK                            x       y       z     vdW  Elec       q    Type
REMARK                         _______ _______ _______ _____ _____    ______ ____
ROOT
ATOM      1  C   UNL     1      47.439   6.969  12.091  0.00  0.00    +0.000 C 
ENDROOT
BRANCH   1   3
ATOM      2  C   UNL     1      45.547   8.559  12.791  0.00  0.00    +0.000 C 
ATOM      3  C   UNL     1      46.065   7.577  11.739  0.00  0.00    +0.000 C 
BRANCH   3   4
ATOM      4  C   UNL     1      45.073   6.433  11.538  0.00  0.00    +0.000 A 
ATOM      5  C   UNL     1      43.698   6.636  11.699  0.00  0.00    +0.000 A 
ATOM      6  C   UNL     1      42.796   5.598  11.443  0.00  0.00    +0.000 A 
ATOM      7  C   UNL     1      43.252   4.344  11.022  0.00  0.00    +0.000 A 
ATOM      8  C   UNL     1      44.616   4.128  10.868  0.00  0.00    +0.000 A 
ATOM      9  C   UNL     1      45.514   5.163  11.127  0.00  0.00    +0.000 A 
BRANCH   8  10
ATOM     10  O   UNL     1      45.191   2.965  10.423  0.00  0.00    +0.000 OA
BRANCH  10  11
ATOM     11  C   UNL     1      44.925   2.526   9.073  0.00  0.00    +0.000 C 
ATOM     12  C   UNL     1      45.978   1.653   8.379  0.00  0.00    +0.000 C 
ATOM     13  O   UNL     1      46.134   2.603   7.299  0.00  0.00    +0.000 OA
ATOM     14  C   UNL     1      45.275   3.546   7.980  0.00  0.00    +0.000 C 
ENDBRANCH  10  11
ENDBRANCH   8  10
ENDBRANCH   3   4
ENDBRANCH   1   3
BRANCH   1  15
ATOM     15  N   UNL     1      47.989   7.411  13.382  0.00  0.00    +0.000 N 
ATOM     16  H   UNL     1      47.524   8.246  13.734  0.00  0.00    +0.000 HD
BRANCH  15  17
ATOM     17  C   UNL     1      48.010   6.408  14.376  0.00  0.00    +0.000 A 
ATOM     18  C   UNL     1      47.226   5.255  14.226  0.00  0.00    +0.000 A 
ATOM     19  C   UNL     1      47.220   4.252  15.209  0.00  0.00    +0.000 A 
ATOM     20  C   UNL     1      47.976   4.398  16.381  0.00  0.00    +0.000 A 
ATOM     21  C   UNL     1      48.706   5.568  16.554  0.00  0.00    +0.000 A 
ATOM     22  F   UNL     1      49.437   5.782  17.659  0.00  0.00    +0.000 F 
ATOM     23  C   UNL     1      48.706   6.563  15.582  0.00  0.00    +0.000 A 
BRANCH  20  24
ATOM     24  C   UNL     1      47.965   3.314  17.395  0.00  0.00    +0.000 C 
ATOM     25  N   UNL     1      46.762   2.747  17.718  0.00  0.00    +0.000 N 
ATOM     26  O   UNL     1      48.996   2.938  17.941  0.00  0.00    +0.000 OA
ATOM     27  H   UNL     1      45.887   3.023  17.286  0.00  0.00    +0.000 HD
ATOM     28  H   UNL     1      46.754   2.007  18.403  0.00  0.00    +0.000 HD
ENDBRANCH  20  24
ENDBRANCH  15  17
ENDBRANCH   1  15
TORSDOF 7
ENDMDL
MODEL 8
REMARK VINA RESULT:    -6.599      2.433      2.981
REMARK INTER + INTRA:         -10.412
REMARK INTER:                  -9.700
REMARK INTRA:                  -0.712
REMARK UNBOUND:                -1.112
REMARK  Name = 
REMARK  8 active torsions:
REMARK  status: ('A' for Active; 'I' for Inactive)
REMARK    1  A    between atoms: C_1  and  C_2
REMARK    2  A    between atoms: C_2  and  C_3
REMARK    3  A    between atoms: C_2  and  C_15
REMARK    4  A    between atoms: C_3  and  N_4
REMARK    5  A    between atoms: N_4  and  C_5
REMARK    6  A    between atoms: C_8  and  C_9
REMARK    7  A    between atoms: C_19  and  O_20
REMARK    8  A    between atoms: O_20  and  C_21
REMARK                            x       y       z     vdW  Elec       q    Type
REMARK                         _______ _______ _______ _____ _____    ______ ____
ROOT
ATOM      1  C   UNL     1      45.105   5.287  11.458  0.00  0.00    +0.000 C 
ENDROOT
BRANCH   1   3
ATOM      2  C   UNL     1      42.805   6.428  11.365  0.00  0.00    +0.000 C 
ATOM      3  C   UNL     1      44.165   6.352  12.061  0.00  0.00    +0.000 C 
BRANCH   3   4
ATOM      4  C   UNL     1      44.875   7.704  11.999  0.00  0.00    +0.000 A 
ATOM      5  C   UNL     1      44.297   8.790  11.330  0.00  0.00    +0.000 A 
ATOM      6  C   UNL     1      44.924  10.040  11.342  0.00  0.00    +0.000 A 
ATOM      7  C   UNL     1      46.132  10.227  12.021  0.00  0.00    +0.000 A 
ATOM      8  C   UNL     1      46.719   9.154  12.681  0.00  0.00    +0.000 A 
ATOM      9  C   UNL     1      46.096   7.907  12.666  0.00  0.00    +0.000 A 
BRANCH   8  10
ATOM     10  O   UNL     1      47.875   9.210  13.417  0.00  0.00    +0.000 OA
BRANCH  10  11
ATOM     11  C   UNL     1      47.952   8.471  14.654  0.00  0.00    +0.000 C 
ATOM     12  C   UNL     1      48.574   9.165  15.872  0.00  0.00    +0.000 C 
ATOM     13  O   UNL     1      49.590   8.145  16.005  0.00  0.00    +0.000 OA
ATOM     14  C   UNL     1      49.158   7.528  14.771  0.00  0.00    +0.000 C 
ENDBRANCH  10  11
ENDBRANCH   8  10
ENDBRANCH   3   4
ENDBRANCH   1   3
BRANCH   1  15
ATOM     15  N   UNL     1      44.419   4.225  10.705  0.00  0.00    +0.000 N 
ATOM     16  H   UNL     1      43.489   4.507  10.400  0.00  0.00    +0.000 HD
BRANCH  15  17
ATOM     17  C   UNL     1      45.159   3.720   9.614  0.00  0.00    +0.000 A 
ATOM     18  C   UNL     1      45.708   4.600   8.671  0.00  0.00    +0.000 A 
ATOM     19  C   UNL     1      46.435   4.118   7.570  0.00  0.00    +0.000 A 
ATOM     20  C   UNL     1      46.599   2.741   7.371  0.00  0.00    +0.000 A 
ATOM     21  C   UNL     1      46.004   1.868   8.275  0.00  0.00    +0.000 A 
ATOM     22  F   UNL     1      46.105   0.537   8.137  0.00  0.00    +0.000 F 
ATOM     23  C   UNL     1      45.280   2.346   9.363  0.00  0.00    +0.000 A 
BRANCH  20  24
ATOM     24  C   UNL     1      47.387   2.260   6.209  0.00  0.00    +0.000 C 
ATOM     25  N   UNL     1      47.185   2.868   4.999  0.00  0.00    +0.000 N 
ATOM     26  O   UNL     1      48.189   1.339   6.316  0.00  0.00    +0.000 OA
ATOM     27  H   UNL     1      46.536   3.636   4.868  0.00  0.00    +0.000 HD
ATOM     28  H   UNL     1      47.723   2.545   4.209  0.00  0.00    +0.000 HD
ENDBRANCH  20  24
ENDBRANCH  15  17
ENDBRANCH   1  15
TORSDOF 7
ENDMDL
MODEL 9
REMARK VINA RESULT:    -6.419      3.141      5.062
REMARK INTER + INTRA:         -10.158
REMARK INTER:                  -9.220
REMARK INTRA:                  -0.938
REMARK UNBOUND:                -1.112
REMARK  Name = 
REMARK  8 active torsions:
REMARK  status: ('A' for Active; 'I' for Inactive)
REMARK    1  A    between atoms: C_1  and  C_2
REMARK    2  A    between atoms: C_2  and  C_3
REMARK    3  A    between atoms: C_2  and  C_15
REMARK    4  A    between atoms: C_3  and  N_4
REMARK    5  A    between atoms: N_4  and  C_5
REMARK    6  A    between atoms: C_8  and  C_9
REMARK    7  A    between atoms: C_19  and  O_20
REMARK    8  A    between atoms: O_20  and  C_21
REMARK                            x       y       z     vdW  Elec       q    Type
REMARK                         _______ _______ _______ _____ _____    ______ ____
ROOT
ATOM      1  C   UNL     1      47.451   7.868  13.361  0.00  0.00    +0.000 C 
ENDROOT
BRANCH   1   3
ATOM      2  C   UNL     1      48.833  10.009  13.682  0.00  0.00    +0.000 C 
ATOM      3  C   UNL     1      47.968   8.937  14.346  0.00  0.00    +0.000 C 
BRANCH   3   4
ATOM      4  C   UNL     1      48.747   8.228  15.453  0.00  0.00    +0.000 A 
ATOM      5  C   UNL     1      49.358   8.955  16.481  0.00  0.00    +0.000 A 
ATOM      6  C   UNL     1      50.008   8.290  17.526  0.00  0.00    +0.000 A 
ATOM      7  C   UNL     1      50.056   6.893  17.562  0.00  0.00    +0.000 A 
ATOM      8  C   UNL     1      49.461   6.161  16.542  0.00  0.00    +0.000 A 
ATOM      9  C   UNL     1      48.816   6.825  15.499  0.00  0.00    +0.000 A 
BRANCH   8  10
ATOM     10  O   UNL     1      49.399   4.792  16.478  0.00  0.00    +0.000 OA
BRANCH  10  11
ATOM     11  C   UNL     1      48.610   4.082  17.456  0.00  0.00    +0.000 C 
ATOM     12  C   UNL     1      47.988   2.741  17.045  0.00  0.00    +0.000 C 
ATOM     13  O   UNL     1      46.650   3.211  17.327  0.00  0.00    +0.000 OA
ATOM     14  C   UNL     1      47.151   4.545  17.571  0.00  0.00    +0.000 C 
ENDBRANCH  10  11
ENDBRANCH   8  10
ENDBRANCH   3   4
ENDBRANCH   1   3
BRANCH   1  15
ATOM     15  N   UNL     1      45.985   7.778  13.273  0.00  0.00    +0.000 N 
ATOM     16  H   UNL     1      45.578   8.569  12.777  0.00  0.00    +0.000 HD
BRANCH  15  17
ATOM     17  C   UNL     1      45.512   6.564  12.728  0.00  0.00    +0.000 A 
ATOM     18  C   UNL     1      44.437   6.571  11.828  0.00  0.00    +0.000 A 
ATOM     19  C   UNL     1      43.941   5.374  11.285  0.00  0.00    +0.000 A 
ATOM     20  C   UNL     1      44.490   4.140  11.659  0.00  0.00    +0.000 A 
ATOM     21  C   UNL     1      45.516   4.132  12.597  0.00  0.00    +0.000 A 
ATOM     22  F   UNL     1      46.076   2.986  13.014  0.00  0.00    +0.000 F 
ATOM     23  C   UNL     1      46.003   5.317  13.137  0.00  0.00    +0.000 A 
BRANCH  20  24
ATOM     24  C   UNL     1      43.957   2.892  11.057  0.00  0.00    +0.000 C 
ATOM     25  N   UNL     1      44.596   2.385   9.958  0.00  0.00    +0.000 N 
ATOM     26  O   UNL     1      42.969   2.331  11.516  0.00  0.00    +0.000 OA
ATOM     27  H   UNL     1      45.420   2.813   9.550  0.00  0.00    +0.000 HD
ATOM     28  H   UNL     1      44.239   1.534   9.551  0.00  0.00    +0.000 HD
ENDBRANCH  20  24
ENDBRANCH  15  17
ENDBRANCH   1  15
TORSDOF 7
ENDMDL
