MODEL 1
REMARK VINA RESULT:    -9.204      0.000      0.000
REMARK INTER + INTRA:         -12.403
REMARK INTER:                 -11.894
REMARK INTRA:                  -0.509
REMARK UNBOUND:                -0.509
REMARK  Name = 
REMARK  5 active torsions:
REMARK  status: ('A' for Active; 'I' for Inactive)
REMARK    1  A    between atoms: C_2  and  C_4
REMARK    2  A    between atoms: N_8  and  C_9
REMARK    3  A    between atoms: C_9  and  C_10
REMARK    4  A    between atoms: C_14  and  C_15
REMARK    5  A    between atoms: C_19  and  C_20
REMARK                            x       y       z     vdW  Elec       q    Type
REMARK                         _______ _______ _______ _____ _____    ______ ____
ROOT
ATOM      1  C   UNL     1      44.061   4.873  11.744  0.00  0.00    +0.000 C 
ATOM      2  C   UNL     1      42.752   4.989  12.511  0.00  0.00    +0.000 C 
ATOM      3  C   UNL     1      42.877   5.657  11.185  0.00  0.00    +0.000 C 
ENDROOT
BRANCH   1   8
ATOM      4  C   UNL     1      46.394   2.800   7.578  0.00  0.00    +0.000 A 
ATOM      5  C   UNL     1      46.210   4.127   7.945  0.00  0.00    +0.000 A 
ATOM      6  C   UNL     1      45.521   4.417   9.126  0.00  0.00    +0.000 A 
ATOM      7  C   UNL     1      45.020   3.383   9.914  0.00  0.00    +0.000 A 
ATOM      8  N   UNL     1      44.405   3.585  11.149  0.00  0.00    +0.000 N 
ATOM      9  N   UNL     1      45.154   2.093   9.536  0.00  0.00    +0.000 NA
ATOM     10  C   UNL     1      45.824   1.827   8.382  0.00  0.00    +0.000 A 
ATOM     11  H   UNL     1      44.030   2.715  11.507  0.00  0.00    +0.000 HD
BRANCH   4  13
ATOM     12  N   UNL     1      47.076   3.197   5.281  0.00  0.00    +0.000 N 
ATOM     13  C   UNL     1      47.163   2.393   6.389  0.00  0.00    +0.000 C 
ATOM     14  O   UNL     1      47.889   1.407   6.395  0.00  0.00    +0.000 OA
ATOM     15  H   UNL     1      47.698   2.977   4.512  0.00  0.00    +0.000 HD
ATOM     16  H   UNL     1      46.703   4.136   5.321  0.00  0.00    +0.000 HD
ENDBRANCH   4  13
ENDBRANCH   1   8
BRANCH   1  17
ATOM     17  C   UNL     1      45.252   5.749  12.110  0.00  0.00    +0.000 A 
ATOM     18  C   UNL     1      45.444   7.005  11.513  0.00  0.00    +0.000 A 
ATOM     19  C   UNL     1      46.454   7.863  11.944  0.00  0.00    +0.000 A 
ATOM     20  C   UNL     1      47.293   7.479  12.990  0.00  0.00    +0.000 A 
ATOM     21  C   UNL     1      47.147   6.233  13.619  0.00  0.00    +0.000 A 
ATOM     22  C   UNL     1      46.142   5.378  13.132  0.00  0.00    +0.000 A 
BRANCH  21  23
ATOM     23  C   UNL     1      47.920   5.862  14.827  0.00  0.00    +0.000 A 
ATOM     24  C   UNL     1      48.820   6.766  15.413  0.00  0.00    +0.000 A 
ATOM     25  C   UNL     1      49.468   6.475  16.616  0.00  0.00    +0.000 A 
ATOM     26  C   UNL     1      49.207   5.280  17.279  0.00  0.00    +0.000 A 
ATOM     27  C   UNL     1      48.312   4.354  16.732  0.00  0.00    +0.000 A 
ATOM     28  C   UNL     1      47.703   4.641  15.496  0.00  0.00    +0.000 A 
BRANCH  27  29
ATOM     29  C   UNL     1      47.950   3.088  17.467  0.00  0.00    +0.000 C 
ATOM     30  F   UNL     1      46.612   2.831  17.490  0.00  0.00    +0.000 F 
ATOM     31  F   UNL     1      48.529   1.986  16.910  0.00  0.00    +0.000 F 
ATOM     32  F   UNL     1      48.352   3.101  18.767  0.00  0.00    +0.000 F 
ENDBRANCH  27  29
ENDBRANCH  21  23
ENDBRANCH   1  17
TORSDOF 5
ENDMDL
MODEL 2
REMARK VINA RESULT:    -8.827      3.445      4.633
REMARK INTER + INTRA:         -11.917
REMARK INTER:                 -11.396
REMARK INTRA:                  -0.520
REMARK UNBOUND:                -0.509
REMARK  Name = 
REMARK  5 active torsions:
REMARK  status: ('A' for Active; 'I' for Inactive)
REMARK    1  A    between atoms: C_2  and  C_4
REMARK    2  A    between atoms: N_8  and  C_9
REMARK    3  A    between atoms: C_9  and  C_10
REMARK    4  A    between atoms: C_14  and  C_15
REMARK    5  A    between atoms: C_19  and  C_20
REMARK                            x       y       z     vdW  Elec       q    Type
REMARK                         _______ _______ _______ _____ _____    ______ ____
ROOT
ATOM      1  C   UNL     1      43.991   4.711  11.627  0.00  0.00    +0.000 C 
ATOM      2  C   UNL     1      42.566   5.073  12.019  0.00  0.00    +0.000 C 
ATOM      3  C   UNL     1      43.230   5.830  10.920  0.00  0.00    +0.000 C 
ENDROOT
BRANCH   1   8
ATOM      4  C   UNL     1      46.423   2.749   7.464  0.00  0.00    +0.000 A 
ATOM      5  C   UNL     1      46.381   4.045   7.959  0.00  0.00    +0.000 A 
ATOM      6  C   UNL     1      45.625   4.312   9.103  0.00  0.00    +0.000 A 
ATOM      7  C   UNL     1      44.918   3.288   9.729  0.00  0.00    +0.000 A 
ATOM      8  N   UNL     1      44.219   3.452  10.924  0.00  0.00    +0.000 N 
ATOM      9  N   UNL     1      44.918   2.034   9.223  0.00  0.00    +0.000 NA
ATOM     10  C   UNL     1      45.656   1.792   8.106  0.00  0.00    +0.000 A 
ATOM     11  H   UNL     1      43.700   2.613  11.151  0.00  0.00    +0.000 HD
BRANCH   4  13
ATOM     12  N   UNL     1      47.111   3.103   5.162  0.00  0.00    +0.000 N 
ATOM     13  C   UNL     1      47.243   2.356   6.304  0.00  0.00    +0.000 C 
ATOM     14  O   UNL     1      48.047   1.434   6.364  0.00  0.00    +0.000 OA
ATOM     15  H   UNL     1      47.762   2.902   4.412  0.00  0.00    +0.000 HD
ATOM     16  H   UNL     1      46.662   4.008   5.155  0.00  0.00    +0.000 HD
ENDBRANCH   4  13
ENDBRANCH   1   8
BRANCH   1  17
ATOM     17  C   UNL     1      45.171   5.206  12.454  0.00  0.00    +0.000 A 
ATOM     18  C   UNL     1      45.641   4.479  13.559  0.00  0.00    +0.000 A 
ATOM     19  C   UNL     1      46.800   4.858  14.233  0.00  0.00    +0.000 A 
ATOM     20  C   UNL     1      47.518   5.977  13.808  0.00  0.00    +0.000 A 
ATOM     21  C   UNL     1      47.089   6.741  12.711  0.00  0.00    +0.000 A 
ATOM     22  C   UNL     1      45.894   6.350  12.080  0.00  0.00    +0.000 A 
BRANCH  21  23
ATOM     23  C   UNL     1      47.906   7.839  12.144  0.00  0.00    +0.000 A 
ATOM     24  C   UNL     1      47.428   9.158  12.127  0.00  0.00    +0.000 A 
ATOM     25  C   UNL     1      48.231  10.221  11.705  0.00  0.00    +0.000 A 
ATOM     26  C   UNL     1      49.547   9.990  11.315  0.00  0.00    +0.000 A 
ATOM     27  C   UNL     1      50.064   8.690  11.324  0.00  0.00    +0.000 A 
ATOM     28  C   UNL     1      49.228   7.625  11.708  0.00  0.00    +0.000 A 
BRANCH  27  29
ATOM     29  C   UNL     1      51.509   8.422  10.984  0.00  0.00    +0.000 C 
ATOM     30  F   UNL     1      52.025   9.284  10.065  0.00  0.00    +0.000 F 
ATOM     31  F   UNL     1      52.320   8.517  12.077  0.00  0.00    +0.000 F 
ATOM     32  F   UNL     1      51.710   7.172  10.483  0.00  0.00    +0.000 F 
ENDBRANCH  27  29
ENDBRANCH  21  23
ENDBRANCH   1  17
TORSDOF 5
ENDMDL
MODEL 3
REMARK VINA RESULT:    -8.629      2.910      3.878
REMARK INTER + INTRA:         -11.660
REMARK INTER:                 -10.452
REMARK INTRA:                  -1.208
REMARK UNBOUND:                -0.509
REMARK  Name = 
REMARK  5 active torsions:
REMARK  status: ('A' for Active; 'I' for Inactive)
REMARK    1  A    between atoms: C_2  and  C_4
REMARK    2  A    between atoms: N_8  and  C_9
REMARK    3  A    between atoms: C_9  and  C_10
REMARK    4  A    between atoms: C_14  and  C_15
REMARK    5  A    between atoms: C_19  and  C_20
REMARK                            x       y       z     vdW  Elec       q    Type
REMARK                         _______ _______ _______ _____ _____    ______ ____
ROOT
ATOM      1  C   UNL     1      44.102   5.261  11.090  0.00  0.00    +0.000 C 
ATOM      2  C   UNL     1      42.796   4.509  11.302  0.00  0.00    +0.000 C 
ATOM      3  C   UNL     1      42.800   5.996  11.398  0.00  0.00    +0.000 C 
ENDROOT
BRANCH   1   8
ATOM      4  C   UNL     1      46.592   2.359   7.559  0.00  0.00    +0.000 A 
ATOM      5  C   UNL     1      46.128   2.039   8.828  0.00  0.00    +0.000 A 
ATOM      6  C   UNL     1      45.498   3.026   9.591  0.00  0.00    +0.000 A 
ATOM      7  C   UNL     1      45.350   4.314   9.082  0.00  0.00    +0.000 A 
ATOM      8  N   UNL     1      44.653   5.327   9.740  0.00  0.00    +0.000 N 
ATOM      9  N   UNL     1      45.844   4.643   7.868  0.00  0.00    +0.000 NA
ATOM     10  C   UNL     1      46.458   3.671   7.139  0.00  0.00    +0.000 A 
ATOM     11  H   UNL     1      44.750   6.205   9.245  0.00  0.00    +0.000 HD
BRANCH   4  13
ATOM     12  N   UNL     1      48.184   1.824   5.804  0.00  0.00    +0.000 N 
ATOM     13  C   UNL     1      47.209   1.372   6.655  0.00  0.00    +0.000 C 
ATOM     14  O   UNL     1      46.903   0.186   6.688  0.00  0.00    +0.000 OA
ATOM     15  H   UNL     1      48.684   1.121   5.273  0.00  0.00    +0.000 HD
ATOM     16  H   UNL     1      48.636   2.720   5.926  0.00  0.00    +0.000 HD
ENDBRANCH   4  13
ENDBRANCH   1   8
BRANCH   1  17
ATOM     17  C   UNL     1      45.131   5.353  12.209  0.00  0.00    +0.000 A 
ATOM     18  C   UNL     1      45.115   4.457  13.289  0.00  0.00    +0.000 A 
ATOM     19  C   UNL     1      46.134   4.453  14.240  0.00  0.00    +0.000 A 
ATOM     20  C   UNL     1      47.197   5.350  14.124  0.00  0.00    +0.000 A 
ATOM     21  C   UNL     1      47.260   6.269  13.065  0.00  0.00    +0.000 A 
ATOM     22  C   UNL     1      46.194   6.269  12.146  0.00  0.00    +0.000 A 
BRANCH  21  23
ATOM     23  C   UNL     1      48.445   7.126  12.832  0.00  0.00    +0.000 A 
ATOM     24  C   UNL     1      48.546   7.916  11.675  0.00  0.00    +0.000 A 
ATOM     25  C   UNL     1      49.599   8.816  11.496  0.00  0.00    +0.000 A 
ATOM     26  C   UNL     1      50.565   8.968  12.486  0.00  0.00    +0.000 A 
ATOM     27  C   UNL     1      50.497   8.204  13.657  0.00  0.00    +0.000 A 
ATOM     28  C   UNL     1      49.456   7.268  13.802  0.00  0.00    +0.000 A 
BRANCH  27  29
ATOM     29  C   UNL     1      51.483   8.406  14.780  0.00  0.00    +0.000 C 
ATOM     30  F   UNL     1      51.889   9.697  14.927  0.00  0.00    +0.000 F 
ATOM     31  F   UNL     1      50.967   8.041  15.989  0.00  0.00    +0.000 F 
ATOM     32  F   UNL     1      52.617   7.670  14.625  0.00  0.00    +0.000 F 
ENDBRANCH  27  29
ENDBRANCH  21  23
ENDBRANCH   1  17
TORSDOF 5
ENDMDL
MODEL 4
REMARK VINA RESULT:    -8.429      1.635      2.186
REMARK INTER + INTRA:         -11.402
REMARK INTER:                 -10.975
REMARK INTRA:                  -0.427
REMARK UNBOUND:                -0.509
REMARK  Name = 
REMARK  5 active torsions:
REMARK  status: ('A' for Active; 'I' for Inactive)
REMARK    1  A    between atoms: C_2  and  C_4
REMARK    2  A    between atoms: N_8  and  C_9
REMARK    3  A    between atoms: C_9  and  C_10
REMARK    4  A    between atoms: C_14  and  C_15
REMARK    5  A    between atoms: C_19  and  C_20
REMARK                            x       y       z     vdW  Elec       q    Type
REMARK                         _______ _______ _______ _____ _____    ______ ____
ROOT
ATOM      1  C   UNL     1      44.361   4.312  11.749  0.00  0.00    +0.000 C 
ATOM      2  C   UNL     1      42.985   4.391  12.396  0.00  0.00    +0.000 C 
ATOM      3  C   UNL     1      43.286   5.259  11.223  0.00  0.00    +0.000 C 
ENDROOT
BRANCH   1   8
ATOM      4  C   UNL     1      46.520   2.847   7.245  0.00  0.00    +0.000 A 
ATOM      5  C   UNL     1      46.332   4.110   7.790  0.00  0.00    +0.000 A 
ATOM      6  C   UNL     1      45.697   4.230   9.029  0.00  0.00    +0.000 A 
ATOM      7  C   UNL     1      45.253   3.092   9.699  0.00  0.00    +0.000 A 
ATOM      8  N   UNL     1      44.697   3.119  10.978  0.00  0.00    +0.000 N 
ATOM      9  N   UNL     1      45.390   1.864   9.151  0.00  0.00    +0.000 NA
ATOM     10  C   UNL     1      46.007   1.766   7.942  0.00  0.00    +0.000 A 
ATOM     11  H   UNL     1      44.355   2.202  11.236  0.00  0.00    +0.000 HD
BRANCH   4  13
ATOM     12  N   UNL     1      48.499   2.087   6.060  0.00  0.00    +0.000 N 
ATOM     13  C   UNL     1      47.236   2.614   5.979  0.00  0.00    +0.000 C 
ATOM     14  O   UNL     1      46.715   2.835   4.892  0.00  0.00    +0.000 OA
ATOM     15  H   UNL     1      48.936   1.820   5.186  0.00  0.00    +0.000 HD
ATOM     16  H   UNL     1      48.853   1.659   6.904  0.00  0.00    +0.000 HD
ENDBRANCH   4  13
ENDBRANCH   1   8
BRANCH   1  17
ATOM     17  C   UNL     1      45.551   5.027  12.374  0.00  0.00    +0.000 A 
ATOM     18  C   UNL     1      46.036   6.234  11.844  0.00  0.00    +0.000 A 
ATOM     19  C   UNL     1      47.035   6.958  12.492  0.00  0.00    +0.000 A 
ATOM     20  C   UNL     1      47.568   6.487  13.692  0.00  0.00    +0.000 A 
ATOM     21  C   UNL     1      47.122   5.285  14.263  0.00  0.00    +0.000 A 
ATOM     22  C   UNL     1      46.140   4.562  13.561  0.00  0.00    +0.000 A 
BRANCH  21  23
ATOM     23  C   UNL     1      47.558   4.839  15.607  0.00  0.00    +0.000 A 
ATOM     24  C   UNL     1      46.982   3.711  16.213  0.00  0.00    +0.000 A 
ATOM     25  C   UNL     1      47.462   3.208  17.425  0.00  0.00    +0.000 A 
ATOM     26  C   UNL     1      48.552   3.808  18.047  0.00  0.00    +0.000 A 
ATOM     27  C   UNL     1      49.159   4.931  17.473  0.00  0.00    +0.000 A 
ATOM     28  C   UNL     1      48.634   5.453  16.276  0.00  0.00    +0.000 A 
BRANCH  27  29
ATOM     29  C   UNL     1      50.391   5.552  18.083  0.00  0.00    +0.000 C 
ATOM     30  F   UNL     1      51.349   5.876  17.171  0.00  0.00    +0.000 F 
ATOM     31  F   UNL     1      50.107   6.708  18.748  0.00  0.00    +0.000 F 
ATOM     32  F   UNL     1      50.995   4.739  18.992  0.00  0.00    +0.000 F 
ENDBRANCH  27  29
ENDBRANCH  21  23
ENDBRANCH   1  17
TORSDOF 5
ENDMDL
MODEL 5
REMARK VINA RESULT:    -7.819      5.209      8.543
REMARK INTER + INTRA:         -10.613
REMARK INTER:                  -9.539
REMARK INTRA:                  -1.074
REMARK UNBOUND:                -0.509
REMARK  Name = 
REMARK  5 active torsions:
REMARK  status: ('A' for Active; 'I' for Inactive)
REMARK    1  A    between atoms: C_2  and  C_4
REMARK    2  A    between atoms: N_8  and  C_9
REMARK    3  A    between atoms: C_9  and  C_10
REMARK    4  A    between atoms: C_14  and  C_15
REMARK    5  A    between atoms: C_19  and  C_20
REMARK                            x       y       z     vdW  Elec       q    Type
REMARK                         _______ _______ _______ _____ _____    ______ ____
ROOT
ATOM      1  C   UNL     1      48.559   8.613  12.850  0.00  0.00    +0.000 C 
ATOM      2  C   UNL     1      49.698   7.926  12.110  0.00  0.00    +0.000 C 
ATOM      3  C   UNL     1      49.391   9.352  11.805  0.00  0.00    +0.000 C 
ENDROOT
BRANCH   1   8
ATOM      4  C   UNL     1      48.751   6.378  17.547  0.00  0.00    +0.000 A 
ATOM      5  C   UNL     1      48.584   5.820  16.286  0.00  0.00    +0.000 A 
ATOM      6  C   UNL     1      48.550   6.660  15.170  0.00  0.00    +0.000 A 
ATOM      7  C   UNL     1      48.673   8.039  15.328  0.00  0.00    +0.000 A 
ATOM      8  N   UNL     1      48.742   8.934  14.262  0.00  0.00    +0.000 N 
ATOM      9  N   UNL     1      48.787   8.590  16.558  0.00  0.00    +0.000 NA
ATOM     10  C   UNL     1      48.815   7.758  17.634  0.00  0.00    +0.000 A 
ATOM     11  H   UNL     1      48.731   9.889  14.598  0.00  0.00    +0.000 HD
BRANCH   4  13
ATOM     12  N   UNL     1      47.773   4.830  19.143  0.00  0.00    +0.000 N 
ATOM     13  C   UNL     1      48.866   5.571  18.774  0.00  0.00    +0.000 C 
ATOM     14  O   UNL     1      49.907   5.520  19.419  0.00  0.00    +0.000 OA
ATOM     15  H   UNL     1      47.899   4.190  19.917  0.00  0.00    +0.000 HD
ATOM     16  H   UNL     1      47.005   4.648  18.511  0.00  0.00    +0.000 HD
ENDBRANCH   4  13
ENDBRANCH   1   8
BRANCH   1  17
ATOM     17  C   UNL     1      47.114   8.384  12.427  0.00  0.00    +0.000 A 
ATOM     18  C   UNL     1      46.219   9.456  12.280  0.00  0.00    +0.000 A 
ATOM     19  C   UNL     1      44.940   9.264  11.764  0.00  0.00    +0.000 A 
ATOM     20  C   UNL     1      44.530   7.987  11.377  0.00  0.00    +0.000 A 
ATOM     21  C   UNL     1      45.383   6.880  11.506  0.00  0.00    +0.000 A 
ATOM     22  C   UNL     1      46.654   7.107  12.067  0.00  0.00    +0.000 A 
BRANCH  21  23
ATOM     23  C   UNL     1      45.034   5.546  10.966  0.00  0.00    +0.000 A 
ATOM     24  C   UNL     1      43.998   4.787  11.534  0.00  0.00    +0.000 A 
ATOM     25  C   UNL     1      43.580   3.582  10.966  0.00  0.00    +0.000 A 
ATOM     26  C   UNL     1      44.171   3.119   9.794  0.00  0.00    +0.000 A 
ATOM     27  C   UNL     1      45.203   3.849   9.193  0.00  0.00    +0.000 A 
ATOM     28  C   UNL     1      45.645   5.037   9.803  0.00  0.00    +0.000 A 
BRANCH  27  29
ATOM     29  C   UNL     1      45.806   3.413   7.881  0.00  0.00    +0.000 C 
ATOM     30  F   UNL     1      46.758   4.264   7.406  0.00  0.00    +0.000 F 
ATOM     31  F   UNL     1      46.412   2.195   7.973  0.00  0.00    +0.000 F 
ATOM     32  F   UNL     1      44.881   3.292   6.890  0.00  0.00    +0.000 F 
ENDBRANCH  27  29
ENDBRANCH  21  23
ENDBRANCH   1  17
TORSDOF 5
ENDMDL
MODEL 6
REMARK VINA RESULT:    -7.657      5.050      8.329
REMARK INTER + INTRA:         -10.403
REMARK INTER:                  -9.420
REMARK INTRA:                  -0.984
REMARK UNBOUND:                -0.509
REMARK  Name = 
REMARK  5 active torsions:
REMARK  status: ('A' for Active; 'I' for Inactive)
REMARK    1  A    between atoms: C_2  and  C_4
REMARK    2  A    between atoms: N_8  and  C_9
REMARK    3  A    between atoms: C_9  and  C_10
REMARK    4  A    between atoms: C_14  and  C_15
REMARK    5  A    between atoms: C_19  and  C_20
REMARK                            x       y       z     vdW  Elec       q    Type
REMARK                         _______ _______ _______ _____ _____    ______ ____
ROOT
ATOM      1  C   UNL     1      48.605   4.961  17.508  0.00  0.00    +0.000 C 
ATOM      2  C   UNL     1      48.797   5.610  18.871  0.00  0.00    +0.000 C 
ATOM      3  C   UNL     1      47.417   5.291  18.408  0.00  0.00    +0.000 C 
ENDROOT
BRANCH   1   8
ATOM      4  C   UNL     1      52.762   1.845  17.829  0.00  0.00    +0.000 A 
ATOM      5  C   UNL     1      52.630   3.205  18.077  0.00  0.00    +0.000 A 
ATOM      6  C   UNL     1      51.384   3.812  17.894  0.00  0.00    +0.000 A 
ATOM      7  C   UNL     1      50.297   3.058  17.458  0.00  0.00    +0.000 A 
ATOM      8  N   UNL     1      49.004   3.567  17.341  0.00  0.00    +0.000 N 
ATOM      9  N   UNL     1      50.433   1.744  17.169  0.00  0.00    +0.000 NA
ATOM     10  C   UNL     1      51.653   1.170  17.349  0.00  0.00    +0.000 A 
ATOM     11  H   UNL     1      48.389   2.882  16.918  0.00  0.00    +0.000 HD
BRANCH   4  13
ATOM     12  N   UNL     1      54.919   1.070  17.026  0.00  0.00    +0.000 N 
ATOM     13  C   UNL     1      54.015   1.104  18.056  0.00  0.00    +0.000 C 
ATOM     14  O   UNL     1      54.269   0.579  19.134  0.00  0.00    +0.000 OA
ATOM     15  H   UNL     1      55.824   0.662  17.230  0.00  0.00    +0.000 HD
ATOM     16  H   UNL     1      54.861   1.694  16.233  0.00  0.00    +0.000 HD
ENDBRANCH   4  13
ENDBRANCH   1   8
BRANCH   1  17
ATOM     17  C   UNL     1      48.658   5.799  16.237  0.00  0.00    +0.000 A 
ATOM     18  C   UNL     1      49.766   6.609  15.945  0.00  0.00    +0.000 A 
ATOM     19  C   UNL     1      49.877   7.269  14.722  0.00  0.00    +0.000 A 
ATOM     20  C   UNL     1      48.874   7.126  13.762  0.00  0.00    +0.000 A 
ATOM     21  C   UNL     1      47.743   6.332  14.005  0.00  0.00    +0.000 A 
ATOM     22  C   UNL     1      47.648   5.712  15.265  0.00  0.00    +0.000 A 
BRANCH  21  23
ATOM     23  C   UNL     1      46.741   6.040  12.954  0.00  0.00    +0.000 A 
ATOM     24  C   UNL     1      46.923   6.495  11.638  0.00  0.00    +0.000 A 
ATOM     25  C   UNL     1      46.049   6.129  10.612  0.00  0.00    +0.000 A 
ATOM     26  C   UNL     1      44.983   5.274  10.873  0.00  0.00    +0.000 A 
ATOM     27  C   UNL     1      44.769   4.794  12.170  0.00  0.00    +0.000 A 
ATOM     28  C   UNL     1      45.632   5.208  13.202  0.00  0.00    +0.000 A 
BRANCH  27  29
ATOM     29  C   UNL     1      43.671   3.803  12.466  0.00  0.00    +0.000 C 
ATOM     30  F   UNL     1      43.018   4.042  13.636  0.00  0.00    +0.000 F 
ATOM     31  F   UNL     1      42.709   3.799  11.499  0.00  0.00    +0.000 F 
ATOM     32  F   UNL     1      44.124   2.522  12.542  0.00  0.00    +0.000 F 
ENDBRANCH  27  29
ENDBRANCH  21  23
ENDBRANCH   1  17
TORSDOF 5
ENDMDL
MODEL 7
REMARK VINA RESULT:    -7.355      3.495      5.100
REMARK INTER + INTRA:         -10.014
REMARK INTER:                  -9.038
REMARK INTRA:                  -0.976
REMARK UNBOUND:                -0.509
REMARK  Name = 
REMARK  5 active torsions:
REMARK  status: ('A' for Active; 'I' for Inactive)
REMARK    1  A    between atoms: C_2  and  C_4
REMARK    2  A    between atoms: N_8  and  C_9
REMARK    3  A    between atoms: C_9  and  C_10
REMARK    4  A    between atoms: C_14  and  C_15
REMARK    5  A    between atoms: C_19  and  C_20
REMARK                            x       y       z     vdW  Elec       q    Type
REMARK                         _______ _______ _______ _____ _____    ______ ____
ROOT
ATOM      1  C   UNL     1      48.752   8.612  12.562  0.00  0.00    +0.000 C 
ATOM      2  C   UNL     1      49.753   9.191  11.573  0.00  0.00    +0.000 C 
ATOM      3  C   UNL     1      49.832   7.744  11.921  0.00  0.00    +0.000 C 
ENDROOT
BRANCH   1   8
ATOM      4  C   UNL     1      44.801   5.227  12.709  0.00  0.00    +0.000 A 
ATOM      5  C   UNL     1      46.080   5.148  13.244  0.00  0.00    +0.000 A 
ATOM      6  C   UNL     1      46.969   6.207  13.041  0.00  0.00    +0.000 A 
ATOM      7  C   UNL     1      46.573   7.320  12.302  0.00  0.00    +0.000 A 
ATOM      8  N   UNL     1      47.366   8.454  12.134  0.00  0.00    +0.000 N 
ATOM      9  N   UNL     1      45.346   7.379  11.739  0.00  0.00    +0.000 NA
ATOM     10  C   UNL     1      44.493   6.338  11.943  0.00  0.00    +0.000 A 
ATOM     11  H   UNL     1      46.930   9.099  11.486  0.00  0.00    +0.000 HD
BRANCH   4  13
ATOM     12  N   UNL     1      44.124   2.895  12.661  0.00  0.00    +0.000 N 
ATOM     13  C   UNL     1      43.773   4.193  12.925  0.00  0.00    +0.000 C 
ATOM     14  O   UNL     1      42.664   4.467  13.368  0.00  0.00    +0.000 OA
ATOM     15  H   UNL     1      43.455   2.182  12.924  0.00  0.00    +0.000 HD
ATOM     16  H   UNL     1      45.086   2.607  12.546  0.00  0.00    +0.000 HD
ENDBRANCH   4  13
ENDBRANCH   1   8
BRANCH   1  17
ATOM     17  C   UNL     1      48.941   8.811  14.060  0.00  0.00    +0.000 A 
ATOM     18  C   UNL     1      48.882  10.089  14.639  0.00  0.00    +0.000 A 
ATOM     19  C   UNL     1      48.919  10.258  16.022  0.00  0.00    +0.000 A 
ATOM     20  C   UNL     1      49.013   9.145  16.857  0.00  0.00    +0.000 A 
ATOM     21  C   UNL     1      49.079   7.845  16.330  0.00  0.00    +0.000 A 
ATOM     22  C   UNL     1      49.078   7.716  14.929  0.00  0.00    +0.000 A 
BRANCH  21  23
ATOM     23  C   UNL     1      49.026   6.640  17.190  0.00  0.00    +0.000 A 
ATOM     24  C   UNL     1      49.226   6.734  18.576  0.00  0.00    +0.000 A 
ATOM     25  C   UNL     1      49.063   5.629  19.414  0.00  0.00    +0.000 A 
ATOM     26  C   UNL     1      48.667   4.404  18.886  0.00  0.00    +0.000 A 
ATOM     27  C   UNL     1      48.451   4.269  17.510  0.00  0.00    +0.000 A 
ATOM     28  C   UNL     1      48.664   5.380  16.673  0.00  0.00    +0.000 A 
BRANCH  27  29
ATOM     29  C   UNL     1      47.944   2.977  16.921  0.00  0.00    +0.000 C 
ATOM     30  F   UNL     1      46.954   2.393  17.653  0.00  0.00    +0.000 F 
ATOM     31  F   UNL     1      47.426   3.149  15.671  0.00  0.00    +0.000 F 
ATOM     32  F   UNL     1      48.920   2.038  16.791  0.00  0.00    +0.000 F 
ENDBRANCH  27  29
ENDBRANCH  21  23
ENDBRANCH   1  17
TORSDOF 5
ENDMDL
MODEL 8
REMARK VINA RESULT:    -7.134      4.050      5.694
REMARK INTER + INTRA:          -9.728
REMARK INTER:                  -8.548
REMARK INTRA:                  -1.179
REMARK UNBOUND:                -0.509
REMARK  Name = 
REMARK  5 active torsions:
REMARK  status: ('A' for Active; 'I' for Inactive)
REMARK    1  A    between atoms: C_2  and  C_4
REMARK    2  A    between atoms: N_8  and  C_9
REMARK    3  A    between atoms: C_9  and  C_10
REMARK    4  A    between atoms: C_14  and  C_15
REMARK    5  A    between atoms: C_19  and  C_20
REMARK                            x       y       z     vdW  Elec       q    Type
REMARK                         _______ _______ _______ _____ _____    ______ ____
ROOT
ATOM      1  C   UNL     1      49.545   7.957  12.802  0.00  0.00    +0.000 C 
ATOM      2  C   UNL     1      49.516   8.313  11.322  0.00  0.00    +0.000 C 
ATOM      3  C   UNL     1      50.825   8.024  11.972  0.00  0.00    +0.000 C 
ENDROOT
BRANCH   1   8
ATOM      4  C   UNL     1      45.104   5.276  13.221  0.00  0.00    +0.000 A 
ATOM      5  C   UNL     1      45.344   6.560  12.750  0.00  0.00    +0.000 A 
ATOM      6  C   UNL     1      46.651   7.056  12.763  0.00  0.00    +0.000 A 
ATOM      7  C   UNL     1      47.692   6.270  13.252  0.00  0.00    +0.000 A 
ATOM      8  N   UNL     1      49.031   6.654  13.212  0.00  0.00    +0.000 N 
ATOM      9  N   UNL     1      47.455   5.038  13.756  0.00  0.00    +0.000 NA
ATOM     10  C   UNL     1      46.177   4.572  13.739  0.00  0.00    +0.000 A 
ATOM     11  H   UNL     1      49.608   5.984  13.705  0.00  0.00    +0.000 HD
BRANCH   4  13
ATOM     12  N   UNL     1      42.688   5.470  13.063  0.00  0.00    +0.000 N 
ATOM     13  C   UNL     1      43.774   4.642  13.187  0.00  0.00    +0.000 C 
ATOM     14  O   UNL     1      43.637   3.425  13.219  0.00  0.00    +0.000 OA
ATOM     15  H   UNL     1      41.791   5.022  12.921  0.00  0.00    +0.000 HD
ATOM     16  H   UNL     1      42.773   6.436  12.779  0.00  0.00    +0.000 HD
ENDBRANCH   4  13
ENDBRANCH   1   8
BRANCH   1  17
ATOM     17  C   UNL     1      49.450   9.047  13.861  0.00  0.00    +0.000 A 
ATOM     18  C   UNL     1      49.549  10.405  13.520  0.00  0.00    +0.000 A 
ATOM     19  C   UNL     1      49.326  11.406  14.464  0.00  0.00    +0.000 A 
ATOM     20  C   UNL     1      48.994  11.063  15.775  0.00  0.00    +0.000 A 
ATOM     21  C   UNL     1      48.885   9.720  16.170  0.00  0.00    +0.000 A 
ATOM     22  C   UNL     1      49.155   8.738  15.199  0.00  0.00    +0.000 A 
BRANCH  21  23
ATOM     23  C   UNL     1      48.388   9.328  17.509  0.00  0.00    +0.000 A 
ATOM     24  C   UNL     1      47.923  10.293  18.417  0.00  0.00    +0.000 A 
ATOM     25  C   UNL     1      47.343   9.930  19.634  0.00  0.00    +0.000 A 
ATOM     26  C   UNL     1      47.187   8.586  19.962  0.00  0.00    +0.000 A 
ATOM     27  C   UNL     1      47.632   7.593  19.081  0.00  0.00    +0.000 A 
ATOM     28  C   UNL     1      48.256   7.975  17.880  0.00  0.00    +0.000 A 
BRANCH  27  29
ATOM     29  C   UNL     1      47.403   6.131  19.373  0.00  0.00    +0.000 C 
ATOM     30  F   UNL     1      46.285   5.623  18.785  0.00  0.00    +0.000 F 
ATOM     31  F   UNL     1      48.436   5.353  18.939  0.00  0.00    +0.000 F 
ATOM     32  F   UNL     1      47.279   5.873  20.704  0.00  0.00    +0.000 F 
ENDBRANCH  27  29
ENDBRANCH  21  23
ENDBRANCH   1  17
TORSDOF 5
ENDMDL
MODEL 9
REMARK VINA RESULT:    -6.858      5.319      8.104
REMARK INTER + INTRA:          -9.371
REMARK INTER:                  -8.981
REMARK INTRA:                  -0.391
REMARK UNBOUND:                -0.509
REMARK  Name = 
REMARK  5 active torsions:
REMARK  status: ('A' for Active; 'I' for Inactive)
REMARK    1  A    between atoms: C_2  and  C_4
REMARK    2  A    between atoms: N_8  and  C_9
REMARK    3  A    between atoms: C_9  and  C_10
REMARK    4  A    between atoms: C_14  and  C_15
REMARK    5  A    between atoms: C_19  and  C_20
REMARK                            x       y       z     vdW  Elec       q    Type
REMARK                         _______ _______ _______ _____ _____    ______ ____
ROOT
ATOM      1  C   UNL     1      50.654   8.385  15.115  0.00  0.00    +0.000 C 
ATOM      2  C   UNL     1      51.537   9.604  15.341  0.00  0.00    +0.000 C 
ATOM      3  C   UNL     1      50.201   9.544  15.999  0.00  0.00    +0.000 C 
ENDROOT
BRANCH   1   8
ATOM      4  C   UNL     1      48.639   4.296  17.627  0.00  0.00    +0.000 A 
ATOM      5  C   UNL     1      48.024   5.414  17.079  0.00  0.00    +0.000 A 
ATOM      6  C   UNL     1      48.811   6.391  16.465  0.00  0.00    +0.000 A 
ATOM      7  C   UNL     1      50.196   6.243  16.414  0.00  0.00    +0.000 A 
ATOM      8  N   UNL     1      51.040   7.123  15.739  0.00  0.00    +0.000 N 
ATOM      9  N   UNL     1      50.803   5.180  16.988  0.00  0.00    +0.000 NA
ATOM     10  C   UNL     1      50.021   4.240  17.585  0.00  0.00    +0.000 A 
ATOM     11  H   UNL     1      52.010   6.887  15.909  0.00  0.00    +0.000 HD
BRANCH   4  13
ATOM     12  N   UNL     1      48.249   2.804  19.503  0.00  0.00    +0.000 N 
ATOM     13  C   UNL     1      47.890   3.182  18.235  0.00  0.00    +0.000 C 
ATOM     14  O   UNL     1      46.952   2.643  17.660  0.00  0.00    +0.000 OA
ATOM     15  H   UNL     1      47.655   2.121  19.958  0.00  0.00    +0.000 HD
ATOM     16  H   UNL     1      48.830   3.381  20.096  0.00  0.00    +0.000 HD
ENDBRANCH   4  13
ENDBRANCH   1   8
BRANCH   1  17
ATOM     17  C   UNL     1      49.844   8.244  13.833  0.00  0.00    +0.000 A 
ATOM     18  C   UNL     1      50.263   8.845  12.636  0.00  0.00    +0.000 A 
ATOM     19  C   UNL     1      49.598   8.605  11.435  0.00  0.00    +0.000 A 
ATOM     20  C   UNL     1      48.495   7.751  11.410  0.00  0.00    +0.000 A 
ATOM     21  C   UNL     1      48.031   7.128  12.579  0.00  0.00    +0.000 A 
ATOM     22  C   UNL     1      48.705   7.424  13.778  0.00  0.00    +0.000 A 
BRANCH  21  23
ATOM     23  C   UNL     1      46.962   6.103  12.558  0.00  0.00    +0.000 A 
ATOM     24  C   UNL     1      47.093   4.910  13.287  0.00  0.00    +0.000 A 
ATOM     25  C   UNL     1      46.048   3.988  13.372  0.00  0.00    +0.000 A 
ATOM     26  C   UNL     1      44.831   4.251  12.750  0.00  0.00    +0.000 A 
ATOM     27  C   UNL     1      44.657   5.432  12.019  0.00  0.00    +0.000 A 
ATOM     28  C   UNL     1      45.735   6.329  11.904  0.00  0.00    +0.000 A 
BRANCH  27  29
ATOM     29  C   UNL     1      43.325   5.780  11.403  0.00  0.00    +0.000 C 
ATOM     30  F   UNL     1      43.076   5.131  10.233  0.00  0.00    +0.000 F 
ATOM     31  F   UNL     1      42.283   5.473  12.227  0.00  0.00    +0.000 F 
ATOM     32  F   UNL     1      43.202   7.108  11.131  0.00  0.00    +0.000 F 
ENDBRANCH  27  29
ENDBRANCH  21  23
ENDBRANCH   1  17
TORSDOF 5
ENDMDL
