MODEL 1
REMARK VINA RESULT:    -7.986      0.000      0.000
REMARK INTER + INTRA:         -12.358
REMARK INTER:                 -11.254
REMARK INTRA:                  -1.104
REMARK UNBOUND:                -1.104
REMARK  Name = 
REMARK  7 active torsions:
REMARK  status: ('A' for Active; 'I' for Inactive)
REMARK    1  A    between atoms: C_2  and  C_19
REMARK    2  A    between atoms: N_3  and  C_4
REMARK    3  A    between atoms: C_4  and  C_5
REMARK    4  A    between atoms: C_8  and  C_9
REMARK    5  A    between atoms: C_9  and  N_10
REMARK    6  A    between atoms: N_10  and  C_11
REMARK    7  A    between atoms: C_11  and  C_12
REMARK                            x       y       z     vdW  Elec       q    Type
REMARK                         _______ _______ _______ _____ _____    ______ ____
ROOT
ATOM      1  C   UNL     1      46.844   7.874  13.163  0.00  0.00    +0.000 C 
ENDROOT
BRANCH   1   2
ATOM      2  C   UNL     1      46.014   6.851  12.427  0.00  0.00    +0.000 A 
ATOM      3  C   UNL     1      46.310   6.538  11.104  0.00  0.00    +0.000 A 
ATOM      4  C   UNL     1      45.537   5.587  10.447  0.00  0.00    +0.000 A 
ATOM      5  C   UNL     1      44.481   4.971  11.118  0.00  0.00    +0.000 A 
ATOM      6  C   UNL     1      44.249   5.356  12.435  0.00  0.00    +0.000 A 
ATOM      7  N   UNL     1      44.980   6.280  13.099  0.00  0.00    +0.000 NA
BRANCH   5   8
ATOM      8  C   UNL     1      43.614   3.945  10.445  0.00  0.00    +0.000 C 
BRANCH   8   9
ATOM      9  N   UNL     1      44.161   3.555   9.141  0.00  0.00    +0.000 NA
ATOM     10  H   UNL     1      44.981   4.144   8.966  0.00  0.00    +0.000 HD
BRANCH   9  11
ATOM     11  C   UNL     1      44.636   2.167   9.144  0.00  0.00    +0.000 C 
BRANCH  11  12
ATOM     12  C   UNL     1      45.861   1.974   8.303  0.00  0.00    +0.000 A 
ATOM     13  N   UNL     1      46.476   0.835   8.045  0.00  0.00    +0.000 NA
ATOM     14  C   UNL     1      47.486   1.147   7.174  0.00  0.00    +0.000 A 
ATOM     15  C   UNL     1      47.499   2.494   6.908  0.00  0.00    +0.000 A 
ATOM     16  N   UNL     1      46.466   3.012   7.640  0.00  0.00    +0.000 N 
ATOM     17  H   UNL     1      46.179   3.981   7.668  0.00  0.00    +0.000 HD
ENDBRANCH  11  12
ENDBRANCH   9  11
ENDBRANCH   8   9
ENDBRANCH   5   8
ENDBRANCH   1   2
BRANCH   1  20
ATOM     18  O   UNL     1      49.364   6.654  13.562  0.00  0.00    +0.000 OA
ATOM     19  C   UNL     1      48.586   6.749  14.508  0.00  0.00    +0.000 C 
ATOM     20  N   UNL     1      47.371   7.365  14.407  0.00  0.00    +0.000 N 
ATOM     21  H   UNL     1      46.743   7.401  15.200  0.00  0.00    +0.000 HD
BRANCH  19  22
ATOM     22  C   UNL     1      48.929   6.236  15.838  0.00  0.00    +0.000 A 
ATOM     23  C   UNL     1      49.912   6.855  16.597  0.00  0.00    +0.000 A 
ATOM     24  S   UNL     1      50.147   6.132  18.124  0.00  0.00    +0.000 S 
ATOM     25  C   UNL     1      48.973   4.941  17.807  0.00  0.00    +0.000 A 
ATOM     26  N   UNL     1      48.683   3.981  18.724  0.00  0.00    +0.000 NA
ATOM     27  C   UNL     1      47.795   3.127  18.337  0.00  0.00    +0.000 A 
ATOM     28  N   UNL     1      47.176   3.142  17.113  0.00  0.00    +0.000 N 
ATOM     29  C   UNL     1      47.419   4.104  16.164  0.00  0.00    +0.000 A 
ATOM     30  O   UNL     1      46.814   4.108  15.098  0.00  0.00    +0.000 OA
ATOM     31  C   UNL     1      48.408   5.094  16.554  0.00  0.00    +0.000 A 
ATOM     32  H   UNL     1      46.485   2.446  16.872  0.00  0.00    +0.000 HD
ENDBRANCH  19  22
ENDBRANCH   1  20
TORSDOF 7
ENDMDL
MODEL 2
REMARK VINA RESULT:    -7.285      4.532      8.767
REMARK INTER + INTRA:         -11.370
REMARK INTER:                 -10.431
REMARK INTRA:                  -0.939
REMARK UNBOUND:                -1.104
REMARK  Name = 
REMARK  7 active torsions:
REMARK  status: ('A' for Active; 'I' for Inactive)
REMARK    1  A    between atoms: C_2  and  C_19
REMARK    2  A    between atoms: N_3  and  C_4
REMARK    3  A    between atoms: C_4  and  C_5
REMARK    4  A    between atoms: C_8  and  C_9
REMARK    5  A    between atoms: C_9  and  N_10
REMARK    6  A    between atoms: N_10  and  C_11
REMARK    7  A    between atoms: C_11  and  C_12
REMARK                            x       y       z     vdW  Elec       q    Type
REMARK                         _______ _______ _______ _____ _____    ______ ____
ROOT
ATOM      1  C   UNL     1      48.795   6.018  16.935  0.00  0.00    +0.000 C 
ENDROOT
BRANCH   1   2
ATOM      2  C   UNL     1      49.575   4.738  17.115  0.00  0.00    +0.000 A 
ATOM      3  C   UNL     1      50.919   4.788  17.471  0.00  0.00    +0.000 A 
ATOM      4  C   UNL     1      51.616   3.596  17.640  0.00  0.00    +0.000 A 
ATOM      5  C   UNL     1      50.963   2.380  17.444  0.00  0.00    +0.000 A 
ATOM      6  C   UNL     1      49.622   2.426  17.075  0.00  0.00    +0.000 A 
ATOM      7  N   UNL     1      48.919   3.568  16.900  0.00  0.00    +0.000 NA
BRANCH   5   8
ATOM      8  C   UNL     1      51.679   1.068  17.605  0.00  0.00    +0.000 C 
BRANCH   8   9
ATOM      9  N   UNL     1      52.861   1.207  18.462  0.00  0.00    +0.000 NA
ATOM     10  H   UNL     1      52.659   0.721  19.340  0.00  0.00    +0.000 HD
BRANCH   9  11
ATOM     11  C   UNL     1      54.036   0.549  17.879  0.00  0.00    +0.000 C 
BRANCH  11  12
ATOM     12  C   UNL     1      54.183  -0.872  18.327  0.00  0.00    +0.000 A 
ATOM     13  N   UNL     1      53.958  -1.352  19.537  0.00  0.00    +0.000 NA
ATOM     14  C   UNL     1      54.145  -2.705  19.441  0.00  0.00    +0.000 A 
ATOM     15  C   UNL     1      54.504  -3.056  18.163  0.00  0.00    +0.000 A 
ATOM     16  N   UNL     1      54.534  -1.881  17.465  0.00  0.00    +0.000 N 
ATOM     17  H   UNL     1      54.749  -1.773  16.482  0.00  0.00    +0.000 HD
ENDBRANCH  11  12
ENDBRANCH   9  11
ENDBRANCH   8   9
ENDBRANCH   5   8
ENDBRANCH   1   2
BRANCH   1  20
ATOM     18  O   UNL     1      49.336   6.634  14.228  0.00  0.00    +0.000 OA
ATOM     19  C   UNL     1      48.198   6.305  14.554  0.00  0.00    +0.000 C 
ATOM     20  N   UNL     1      47.868   5.949  15.831  0.00  0.00    +0.000 N 
ATOM     21  H   UNL     1      46.914   5.711  16.071  0.00  0.00    +0.000 HD
BRANCH  19  22
ATOM     22  C   UNL     1      47.109   6.235  13.574  0.00  0.00    +0.000 A 
ATOM     23  C   UNL     1      46.597   7.395  13.011  0.00  0.00    +0.000 A 
ATOM     24  S   UNL     1      45.359   7.108  11.873  0.00  0.00    +0.000 S 
ATOM     25  C   UNL     1      45.436   5.427  12.124  0.00  0.00    +0.000 A 
ATOM     26  N   UNL     1      44.616   4.579  11.450  0.00  0.00    +0.000 NA
ATOM     27  C   UNL     1      44.764   3.335  11.762  0.00  0.00    +0.000 A 
ATOM     28  N   UNL     1      45.653   2.862  12.694  0.00  0.00    +0.000 N 
ATOM     29  C   UNL     1      46.517   3.677  13.383  0.00  0.00    +0.000 A 
ATOM     30  O   UNL     1      47.327   3.212  14.176  0.00  0.00    +0.000 OA
ATOM     31  C   UNL     1      46.394   5.088  13.063  0.00  0.00    +0.000 A 
ATOM     32  H   UNL     1      45.723   1.875  12.890  0.00  0.00    +0.000 HD
ENDBRANCH  19  22
ENDBRANCH   1  20
TORSDOF 7
ENDMDL
MODEL 3
REMARK VINA RESULT:    -7.193      2.128      3.378
REMARK INTER + INTRA:         -11.241
REMARK INTER:                 -10.284
REMARK INTRA:                  -0.957
REMARK UNBOUND:                -1.104
REMARK  Name = 
REMARK  7 active torsions:
REMARK  status: ('A' for Active; 'I' for Inactive)
REMARK    1  A    between atoms: C_2  and  C_19
REMARK    2  A    between atoms: N_3  and  C_4
REMARK    3  A    between atoms: C_4  and  C_5
REMARK    4  A    between atoms: C_8  and  C_9
REMARK    5  A    between atoms: C_9  and  N_10
REMARK    6  A    between atoms: N_10  and  C_11
REMARK    7  A    between atoms: C_11  and  C_12
REMARK                            x       y       z     vdW  Elec       q    Type
REMARK                         _______ _______ _______ _____ _____    ______ ____
ROOT
ATOM      1  C   UNL     1      47.158   3.981  14.961  0.00  0.00    +0.000 C 
ENDROOT
BRANCH   1   2
ATOM      2  C   UNL     1      46.427   4.261  13.670  0.00  0.00    +0.000 A 
ATOM      3  C   UNL     1      46.402   5.552  13.152  0.00  0.00    +0.000 A 
ATOM      4  C   UNL     1      45.730   5.786  11.957  0.00  0.00    +0.000 A 
ATOM      5  C   UNL     1      45.091   4.731  11.306  0.00  0.00    +0.000 A 
ATOM      6  C   UNL     1      45.157   3.476  11.904  0.00  0.00    +0.000 A 
ATOM      7  N   UNL     1      45.799   3.219  13.066  0.00  0.00    +0.000 NA
BRANCH   5   8
ATOM      8  C   UNL     1      44.344   4.939  10.018  0.00  0.00    +0.000 C 
BRANCH   8   9
ATOM      9  N   UNL     1      45.235   4.818   8.859  0.00  0.00    +0.000 NA
ATOM     10  H   UNL     1      46.183   4.671   9.216  0.00  0.00    +0.000 HD
BRANCH   9  11
ATOM     11  C   UNL     1      44.909   3.643   8.043  0.00  0.00    +0.000 C 
BRANCH  11  12
ATOM     12  C   UNL     1      46.126   2.884   7.612  0.00  0.00    +0.000 A 
ATOM     13  N   UNL     1      46.422   1.628   7.895  0.00  0.00    +0.000 NA
ATOM     14  C   UNL     1      47.581   1.357   7.219  0.00  0.00    +0.000 A 
ATOM     15  C   UNL     1      48.009   2.463   6.527  0.00  0.00    +0.000 A 
ATOM     16  N   UNL     1      47.080   3.431   6.792  0.00  0.00    +0.000 N 
ATOM     17  H   UNL     1      47.078   4.375   6.428  0.00  0.00    +0.000 HD
ENDBRANCH  11  12
ENDBRANCH   9  11
ENDBRANCH   8   9
ENDBRANCH   5   8
ENDBRANCH   1   2
BRANCH   1  20
ATOM     18  O   UNL     1      49.296   4.386  16.767  0.00  0.00    +0.000 OA
ATOM     19  C   UNL     1      48.478   5.286  16.593  0.00  0.00    +0.000 C 
ATOM     20  N   UNL     1      47.445   5.184  15.705  0.00  0.00    +0.000 N 
ATOM     21  H   UNL     1      46.772   5.934  15.607  0.00  0.00    +0.000 HD
BRANCH  19  22
ATOM     22  C   UNL     1      48.577   6.562  17.308  0.00  0.00    +0.000 A 
ATOM     23  C   UNL     1      48.452   6.603  18.690  0.00  0.00    +0.000 A 
ATOM     24  S   UNL     1      48.626   8.170  19.341  0.00  0.00    +0.000 S 
ATOM     25  C   UNL     1      48.832   8.854  17.796  0.00  0.00    +0.000 A 
ATOM     26  N   UNL     1      49.024  10.190  17.641  0.00  0.00    +0.000 NA
ATOM     27  C   UNL     1      49.136  10.571  16.412  0.00  0.00    +0.000 A 
ATOM     28  N   UNL     1      49.066   9.740  15.324  0.00  0.00    +0.000 N 
ATOM     29  C   UNL     1      48.896   8.382  15.432  0.00  0.00    +0.000 A 
ATOM     30  O   UNL     1      48.882   7.665  14.438  0.00  0.00    +0.000 OA
ATOM     31  C   UNL     1      48.771   7.899  16.797  0.00  0.00    +0.000 A 
ATOM     32  H   UNL     1      49.166  10.101  14.387  0.00  0.00    +0.000 HD
ENDBRANCH  19  22
ENDBRANCH   1  20
TORSDOF 7
ENDMDL
MODEL 4
REMARK VINA RESULT:    -7.035      2.099      2.606
REMARK INTER + INTRA:         -11.018
REMARK INTER:                 -10.126
REMARK INTRA:                  -0.893
REMARK UNBOUND:                -1.104
REMARK  Name = 
REMARK  7 active torsions:
REMARK  status: ('A' for Active; 'I' for Inactive)
REMARK    1  A    between atoms: C_2  and  C_19
REMARK    2  A    between atoms: N_3  and  C_4
REMARK    3  A    between atoms: C_4  and  C_5
REMARK    4  A    between atoms: C_8  and  C_9
REMARK    5  A    between atoms: C_9  and  N_10
REMARK    6  A    between atoms: N_10  and  C_11
REMARK    7  A    between atoms: C_11  and  C_12
REMARK                            x       y       z     vdW  Elec       q    Type
REMARK                         _______ _______ _______ _____ _____    ______ ____
ROOT
ATOM      1  C   UNL     1      47.879   7.055  13.704  0.00  0.00    +0.000 C 
ENDROOT
BRANCH   1   2
ATOM      2  C   UNL     1      46.818   6.309  12.933  0.00  0.00    +0.000 A 
ATOM      3  C   UNL     1      46.171   5.223  13.515  0.00  0.00    +0.000 A 
ATOM      4  C   UNL     1      45.190   4.555  12.789  0.00  0.00    +0.000 A 
ATOM      5  C   UNL     1      44.877   4.978  11.497  0.00  0.00    +0.000 A 
ATOM      6  C   UNL     1      45.584   6.065  10.992  0.00  0.00    +0.000 A 
ATOM      7  N   UNL     1      46.545   6.731  11.671  0.00  0.00    +0.000 NA
BRANCH   5   8
ATOM      8  C   UNL     1      43.832   4.280  10.673  0.00  0.00    +0.000 C 
BRANCH   8   9
ATOM      9  N   UNL     1      44.354   3.907   9.355  0.00  0.00    +0.000 NA
ATOM     10  H   UNL     1      45.257   4.374   9.240  0.00  0.00    +0.000 HD
BRANCH   9  11
ATOM     11  C   UNL     1      44.613   2.465   9.262  0.00  0.00    +0.000 C 
BRANCH  11  12
ATOM     12  C   UNL     1      45.771   2.144   8.367  0.00  0.00    +0.000 A 
ATOM     13  N   UNL     1      46.319   0.959   8.170  0.00  0.00    +0.000 NA
ATOM     14  C   UNL     1      47.281   1.148   7.215  0.00  0.00    +0.000 A 
ATOM     15  C   UNL     1      47.335   2.466   6.834  0.00  0.00    +0.000 A 
ATOM     16  N   UNL     1      46.376   3.093   7.581  0.00  0.00    +0.000 N 
ATOM     17  H   UNL     1      46.133   4.074   7.543  0.00  0.00    +0.000 HD
ENDBRANCH  11  12
ENDBRANCH   9  11
ENDBRANCH   8   9
ENDBRANCH   5   8
ENDBRANCH   1   2
BRANCH   1  20
ATOM     18  O   UNL     1      50.137   6.599  15.345  0.00  0.00    +0.000 OA
ATOM     19  C   UNL     1      49.011   6.480  15.824  0.00  0.00    +0.000 C 
ATOM     20  N   UNL     1      47.874   6.727  15.110  0.00  0.00    +0.000 N 
ATOM     21  H   UNL     1      46.962   6.590  15.528  0.00  0.00    +0.000 HD
BRANCH  19  22
ATOM     22  C   UNL     1      48.811   6.095  17.225  0.00  0.00    +0.000 A 
ATOM     23  C   UNL     1      49.059   4.793  17.637  0.00  0.00    +0.000 A 
ATOM     24  S   UNL     1      48.798   4.547  19.304  0.00  0.00    +0.000 S 
ATOM     25  C   UNL     1      48.304   6.161  19.526  0.00  0.00    +0.000 A 
ATOM     26  N   UNL     1      47.927   6.617  20.749  0.00  0.00    +0.000 NA
ATOM     27  C   UNL     1      47.548   7.852  20.762  0.00  0.00    +0.000 A 
ATOM     28  N   UNL     1      47.506   8.670  19.662  0.00  0.00    +0.000 N 
ATOM     29  C   UNL     1      47.898   8.260  18.411  0.00  0.00    +0.000 A 
ATOM     30  O   UNL     1      47.887   9.034  17.460  0.00  0.00    +0.000 OA
ATOM     31  C   UNL     1      48.339   6.878  18.343  0.00  0.00    +0.000 A 
ATOM     32  H   UNL     1      47.204   9.629  19.740  0.00  0.00    +0.000 HD
ENDBRANCH  19  22
ENDBRANCH   1  20
TORSDOF 7
ENDMDL
MODEL 5
REMARK VINA RESULT:    -6.912      4.322      9.047
REMARK INTER + INTRA:         -10.845
REMARK INTER:                 -10.109
REMARK INTRA:                  -0.736
REMARK UNBOUND:                -1.104
REMARK  Name = 
REMARK  7 active torsions:
REMARK  status: ('A' for Active; 'I' for Inactive)
REMARK    1  A    between atoms: C_2  and  C_19
REMARK    2  A    between atoms: N_3  and  C_4
REMARK    3  A    between atoms: C_4  and  C_5
REMARK    4  A    between atoms: C_8  and  C_9
REMARK    5  A    between atoms: C_9  and  N_10
REMARK    6  A    between atoms: N_10  and  C_11
REMARK    7  A    between atoms: C_11  and  C_12
REMARK                            x       y       z     vdW  Elec       q    Type
REMARK                         _______ _______ _______ _____ _____    ______ ____
ROOT
ATOM      1  C   UNL     1      47.137   3.491  16.832  0.00  0.00    +0.000 C 
ENDROOT
BRANCH   1   2
ATOM      2  C   UNL     1      48.606   3.353  17.145  0.00  0.00    +0.000 A 
ATOM      3  C   UNL     1      49.277   4.383  17.799  0.00  0.00    +0.000 A 
ATOM      4  C   UNL     1      50.630   4.231  18.085  0.00  0.00    +0.000 A 
ATOM      5  C   UNL     1      51.289   3.061  17.709  0.00  0.00    +0.000 A 
ATOM      6  C   UNL     1      50.542   2.091  17.047  0.00  0.00    +0.000 A 
ATOM      7  N   UNL     1      49.228   2.211  16.752  0.00  0.00    +0.000 NA
BRANCH   5   8
ATOM      8  C   UNL     1      52.752   2.858  17.988  0.00  0.00    +0.000 C 
BRANCH   8   9
ATOM      9  N   UNL     1      53.005   1.540  18.578  0.00  0.00    +0.000 NA
ATOM     10  H   UNL     1      52.111   1.042  18.607  0.00  0.00    +0.000 HD
BRANCH   9  11
ATOM     11  C   UNL     1      53.905   0.735  17.744  0.00  0.00    +0.000 C 
BRANCH  11  12
ATOM     12  C   UNL     1      54.059  -0.667  18.247  0.00  0.00    +0.000 A 
ATOM     13  N   UNL     1      55.127  -1.437  18.143  0.00  0.00    +0.000 NA
ATOM     14  C   UNL     1      54.823  -2.588  18.819  0.00  0.00    +0.000 A 
ATOM     15  C   UNL     1      53.549  -2.530  19.329  0.00  0.00    +0.000 A 
ATOM     16  N   UNL     1      53.069  -1.307  18.951  0.00  0.00    +0.000 N 
ATOM     17  H   UNL     1      52.159  -0.926  19.172  0.00  0.00    +0.000 HD
ENDBRANCH  11  12
ENDBRANCH   9  11
ENDBRANCH   8   9
ENDBRANCH   5   8
ENDBRANCH   1   2
BRANCH   1  20
ATOM     18  O   UNL     1      47.200   3.078  14.035  0.00  0.00    +0.000 OA
ATOM     19  C   UNL     1      46.972   4.204  14.472  0.00  0.00    +0.000 C 
ATOM     20  N   UNL     1      46.880   4.474  15.807  0.00  0.00    +0.000 N 
ATOM     21  H   UNL     1      46.719   5.419  16.133  0.00  0.00    +0.000 HD
BRANCH  19  22
ATOM     22  C   UNL     1      46.743   5.342  13.576  0.00  0.00    +0.000 A 
ATOM     23  C   UNL     1      47.767   6.238  13.305  0.00  0.00    +0.000 A 
ATOM     24  S   UNL     1      47.318   7.475  12.220  0.00  0.00    +0.000 S 
ATOM     25  C   UNL     1      45.727   6.880  12.108  0.00  0.00    +0.000 A 
ATOM     26  N   UNL     1      44.801   7.498  11.329  0.00  0.00    +0.000 NA
ATOM     27  C   UNL     1      43.630   6.955  11.364  0.00  0.00    +0.000 A 
ATOM     28  N   UNL     1      43.298   5.854  12.112  0.00  0.00    +0.000 N 
ATOM     29  C   UNL     1      44.205   5.184  12.895  0.00  0.00    +0.000 A 
ATOM     30  O   UNL     1      43.882   4.177  13.516  0.00  0.00    +0.000 OA
ATOM     31  C   UNL     1      45.542   5.752  12.886  0.00  0.00    +0.000 A 
ATOM     32  H   UNL     1      42.364   5.475  12.092  0.00  0.00    +0.000 HD
ENDBRANCH  19  22
ENDBRANCH   1  20
TORSDOF 7
ENDMDL
MODEL 6
REMARK VINA RESULT:    -6.878      2.708      7.989
REMARK INTER + INTRA:         -10.797
REMARK INTER:                  -9.554
REMARK INTRA:                  -1.243
REMARK UNBOUND:                -1.104
REMARK  Name = 
REMARK  7 active torsions:
REMARK  status: ('A' for Active; 'I' for Inactive)
REMARK    1  A    between atoms: C_2  and  C_19
REMARK    2  A    between atoms: N_3  and  C_4
REMARK    3  A    between atoms: C_4  and  C_5
REMARK    4  A    between atoms: C_8  and  C_9
REMARK    5  A    between atoms: C_9  and  N_10
REMARK    6  A    between atoms: N_10  and  C_11
REMARK    7  A    between atoms: C_11  and  C_12
REMARK                            x       y       z     vdW  Elec       q    Type
REMARK                         _______ _______ _______ _____ _____    ______ ____
ROOT
ATOM      1  C   UNL     1      47.831   7.740  11.919  0.00  0.00    +0.000 C 
ENDROOT
BRANCH   1   2
ATOM      2  C   UNL     1      48.319   7.847  13.343  0.00  0.00    +0.000 A 
ATOM      3  C   UNL     1      47.833   8.855  14.171  0.00  0.00    +0.000 A 
ATOM      4  C   UNL     1      48.290   8.930  15.482  0.00  0.00    +0.000 A 
ATOM      5  C   UNL     1      49.227   8.005  15.941  0.00  0.00    +0.000 A 
ATOM      6  C   UNL     1      49.668   7.040  15.041  0.00  0.00    +0.000 A 
ATOM      7  N   UNL     1      49.245   6.944  13.759  0.00  0.00    +0.000 NA
BRANCH   5   8
ATOM      8  C   UNL     1      49.757   8.054  17.347  0.00  0.00    +0.000 C 
BRANCH   8   9
ATOM      9  N   UNL     1      50.066   6.711  17.849  0.00  0.00    +0.000 NA
ATOM     10  H   UNL     1      50.793   6.812  18.563  0.00  0.00    +0.000 HD
BRANCH   9  11
ATOM     11  C   UNL     1      48.908   6.099  18.512  0.00  0.00    +0.000 C 
BRANCH  11  12
ATOM     12  C   UNL     1      48.480   4.820  17.861  0.00  0.00    +0.000 A 
ATOM     13  N   UNL     1      49.179   4.085  17.017  0.00  0.00    +0.000 NA
ATOM     14  C   UNL     1      48.412   2.980  16.761  0.00  0.00    +0.000 A 
ATOM     15  C   UNL     1      47.222   3.047  17.444  0.00  0.00    +0.000 A 
ATOM     16  N   UNL     1      47.272   4.227  18.133  0.00  0.00    +0.000 N 
ATOM     17  H   UNL     1      46.561   4.588  18.755  0.00  0.00    +0.000 HD
ENDBRANCH  11  12
ENDBRANCH   9  11
ENDBRANCH   8   9
ENDBRANCH   5   8
ENDBRANCH   1   2
BRANCH   1  20
ATOM     18  O   UNL     1      45.009   7.560  11.983  0.00  0.00    +0.000 OA
ATOM     19  C   UNL     1      45.672   6.544  11.786  0.00  0.00    +0.000 C 
ATOM     20  N   UNL     1      47.035   6.557  11.696  0.00  0.00    +0.000 N 
ATOM     21  H   UNL     1      47.552   5.697  11.562  0.00  0.00    +0.000 HD
BRANCH  19  22
ATOM     22  C   UNL     1      45.035   5.238  11.594  0.00  0.00    +0.000 A 
ATOM     23  C   UNL     1      44.371   4.620  12.645  0.00  0.00    +0.000 A 
ATOM     24  S   UNL     1      43.671   3.124  12.220  0.00  0.00    +0.000 S 
ATOM     25  C   UNL     1      44.266   3.229  10.629  0.00  0.00    +0.000 A 
ATOM     26  N   UNL     1      44.025   2.245   9.724  0.00  0.00    +0.000 NA
ATOM     27  C   UNL     1      44.563   2.445   8.567  0.00  0.00    +0.000 A 
ATOM     28  N   UNL     1      45.326   3.535   8.235  0.00  0.00    +0.000 N 
ATOM     29  C   UNL     1      45.578   4.564   9.108  0.00  0.00    +0.000 A 
ATOM     30  O   UNL     1      46.228   5.543   8.761  0.00  0.00    +0.000 OA
ATOM     31  C   UNL     1      44.989   4.392  10.424  0.00  0.00    +0.000 A 
ATOM     32  H   UNL     1      45.715   3.633   7.309  0.00  0.00    +0.000 HD
ENDBRANCH  19  22
ENDBRANCH   1  20
TORSDOF 7
ENDMDL
MODEL 7
REMARK VINA RESULT:    -6.549      3.713      8.292
REMARK INTER + INTRA:         -10.333
REMARK INTER:                  -9.337
REMARK INTRA:                  -0.996
REMARK UNBOUND:                -1.104
REMARK  Name = 
REMARK  7 active torsions:
REMARK  status: ('A' for Active; 'I' for Inactive)
REMARK    1  A    between atoms: C_2  and  C_19
REMARK    2  A    between atoms: N_3  and  C_4
REMARK    3  A    between atoms: C_4  and  C_5
REMARK    4  A    between atoms: C_8  and  C_9
REMARK    5  A    between atoms: C_9  and  N_10
REMARK    6  A    between atoms: N_10  and  C_11
REMARK    7  A    between atoms: C_11  and  C_12
REMARK                            x       y       z     vdW  Elec       q    Type
REMARK                         _______ _______ _______ _____ _____    ______ ____
ROOT
ATOM      1  C   UNL     1      47.355   3.578  16.645  0.00  0.00    +0.000 C 
ENDROOT
BRANCH   1   2
ATOM      2  C   UNL     1      48.793   3.919  16.948  0.00  0.00    +0.000 A 
ATOM      3  C   UNL     1      49.665   2.928  17.389  0.00  0.00    +0.000 A 
ATOM      4  C   UNL     1      50.988   3.263  17.655  0.00  0.00    +0.000 A 
ATOM      5  C   UNL     1      51.416   4.580  17.482  0.00  0.00    +0.000 A 
ATOM      6  C   UNL     1      50.472   5.507  17.051  0.00  0.00    +0.000 A 
ATOM      7  N   UNL     1      49.178   5.212  16.789  0.00  0.00    +0.000 NA
BRANCH   5   8
ATOM      8  C   UNL     1      52.834   4.989  17.766  0.00  0.00    +0.000 C 
BRANCH   8   9
ATOM      9  N   UNL     1      53.070   6.388  17.394  0.00  0.00    +0.000 NA
ATOM     10  H   UNL     1      53.598   6.822  18.156  0.00  0.00    +0.000 HD
BRANCH   9  11
ATOM     11  C   UNL     1      53.905   6.496  16.192  0.00  0.00    +0.000 C 
BRANCH  11  12
ATOM     12  C   UNL     1      53.292   7.370  15.141  0.00  0.00    +0.000 A 
ATOM     13  N   UNL     1      52.245   8.163  15.277  0.00  0.00    +0.000 NA
ATOM     14  C   UNL     1      52.113   8.815  14.081  0.00  0.00    +0.000 A 
ATOM     15  C   UNL     1      53.080   8.405  13.196  0.00  0.00    +0.000 A 
ATOM     16  N   UNL     1      53.819   7.479  13.878  0.00  0.00    +0.000 N 
ATOM     17  H   UNL     1      54.627   6.981  13.528  0.00  0.00    +0.000 HD
ENDBRANCH  11  12
ENDBRANCH   9  11
ENDBRANCH   8   9
ENDBRANCH   5   8
ENDBRANCH   1   2
BRANCH   1  20
ATOM     18  O   UNL     1      47.198   3.172  13.851  0.00  0.00    +0.000 OA
ATOM     19  C   UNL     1      46.770   4.219  14.331  0.00  0.00    +0.000 C 
ATOM     20  N   UNL     1      46.768   4.470  15.674  0.00  0.00    +0.000 N 
ATOM     21  H   UNL     1      46.434   5.355  16.034  0.00  0.00    +0.000 HD
BRANCH  19  22
ATOM     22  C   UNL     1      46.189   5.269  13.489  0.00  0.00    +0.000 A 
ATOM     23  C   UNL     1      46.886   6.446  13.253  0.00  0.00    +0.000 A 
ATOM     24  S   UNL     1      46.062   7.530  12.227  0.00  0.00    +0.000 S 
ATOM     25  C   UNL     1      44.726   6.483  12.095  0.00  0.00    +0.000 A 
ATOM     26  N   UNL     1      43.642   6.821  11.349  0.00  0.00    +0.000 NA
ATOM     27  C   UNL     1      42.693   5.945  11.365  0.00  0.00    +0.000 A 
ATOM     28  N   UNL     1      42.726   4.766  12.064  0.00  0.00    +0.000 N 
ATOM     29  C   UNL     1      43.808   4.372  12.813  0.00  0.00    +0.000 A 
ATOM     30  O   UNL     1      43.818   3.291  13.389  0.00  0.00    +0.000 OA
ATOM     31  C   UNL     1      44.908   5.321  12.823  0.00  0.00    +0.000 A 
ATOM     32  H   UNL     1      41.951   4.121  12.031  0.00  0.00    +0.000 HD
ENDBRANCH  19  22
ENDBRANCH   1  20
TORSDOF 7
ENDMDL
MODEL 8
REMARK VINA RESULT:    -6.437      3.855      8.233
REMARK INTER + INTRA:         -10.175
REMARK INTER:                  -9.374
REMARK INTRA:                  -0.801
REMARK UNBOUND:                -1.104
REMARK  Name = 
REMARK  7 active torsions:
REMARK  status: ('A' for Active; 'I' for Inactive)
REMARK    1  A    between atoms: C_2  and  C_19
REMARK    2  A    between atoms: N_3  and  C_4
REMARK    3  A    between atoms: C_4  and  C_5
REMARK    4  A    between atoms: C_8  and  C_9
REMARK    5  A    between atoms: C_9  and  N_10
REMARK    6  A    between atoms: N_10  and  C_11
REMARK    7  A    between atoms: C_11  and  C_12
REMARK                            x       y       z     vdW  Elec       q    Type
REMARK                         _______ _______ _______ _____ _____    ______ ____
ROOT
ATOM      1  C   UNL     1      48.241   7.316  14.752  0.00  0.00    +0.000 C 
ENDROOT
BRANCH   1   2
ATOM      2  C   UNL     1      48.808   6.272  15.683  0.00  0.00    +0.000 A 
ATOM      3  C   UNL     1      50.045   6.478  16.286  0.00  0.00    +0.000 A 
ATOM      4  C   UNL     1      50.546   5.507  17.147  0.00  0.00    +0.000 A 
ATOM      5  C   UNL     1      49.807   4.348  17.386  0.00  0.00    +0.000 A 
ATOM      6  C   UNL     1      48.587   4.221  16.729  0.00  0.00    +0.000 A 
ATOM      7  N   UNL     1      48.077   5.145  15.884  0.00  0.00    +0.000 NA
BRANCH   5   8
ATOM      8  C   UNL     1      50.313   3.268  18.300  0.00  0.00    +0.000 C 
BRANCH   8   9
ATOM      9  N   UNL     1      51.629   2.781  17.874  0.00  0.00    +0.000 NA
ATOM     10  H   UNL     1      52.272   2.911  18.660  0.00  0.00    +0.000 HD
BRANCH   9  11
ATOM     11  C   UNL     1      51.609   1.343  17.584  0.00  0.00    +0.000 C 
BRANCH  11  12
ATOM     12  C   UNL     1      52.952   0.702  17.748  0.00  0.00    +0.000 A 
ATOM     13  N   UNL     1      53.741   0.768  18.805  0.00  0.00    +0.000 NA
ATOM     14  C   UNL     1      54.812  -0.037  18.521  0.00  0.00    +0.000 A 
ATOM     15  C   UNL     1      54.686  -0.589  17.270  0.00  0.00    +0.000 A 
ATOM     16  N   UNL     1      53.504  -0.104  16.783  0.00  0.00    +0.000 N 
ATOM     17  H   UNL     1      53.091  -0.321  15.886  0.00  0.00    +0.000 HD
ENDBRANCH  11  12
ENDBRANCH   9  11
ENDBRANCH   8   9
ENDBRANCH   5   8
ENDBRANCH   1   2
BRANCH   1  20
ATOM     18  O   UNL     1      47.983   6.676  12.010  0.00  0.00    +0.000 OA
ATOM     19  C   UNL     1      46.994   6.615  12.737  0.00  0.00    +0.000 C 
ATOM     20  N   UNL     1      47.047   6.864  14.079  0.00  0.00    +0.000 N 
ATOM     21  H   UNL     1      46.207   6.832  14.643  0.00  0.00    +0.000 HD
BRANCH  19  22
ATOM     22  C   UNL     1      45.680   6.228  12.213  0.00  0.00    +0.000 A 
ATOM     23  C   UNL     1      44.832   7.184  11.671  0.00  0.00    +0.000 A 
ATOM     24  S   UNL     1      43.365   6.538  11.090  0.00  0.00    +0.000 S 
ATOM     25  C   UNL     1      43.793   4.965  11.580  0.00  0.00    +0.000 A 
ATOM     26  N   UNL     1      42.955   3.915  11.380  0.00  0.00    +0.000 NA
ATOM     27  C   UNL     1      43.398   2.788  11.829  0.00  0.00    +0.000 A 
ATOM     28  N   UNL     1      44.599   2.617  12.467  0.00  0.00    +0.000 N 
ATOM     29  C   UNL     1      45.489   3.643  12.671  0.00  0.00    +0.000 A 
ATOM     30  O   UNL     1      46.573   3.442  13.207  0.00  0.00    +0.000 OA
ATOM     31  C   UNL     1      45.041   4.933  12.178  0.00  0.00    +0.000 A 
ATOM     32  H   UNL     1      44.890   1.707  12.791  0.00  0.00    +0.000 HD
ENDBRANCH  19  22
ENDBRANCH   1  20
TORSDOF 7
ENDMDL
MODEL 9
REMARK VINA RESULT:    -6.261      3.372      7.721
REMARK INTER + INTRA:          -9.927
REMARK INTER:                  -8.732
REMARK INTRA:                  -1.195
REMARK UNBOUND:                -1.104
REMARK  Name = 
REMARK  7 active torsions:
REMARK  status: ('A' for Active; 'I' for Inactive)
REMARK    1  A    between atoms: C_2  and  C_19
REMARK    2  A    between atoms: N_3  and  C_4
REMARK    3  A    between atoms: C_4  and  C_5
REMARK    4  A    between atoms: C_8  and  C_9
REMARK    5  A    between atoms: C_9  and  N_10
REMARK    6  A    between atoms: N_10  and  C_11
REMARK    7  A    between atoms: C_11  and  C_12
REMARK                            x       y       z     vdW  Elec       q    Type
REMARK                         _______ _______ _______ _____ _____    ______ ____
ROOT
ATOM      1  C   UNL     1      47.937   8.795  14.103  0.00  0.00    +0.000 C 
ENDROOT
BRANCH   1   2
ATOM      2  C   UNL     1      48.526   8.185  15.351  0.00  0.00    +0.000 A 
ATOM      3  C   UNL     1      49.329   7.052  15.258  0.00  0.00    +0.000 A 
ATOM      4  C   UNL     1      49.868   6.511  16.421  0.00  0.00    +0.000 A 
ATOM      5  C   UNL     1      49.593   7.105  17.652  0.00  0.00    +0.000 A 
ATOM      6  C   UNL     1      48.770   8.227  17.651  0.00  0.00    +0.000 A 
ATOM      7  N   UNL     1      48.227   8.773  16.539  0.00  0.00    +0.000 NA
BRANCH   5   8
ATOM      8  C   UNL     1      50.146   6.549  18.934  0.00  0.00    +0.000 C 
BRANCH   8   9
ATOM      9  N   UNL     1      49.073   6.143  19.847  0.00  0.00    +0.000 NA
ATOM     10  H   UNL     1      48.188   6.455  19.436  0.00  0.00    +0.000 HD
BRANCH   9  11
ATOM     11  C   UNL     1      48.986   4.683  19.968  0.00  0.00    +0.000 C 
BRANCH  11  12
ATOM     12  C   UNL     1      48.521   4.026  18.705  0.00  0.00    +0.000 A 
ATOM     13  N   UNL     1      49.172   3.127  17.990  0.00  0.00    +0.000 NA
ATOM     14  C   UNL     1      48.319   2.764  16.982  0.00  0.00    +0.000 A 
ATOM     15  C   UNL     1      47.139   3.460  17.072  0.00  0.00    +0.000 A 
ATOM     16  N   UNL     1      47.281   4.266  18.166  0.00  0.00    +0.000 N 
ATOM     17  H   UNL     1      46.590   4.907  18.533  0.00  0.00    +0.000 HD
ENDBRANCH  11  12
ENDBRANCH   9  11
ENDBRANCH   8   9
ENDBRANCH   5   8
ENDBRANCH   1   2
BRANCH   1  20
ATOM     18  O   UNL     1      47.900   6.839  12.061  0.00  0.00    +0.000 OA
ATOM     19  C   UNL     1      46.845   7.165  12.600  0.00  0.00    +0.000 C 
ATOM     20  N   UNL     1      46.786   8.068  13.623  0.00  0.00    +0.000 N 
ATOM     21  H   UNL     1      45.896   8.335  14.026  0.00  0.00    +0.000 HD
BRANCH  19  22
ATOM     22  C   UNL     1      45.565   6.571  12.202  0.00  0.00    +0.000 A 
ATOM     23  C   UNL     1      44.564   7.364  11.657  0.00  0.00    +0.000 A 
ATOM     24  S   UNL     1      43.163   6.489  11.230  0.00  0.00    +0.000 S 
ATOM     25  C   UNL     1      43.829   5.029  11.796  0.00  0.00    +0.000 A 
ATOM     26  N   UNL     1      43.129   3.867  11.731  0.00  0.00    +0.000 NA
ATOM     27  C   UNL     1      43.747   2.845  12.224  0.00  0.00    +0.000 A 
ATOM     28  N   UNL     1      44.998   2.882  12.783  0.00  0.00    +0.000 N 
ATOM     29  C   UNL     1      45.753   4.027  12.851  0.00  0.00    +0.000 A 
ATOM     30  O   UNL     1      46.885   4.012  13.319  0.00  0.00    +0.000 OA
ATOM     31  C   UNL     1      45.105   5.206  12.303  0.00  0.00    +0.000 A 
ATOM     32  H   UNL     1      45.429   2.045  13.148  0.00  0.00    +0.000 HD
ENDBRANCH  19  22
ENDBRANCH   1  20
TORSDOF 7
ENDMDL
