MODEL 1
REMARK VINA RESULT:    -8.041      0.000      0.000
REMARK INTER + INTRA:         -12.853
REMARK INTER:                 -11.332
REMARK INTRA:                  -1.521
REMARK UNBOUND:                -1.521
REMARK  Name = 
REMARK  8 active torsions:
REMARK  status: ('A' for Active; 'I' for Inactive)
REMARK    1  A    between atoms: C_1  and  O_2
REMARK    2  A    between atoms: O_2  and  C_3
REMARK    3  A    between atoms: C_10  and  C_11
REMARK    4  A    between atoms: N_13  and  C_14
REMARK    5  A    between atoms: C_14  and  C_15
REMARK    6  A    between atoms: C_18  and  C_19
REMARK    7  A    between atoms: C_19  and  N_20
REMARK    8  A    between atoms: N_20  and  C_21
REMARK                            x       y       z     vdW  Elec       q    Type
REMARK                         _______ _______ _______ _____ _____    ______ ____
ROOT
ATOM      1  C   UNL     1      46.893   7.946  13.073  0.00  0.00    +0.000 C 
ENDROOT
BRANCH   1   2
ATOM      2  C   UNL     1      46.138   6.956  12.222  0.00  0.00    +0.000 A 
ATOM      3  C   UNL     1      45.090   6.197  12.758  0.00  0.00    +0.000 A 
ATOM      4  C   UNL     1      44.442   5.225  11.983  0.00  0.00    +0.000 A 
ATOM      5  C   UNL     1      44.836   4.987  10.658  0.00  0.00    +0.000 A 
ATOM      6  C   UNL     1      45.870   5.765  10.119  0.00  0.00    +0.000 A 
ATOM      7  C   UNL     1      46.515   6.735  10.892  0.00  0.00    +0.000 A 
BRANCH   5   8
ATOM      8  C   UNL     1      44.239   3.850   9.854  0.00  0.00    +0.000 C 
BRANCH   8   9
ATOM      9  N   UNL     1      44.285   4.077   8.409  0.00  0.00    +0.000 NA
ATOM     10  H   UNL     1      44.668   5.008   8.241  0.00  0.00    +0.000 HD
BRANCH   9  11
ATOM     11  C   UNL     1      45.109   3.077   7.696  0.00  0.00    +0.000 C 
ATOM     12  C   UNL     1      45.465   1.937   8.663  0.00  0.00    +0.000 C 
ATOM     13  C   UNL     1      46.403   0.933   8.002  0.00  0.00    +0.000 C 
ATOM     14  O   UNL     1      47.575   1.576   7.507  0.00  0.00    +0.000 OA
ATOM     15  C   UNL     1      47.273   2.555   6.519  0.00  0.00    +0.000 C 
ATOM     16  C   UNL     1      46.399   3.660   7.098  0.00  0.00    +0.000 C 
ENDBRANCH   9  11
ENDBRANCH   8   9
ENDBRANCH   5   8
ENDBRANCH   1   2
BRANCH   1  19
ATOM     17  C   UNL     1      48.551   6.817  14.486  0.00  0.00    +0.000 C 
ATOM     18  O   UNL     1      49.366   6.822  13.565  0.00  0.00    +0.000 OA
ATOM     19  N   UNL     1      47.301   7.350  14.321  0.00  0.00    +0.000 N 
ATOM     20  H   UNL     1      46.622   7.301  15.070  0.00  0.00    +0.000 HD
BRANCH  17  28
ATOM     21  C   UNL     1      47.274   4.199  16.336  0.00  0.00    +0.000 A 
ATOM     22  N   UNL     1      46.991   3.247  17.249  0.00  0.00    +0.000 NA
ATOM     23  C   UNL     1      47.718   3.210  18.369  0.00  0.00    +0.000 A 
ATOM     24  N   UNL     1      48.716   4.022  18.700  0.00  0.00    +0.000 NA
ATOM     25  C   UNL     1      48.973   4.948  17.761  0.00  0.00    +0.000 A 
ATOM     26  S   UNL     1      50.215   6.075  18.022  0.00  0.00    +0.000 S 
ATOM     27  C   UNL     1      49.921   6.817  16.525  0.00  0.00    +0.000 A 
ATOM     28  C   UNL     1      48.888   6.236  15.796  0.00  0.00    +0.000 A 
ATOM     29  C   UNL     1      48.318   5.117  16.543  0.00  0.00    +0.000 A 
BRANCH  21  31
ATOM     30  C   UNL     1      47.180   3.474  14.118  0.00  0.00    +0.000 C 
ATOM     31  O   UNL     1      46.544   4.207  15.166  0.00  0.00    +0.000 OA
ENDBRANCH  21  31
ENDBRANCH  17  28
ENDBRANCH   1  19
TORSDOF 7
ENDMDL
MODEL 2
REMARK VINA RESULT:    -7.443      1.592      1.855
REMARK INTER + INTRA:         -12.010
REMARK INTER:                 -10.902
REMARK INTRA:                  -1.109
REMARK UNBOUND:                -1.521
REMARK  Name = 
REMARK  8 active torsions:
REMARK  status: ('A' for Active; 'I' for Inactive)
REMARK    1  A    between atoms: C_1  and  O_2
REMARK    2  A    between atoms: O_2  and  C_3
REMARK    3  A    between atoms: C_10  and  C_11
REMARK    4  A    between atoms: N_13  and  C_14
REMARK    5  A    between atoms: C_14  and  C_15
REMARK    6  A    between atoms: C_18  and  C_19
REMARK    7  A    between atoms: C_19  and  N_20
REMARK    8  A    between atoms: N_20  and  C_21
REMARK                            x       y       z     vdW  Elec       q    Type
REMARK                         _______ _______ _______ _____ _____    ______ ____
ROOT
ATOM      1  C   UNL     1      48.255   6.855  13.418  0.00  0.00    +0.000 C 
ENDROOT
BRANCH   1   2
ATOM      2  C   UNL     1      47.116   6.151  12.725  0.00  0.00    +0.000 A 
ATOM      3  C   UNL     1      46.561   4.980  13.258  0.00  0.00    +0.000 A 
ATOM      4  C   UNL     1      45.555   4.289  12.570  0.00  0.00    +0.000 A 
ATOM      5  C   UNL     1      45.088   4.752  11.330  0.00  0.00    +0.000 A 
ATOM      6  C   UNL     1      45.630   5.936  10.812  0.00  0.00    +0.000 A 
ATOM      7  C   UNL     1      46.634   6.625  11.499  0.00  0.00    +0.000 A 
BRANCH   5   8
ATOM      8  C   UNL     1      44.100   3.944  10.513  0.00  0.00    +0.000 C 
BRANCH   8   9
ATOM      9  N   UNL     1      44.056   4.339   9.104  0.00  0.00    +0.000 NA
ATOM     10  H   UNL     1      44.464   5.271   9.018  0.00  0.00    +0.000 HD
BRANCH   9  11
ATOM     11  C   UNL     1      44.786   3.405   8.222  0.00  0.00    +0.000 C 
ATOM     12  C   UNL     1      45.146   2.140   9.016  0.00  0.00    +0.000 C 
ATOM     13  C   UNL     1      45.994   1.190   8.177  0.00  0.00    +0.000 C 
ATOM     14  O   UNL     1      47.163   1.843   7.689  0.00  0.00    +0.000 OA
ATOM     15  C   UNL     1      46.848   2.949   6.849  0.00  0.00    +0.000 C 
ATOM     16  C   UNL     1      46.064   4.007   7.616  0.00  0.00    +0.000 C 
ENDBRANCH   9  11
ENDBRANCH   8   9
ENDBRANCH   5   8
ENDBRANCH   1   2
BRANCH   1  19
ATOM     17  C   UNL     1      49.066   6.812  15.734  0.00  0.00    +0.000 C 
ATOM     18  O   UNL     1      50.221   6.647  15.345  0.00  0.00    +0.000 OA
ATOM     19  N   UNL     1      48.033   6.919  14.842  0.00  0.00    +0.000 N 
ATOM     20  H   UNL     1      47.080   7.009  15.172  0.00  0.00    +0.000 HD
BRANCH  17  28
ATOM     21  C   UNL     1      48.951   4.499  18.292  0.00  0.00    +0.000 A 
ATOM     22  N   UNL     1      48.838   3.831  19.458  0.00  0.00    +0.000 NA
ATOM     23  C   UNL     1      48.482   4.517  20.548  0.00  0.00    +0.000 A 
ATOM     24  N   UNL     1      48.218   5.817  20.621  0.00  0.00    +0.000 NA
ATOM     25  C   UNL     1      48.350   6.447  19.442  0.00  0.00    +0.000 A 
ATOM     26  S   UNL     1      48.045   8.114  19.351  0.00  0.00    +0.000 S 
ATOM     27  C   UNL     1      48.396   8.136  17.691  0.00  0.00    +0.000 A 
ATOM     28  C   UNL     1      48.752   6.897  17.170  0.00  0.00    +0.000 A 
ATOM     29  C   UNL     1      48.719   5.884  18.223  0.00  0.00    +0.000 A 
BRANCH  21  31
ATOM     30  C   UNL     1      48.305   3.004  16.619  0.00  0.00    +0.000 C 
ATOM     31  O   UNL     1      49.355   3.791  17.180  0.00  0.00    +0.000 OA
ENDBRANCH  21  31
ENDBRANCH  17  28
ENDBRANCH   1  19
TORSDOF 7
ENDMDL
MODEL 3
REMARK VINA RESULT:    -7.397      1.857      2.601
REMARK INTER + INTRA:         -11.945
REMARK INTER:                 -10.875
REMARK INTRA:                  -1.070
REMARK UNBOUND:                -1.521
REMARK  Name = 
REMARK  8 active torsions:
REMARK  status: ('A' for Active; 'I' for Inactive)
REMARK    1  A    between atoms: C_1  and  O_2
REMARK    2  A    between atoms: O_2  and  C_3
REMARK    3  A    between atoms: C_10  and  C_11
REMARK    4  A    between atoms: N_13  and  C_14
REMARK    5  A    between atoms: C_14  and  C_15
REMARK    6  A    between atoms: C_18  and  C_19
REMARK    7  A    between atoms: C_19  and  N_20
REMARK    8  A    between atoms: N_20  and  C_21
REMARK                            x       y       z     vdW  Elec       q    Type
REMARK                         _______ _______ _______ _____ _____    ______ ____
ROOT
ATOM      1  C   UNL     1      47.363   6.660  13.599  0.00  0.00    +0.000 C 
ENDROOT
BRANCH   1   2
ATOM      2  C   UNL     1      46.510   5.847  12.659  0.00  0.00    +0.000 A 
ATOM      3  C   UNL     1      45.977   4.613  13.054  0.00  0.00    +0.000 A 
ATOM      4  C   UNL     1      45.249   3.827  12.151  0.00  0.00    +0.000 A 
ATOM      5  C   UNL     1      45.046   4.256  10.830  0.00  0.00    +0.000 A 
ATOM      6  C   UNL     1      45.563   5.501  10.446  0.00  0.00    +0.000 A 
ATOM      7  C   UNL     1      46.288   6.285  11.348  0.00  0.00    +0.000 A 
BRANCH   5   8
ATOM      8  C   UNL     1      44.381   3.358   9.807  0.00  0.00    +0.000 C 
BRANCH   8   9
ATOM      9  N   UNL     1      44.544   3.829   8.431  0.00  0.00    +0.000 NA
ATOM     10  H   UNL     1      44.958   4.762   8.458  0.00  0.00    +0.000 HD
BRANCH   9  11
ATOM     11  C   UNL     1      45.398   2.940   7.616  0.00  0.00    +0.000 C 
ATOM     12  C   UNL     1      45.791   1.713   8.454  0.00  0.00    +0.000 C 
ATOM     13  C   UNL     1      46.761   0.818   7.690  0.00  0.00    +0.000 C 
ATOM     14  O   UNL     1      47.912   1.548   7.272  0.00  0.00    +0.000 OA
ATOM     15  C   UNL     1      47.578   2.619   6.395  0.00  0.00    +0.000 C 
ATOM     16  C   UNL     1      46.668   3.626   7.090  0.00  0.00    +0.000 C 
ENDBRANCH   9  11
ENDBRANCH   8   9
ENDBRANCH   5   8
ENDBRANCH   1   2
BRANCH   1  19
ATOM     17  C   UNL     1      48.627   6.026  15.604  0.00  0.00    +0.000 C 
ATOM     18  O   UNL     1      49.640   6.562  15.157  0.00  0.00    +0.000 OA
ATOM     19  N   UNL     1      47.459   6.025  14.891  0.00  0.00    +0.000 N 
ATOM     20  H   UNL     1      46.643   5.542  15.246  0.00  0.00    +0.000 HD
BRANCH  17  28
ATOM     21  C   UNL     1      49.199   7.118  18.828  0.00  0.00    +0.000 A 
ATOM     22  N   UNL     1      49.363   7.263  20.159  0.00  0.00    +0.000 NA
ATOM     23  C   UNL     1      49.234   6.182  20.933  0.00  0.00    +0.000 A 
ATOM     24  N   UNL     1      48.955   4.945  20.536  0.00  0.00    +0.000 NA
ATOM     25  C   UNL     1      48.790   4.845  19.207  0.00  0.00    +0.000 A 
ATOM     26  S   UNL     1      48.433   3.332  18.525  0.00  0.00    +0.000 S 
ATOM     27  C   UNL     1      48.388   3.994  16.963  0.00  0.00    +0.000 A 
ATOM     28  C   UNL     1      48.636   5.361  16.918  0.00  0.00    +0.000 A 
ATOM     29  C   UNL     1      48.881   5.869  18.267  0.00  0.00    +0.000 A 
BRANCH  21  31
ATOM     30  C   UNL     1      48.049   8.929  17.905  0.00  0.00    +0.000 C 
ATOM     31  O   UNL     1      49.296   8.246  18.039  0.00  0.00    +0.000 OA
ENDBRANCH  21  31
ENDBRANCH  17  28
ENDBRANCH   1  19
TORSDOF 7
ENDMDL
MODEL 4
REMARK VINA RESULT:    -7.113      2.266      4.065
REMARK INTER + INTRA:         -11.545
REMARK INTER:                 -10.373
REMARK INTRA:                  -1.173
REMARK UNBOUND:                -1.521
REMARK  Name = 
REMARK  8 active torsions:
REMARK  status: ('A' for Active; 'I' for Inactive)
REMARK    1  A    between atoms: C_1  and  O_2
REMARK    2  A    between atoms: O_2  and  C_3
REMARK    3  A    between atoms: C_10  and  C_11
REMARK    4  A    between atoms: N_13  and  C_14
REMARK    5  A    between atoms: C_14  and  C_15
REMARK    6  A    between atoms: C_18  and  C_19
REMARK    7  A    between atoms: C_19  and  N_20
REMARK    8  A    between atoms: N_20  and  C_21
REMARK                            x       y       z     vdW  Elec       q    Type
REMARK                         _______ _______ _______ _____ _____    ______ ____
ROOT
ATOM      1  C   UNL     1      46.845   4.876  14.297  0.00  0.00    +0.000 C 
ENDROOT
BRANCH   1   2
ATOM      2  C   UNL     1      46.102   4.681  13.000  0.00  0.00    +0.000 A 
ATOM      3  C   UNL     1      45.396   3.498  12.743  0.00  0.00    +0.000 A 
ATOM      4  C   UNL     1      44.772   3.293  11.505  0.00  0.00    +0.000 A 
ATOM      5  C   UNL     1      44.847   4.265  10.496  0.00  0.00    +0.000 A 
ATOM      6  C   UNL     1      45.535   5.456  10.765  0.00  0.00    +0.000 A 
ATOM      7  C   UNL     1      46.157   5.660  12.000  0.00  0.00    +0.000 A 
BRANCH   5   8
ATOM      8  C   UNL     1      44.295   4.000   9.110  0.00  0.00    +0.000 C 
BRANCH   8   9
ATOM      9  N   UNL     1      45.206   4.402   8.038  0.00  0.00    +0.000 NA
ATOM     10  H   UNL     1      45.967   4.945   8.449  0.00  0.00    +0.000 HD
BRANCH   9  11
ATOM     11  C   UNL     1      45.772   3.252   7.302  0.00  0.00    +0.000 C 
ATOM     12  C   UNL     1      46.122   2.138   8.301  0.00  0.00    +0.000 C 
ATOM     13  C   UNL     1      46.808   0.970   7.600  0.00  0.00    +0.000 C 
ATOM     14  O   UNL     1      47.962   1.407   6.887  0.00  0.00    +0.000 OA
ATOM     15  C   UNL     1      47.640   2.352   5.872  0.00  0.00    +0.000 C 
ATOM     16  C   UNL     1      47.018   3.606   6.476  0.00  0.00    +0.000 C 
ENDBRANCH   9  11
ENDBRANCH   8   9
ENDBRANCH   5   8
ENDBRANCH   1   2
BRANCH   1  19
ATOM     17  C   UNL     1      48.325   6.619  15.188  0.00  0.00    +0.000 C 
ATOM     18  O   UNL     1      49.051   5.767  15.698  0.00  0.00    +0.000 OA
ATOM     19  N   UNL     1      47.208   6.260  14.483  0.00  0.00    +0.000 N 
ATOM     20  H   UNL     1      46.592   6.968  14.105  0.00  0.00    +0.000 HD
BRANCH  17  28
ATOM     21  C   UNL     1      48.816   9.176  12.922  0.00  0.00    +0.000 A 
ATOM     22  N   UNL     1      49.039  10.341  12.281  0.00  0.00    +0.000 NA
ATOM     23  C   UNL     1      49.285  11.430  13.015  0.00  0.00    +0.000 A 
ATOM     24  N   UNL     1      49.339  11.503  14.341  0.00  0.00    +0.000 NA
ATOM     25  C   UNL     1      49.104  10.324  14.941  0.00  0.00    +0.000 A 
ATOM     26  S   UNL     1      49.140  10.233  16.636  0.00  0.00    +0.000 S 
ATOM     27  C   UNL     1      48.784   8.574  16.601  0.00  0.00    +0.000 A 
ATOM     28  C   UNL     1      48.627   8.054  15.321  0.00  0.00    +0.000 A 
ATOM     29  C   UNL     1      48.824   9.106  14.326  0.00  0.00    +0.000 A 
BRANCH  21  31
ATOM     30  C   UNL     1      49.693   7.458  11.606  0.00  0.00    +0.000 C 
ATOM     31  O   UNL     1      48.525   8.064  12.159  0.00  0.00    +0.000 OA
ENDBRANCH  21  31
ENDBRANCH  17  28
ENDBRANCH   1  19
TORSDOF 7
ENDMDL
MODEL 5
REMARK VINA RESULT:    -6.933      2.700      3.605
REMARK INTER + INTRA:         -11.290
REMARK INTER:                  -9.986
REMARK INTRA:                  -1.304
REMARK UNBOUND:                -1.521
REMARK  Name = 
REMARK  8 active torsions:
REMARK  status: ('A' for Active; 'I' for Inactive)
REMARK    1  A    between atoms: C_1  and  O_2
REMARK    2  A    between atoms: O_2  and  C_3
REMARK    3  A    between atoms: C_10  and  C_11
REMARK    4  A    between atoms: N_13  and  C_14
REMARK    5  A    between atoms: C_14  and  C_15
REMARK    6  A    between atoms: C_18  and  C_19
REMARK    7  A    between atoms: C_19  and  N_20
REMARK    8  A    between atoms: N_20  and  C_21
REMARK                            x       y       z     vdW  Elec       q    Type
REMARK                         _______ _______ _______ _____ _____    ______ ____
ROOT
ATOM      1  C   UNL     1      48.675   6.706  14.355  0.00  0.00    +0.000 C 
ENDROOT
BRANCH   1   2
ATOM      2  C   UNL     1      47.564   6.098  13.538  0.00  0.00    +0.000 A 
ATOM      3  C   UNL     1      47.145   6.689  12.338  0.00  0.00    +0.000 A 
ATOM      4  C   UNL     1      46.062   6.161  11.623  0.00  0.00    +0.000 A 
ATOM      5  C   UNL     1      45.371   5.035  12.096  0.00  0.00    +0.000 A 
ATOM      6  C   UNL     1      45.808   4.435  13.285  0.00  0.00    +0.000 A 
ATOM      7  C   UNL     1      46.889   4.961  13.998  0.00  0.00    +0.000 A 
BRANCH   5   8
ATOM      8  C   UNL     1      44.117   4.537  11.407  0.00  0.00    +0.000 C 
BRANCH   8   9
ATOM      9  N   UNL     1      43.984   5.015  10.030  0.00  0.00    +0.000 NA
ATOM     10  H   UNL     1      44.556   5.854   9.925  0.00  0.00    +0.000 HD
BRANCH   9  11
ATOM     11  C   UNL     1      44.404   4.011   9.030  0.00  0.00    +0.000 C 
ATOM     12  C   UNL     1      44.546   2.644   9.718  0.00  0.00    +0.000 C 
ATOM     13  C   UNL     1      45.080   1.597   8.747  0.00  0.00    +0.000 C 
ATOM     14  O   UNL     1      46.315   2.016   8.170  0.00  0.00    +0.000 OA
ATOM     15  C   UNL     1      46.177   3.221   7.425  0.00  0.00    +0.000 C 
ATOM     16  C   UNL     1      45.721   4.365   8.323  0.00  0.00    +0.000 C 
ENDBRANCH   9  11
ENDBRANCH   8   9
ENDBRANCH   5   8
ENDBRANCH   1   2
BRANCH   1  19
ATOM     17  C   UNL     1      48.920   6.208  16.745  0.00  0.00    +0.000 C 
ATOM     18  O   UNL     1      49.858   5.448  16.509  0.00  0.00    +0.000 OA
ATOM     19  N   UNL     1      48.276   6.865  15.732  0.00  0.00    +0.000 N 
ATOM     20  H   UNL     1      47.477   7.454  15.931  0.00  0.00    +0.000 HD
BRANCH  17  28
ATOM     21  C   UNL     1      47.824   8.991  18.468  0.00  0.00    +0.000 A 
ATOM     22  N   UNL     1      47.358   9.886  19.363  0.00  0.00    +0.000 NA
ATOM     23  C   UNL     1      47.076   9.457  20.596  0.00  0.00    +0.000 A 
ATOM     24  N   UNL     1      47.204   8.219  21.059  0.00  0.00    +0.000 NA
ATOM     25  C   UNL     1      47.662   7.357  20.136  0.00  0.00    +0.000 A 
ATOM     26  S   UNL     1      47.892   5.730  20.558  0.00  0.00    +0.000 S 
ATOM     27  C   UNL     1      48.436   5.352  18.996  0.00  0.00    +0.000 A 
ATOM     28  C   UNL     1      48.454   6.435  18.124  0.00  0.00    +0.000 A 
ATOM     29  C   UNL     1      47.993   7.639  18.812  0.00  0.00    +0.000 A 
BRANCH  21  31
ATOM     30  C   UNL     1      49.375  10.013  17.052  0.00  0.00    +0.000 C 
ATOM     31  O   UNL     1      48.077   9.433  17.186  0.00  0.00    +0.000 OA
ENDBRANCH  21  31
ENDBRANCH  17  28
ENDBRANCH   1  19
TORSDOF 7
ENDMDL
MODEL 6
REMARK VINA RESULT:    -6.848      4.330      8.815
REMARK INTER + INTRA:         -11.171
REMARK INTER:                 -10.063
REMARK INTRA:                  -1.108
REMARK UNBOUND:                -1.521
REMARK  Name = 
REMARK  8 active torsions:
REMARK  status: ('A' for Active; 'I' for Inactive)
REMARK    1  A    between atoms: C_1  and  O_2
REMARK    2  A    between atoms: O_2  and  C_3
REMARK    3  A    between atoms: C_10  and  C_11
REMARK    4  A    between atoms: N_13  and  C_14
REMARK    5  A    between atoms: C_14  and  C_15
REMARK    6  A    between atoms: C_18  and  C_19
REMARK    7  A    between atoms: C_19  and  N_20
REMARK    8  A    between atoms: N_20  and  C_21
REMARK                            x       y       z     vdW  Elec       q    Type
REMARK                         _______ _______ _______ _____ _____    ______ ____
ROOT
ATOM      1  C   UNL     1      47.251   3.295  16.979  0.00  0.00    +0.000 C 
ENDROOT
BRANCH   1   2
ATOM      2  C   UNL     1      48.713   3.252  17.342  0.00  0.00    +0.000 A 
ATOM      3  C   UNL     1      49.323   4.323  18.008  0.00  0.00    +0.000 A 
ATOM      4  C   UNL     1      50.698   4.308  18.276  0.00  0.00    +0.000 A 
ATOM      5  C   UNL     1      51.494   3.224  17.876  0.00  0.00    +0.000 A 
ATOM      6  C   UNL     1      50.876   2.145  17.230  0.00  0.00    +0.000 A 
ATOM      7  C   UNL     1      49.503   2.160  16.964  0.00  0.00    +0.000 A 
BRANCH   5   8
ATOM      8  C   UNL     1      53.000   3.254  18.036  0.00  0.00    +0.000 C 
BRANCH   8   9
ATOM      9  N   UNL     1      53.506   2.233  18.954  0.00  0.00    +0.000 NA
ATOM     10  H   UNL     1      52.709   1.719  19.333  0.00  0.00    +0.000 HD
BRANCH   9  11
ATOM     11  C   UNL     1      54.432   1.282  18.302  0.00  0.00    +0.000 C 
ATOM     12  C   UNL     1      54.863   1.852  16.942  0.00  0.00    +0.000 C 
ATOM     13  C   UNL     1      55.736   0.858  16.185  0.00  0.00    +0.000 C 
ATOM     14  O   UNL     1      55.073  -0.395  16.033  0.00  0.00    +0.000 OA
ATOM     15  C   UNL     1      54.773  -0.998  17.288  0.00  0.00    +0.000 C 
ATOM     16  C   UNL     1      53.831  -0.118  18.101  0.00  0.00    +0.000 C 
ENDBRANCH   9  11
ENDBRANCH   8   9
ENDBRANCH   5   8
ENDBRANCH   1   2
BRANCH   1  19
ATOM     17  C   UNL     1      47.013   4.157  14.693  0.00  0.00    +0.000 C 
ATOM     18  O   UNL     1      47.284   3.051  14.229  0.00  0.00    +0.000 OA
ATOM     19  N   UNL     1      46.982   4.363  16.046  0.00  0.00    +0.000 N 
ATOM     20  H   UNL     1      46.802   5.286  16.419  0.00  0.00    +0.000 HD
BRANCH  17  28
ATOM     21  C   UNL     1      44.324   5.004  12.702  0.00  0.00    +0.000 A 
ATOM     22  N   UNL     1      43.433   5.578  11.868  0.00  0.00    +0.000 NA
ATOM     23  C   UNL     1      43.757   6.744  11.303  0.00  0.00    +0.000 A 
ATOM     24  N   UNL     1      44.887   7.424  11.468  0.00  0.00    +0.000 NA
ATOM     25  C   UNL     1      45.743   6.824  12.311  0.00  0.00    +0.000 A 
ATOM     26  S   UNL     1      47.241   7.554  12.634  0.00  0.00    +0.000 S 
ATOM     27  C   UNL     1      47.682   6.292  13.680  0.00  0.00    +0.000 A 
ATOM     28  C   UNL     1      46.717   5.300  13.813  0.00  0.00    +0.000 A 
ATOM     29  C   UNL     1      45.555   5.620  12.986  0.00  0.00    +0.000 A 
BRANCH  21  31
ATOM     30  C   UNL     1      43.557   2.822  12.375  0.00  0.00    +0.000 C 
ATOM     31  O   UNL     1      43.966   3.819  13.311  0.00  0.00    +0.000 OA
ENDBRANCH  21  31
ENDBRANCH  17  28
ENDBRANCH   1  19
TORSDOF 7
ENDMDL
MODEL 7
REMARK VINA RESULT:    -6.786      2.388      3.593
REMARK INTER + INTRA:         -11.084
REMARK INTER:                 -10.352
REMARK INTRA:                  -0.731
REMARK UNBOUND:                -1.521
REMARK  Name = 
REMARK  8 active torsions:
REMARK  status: ('A' for Active; 'I' for Inactive)
REMARK    1  A    between atoms: C_1  and  O_2
REMARK    2  A    between atoms: O_2  and  C_3
REMARK    3  A    between atoms: C_10  and  C_11
REMARK    4  A    between atoms: N_13  and  C_14
REMARK    5  A    between atoms: C_14  and  C_15
REMARK    6  A    between atoms: C_18  and  C_19
REMARK    7  A    between atoms: C_19  and  N_20
REMARK    8  A    between atoms: N_20  and  C_21
REMARK                            x       y       z     vdW  Elec       q    Type
REMARK                         _______ _______ _______ _____ _____    ______ ____
ROOT
ATOM      1  C   UNL     1      46.474   4.607  14.327  0.00  0.00    +0.000 C 
ENDROOT
BRANCH   1   2
ATOM      2  C   UNL     1      45.862   4.529  12.952  0.00  0.00    +0.000 A 
ATOM      3  C   UNL     1      45.191   3.375  12.526  0.00  0.00    +0.000 A 
ATOM      4  C   UNL     1      44.691   3.280  11.220  0.00  0.00    +0.000 A 
ATOM      5  C   UNL     1      44.860   4.334  10.310  0.00  0.00    +0.000 A 
ATOM      6  C   UNL     1      45.513   5.495  10.747  0.00  0.00    +0.000 A 
ATOM      7  C   UNL     1      46.010   5.590  12.051  0.00  0.00    +0.000 A 
BRANCH   5   8
ATOM      8  C   UNL     1      44.447   4.193   8.860  0.00  0.00    +0.000 C 
BRANCH   8   9
ATOM      9  N   UNL     1      45.516   4.527   7.918  0.00  0.00    +0.000 NA
ATOM     10  H   UNL     1      46.028   5.331   8.286  0.00  0.00    +0.000 HD
BRANCH   9  11
ATOM     11  C   UNL     1      46.458   3.410   7.698  0.00  0.00    +0.000 C 
ATOM     12  C   UNL     1      46.847   3.364   6.212  0.00  0.00    +0.000 C 
ATOM     13  C   UNL     1      47.735   2.161   5.916  0.00  0.00    +0.000 C 
ATOM     14  O   UNL     1      47.107   0.947   6.323  0.00  0.00    +0.000 OA
ATOM     15  C   UNL     1      46.848   0.921   7.723  0.00  0.00    +0.000 C 
ATOM     16  C   UNL     1      45.896   2.043   8.120  0.00  0.00    +0.000 C 
ENDBRANCH   9  11
ENDBRANCH   8   9
ENDBRANCH   5   8
ENDBRANCH   1   2
BRANCH   1  19
ATOM     17  C   UNL     1      48.295   5.893  15.353  0.00  0.00    +0.000 C 
ATOM     18  O   UNL     1      48.616   4.925  16.040  0.00  0.00    +0.000 OA
ATOM     19  N   UNL     1      47.240   5.820  14.484  0.00  0.00    +0.000 N 
ATOM     20  H   UNL     1      46.954   6.635  13.956  0.00  0.00    +0.000 HD
BRANCH  17  28
ATOM     21  C   UNL     1      48.666   8.262  17.835  0.00  0.00    +0.000 A 
ATOM     22  N   UNL     1      48.988   9.320  18.608  0.00  0.00    +0.000 NA
ATOM     23  C   UNL     1      49.778  10.265  18.088  0.00  0.00    +0.000 A 
ATOM     24  N   UNL     1      50.298  10.286  16.866  0.00  0.00    +0.000 NA
ATOM     25  C   UNL     1      49.961   9.212  16.133  0.00  0.00    +0.000 A 
ATOM     26  S   UNL     1      50.535   9.079  14.541  0.00  0.00    +0.000 S 
ATOM     27  C   UNL     1      49.738   7.596  14.328  0.00  0.00    +0.000 A 
ATOM     28  C   UNL     1      49.028   7.167  15.444  0.00  0.00    +0.000 A 
ATOM     29  C   UNL     1      49.160   8.142  16.525  0.00  0.00    +0.000 A 
BRANCH  21  31
ATOM     30  C   UNL     1      47.883   7.310  19.819  0.00  0.00    +0.000 C 
ATOM     31  O   UNL     1      47.883   7.272  18.391  0.00  0.00    +0.000 OA
ENDBRANCH  21  31
ENDBRANCH  17  28
ENDBRANCH   1  19
TORSDOF 7
ENDMDL
MODEL 8
REMARK VINA RESULT:    -6.518      2.674      3.850
REMARK INTER + INTRA:         -10.707
REMARK INTER:                  -9.369
REMARK INTRA:                  -1.337
REMARK UNBOUND:                -1.521
REMARK  Name = 
REMARK  8 active torsions:
REMARK  status: ('A' for Active; 'I' for Inactive)
REMARK    1  A    between atoms: C_1  and  O_2
REMARK    2  A    between atoms: O_2  and  C_3
REMARK    3  A    between atoms: C_10  and  C_11
REMARK    4  A    between atoms: N_13  and  C_14
REMARK    5  A    between atoms: C_14  and  C_15
REMARK    6  A    between atoms: C_18  and  C_19
REMARK    7  A    between atoms: C_19  and  N_20
REMARK    8  A    between atoms: N_20  and  C_21
REMARK                            x       y       z     vdW  Elec       q    Type
REMARK                         _______ _______ _______ _____ _____    ______ ____
ROOT
ATOM      1  C   UNL     1      46.199   7.390  13.236  0.00  0.00    +0.000 C 
ENDROOT
BRANCH   1   2
ATOM      2  C   UNL     1      45.685   6.321  12.306  0.00  0.00    +0.000 A 
ATOM      3  C   UNL     1      45.151   5.126  12.805  0.00  0.00    +0.000 A 
ATOM      4  C   UNL     1      44.744   4.106  11.934  0.00  0.00    +0.000 A 
ATOM      5  C   UNL     1      44.872   4.257  10.545  0.00  0.00    +0.000 A 
ATOM      6  C   UNL     1      45.386   5.463  10.050  0.00  0.00    +0.000 A 
ATOM      7  C   UNL     1      45.790   6.481  10.919  0.00  0.00    +0.000 A 
BRANCH   5   8
ATOM      8  C   UNL     1      44.566   3.114   9.600  0.00  0.00    +0.000 C 
BRANCH   8   9
ATOM      9  N   UNL     1      44.605   3.503   8.189  0.00  0.00    +0.000 NA
ATOM     10  H   UNL     1      44.935   4.467   8.131  0.00  0.00    +0.000 HD
BRANCH   9  11
ATOM     11  C   UNL     1      45.486   2.636   7.379  0.00  0.00    +0.000 C 
ATOM     12  C   UNL     1      46.051   1.519   8.269  0.00  0.00    +0.000 C 
ATOM     13  C   UNL     1      47.051   0.661   7.501  0.00  0.00    +0.000 C 
ATOM     14  O   UNL     1      48.095   1.460   6.949  0.00  0.00    +0.000 OA
ATOM     15  C   UNL     1      47.600   2.425   6.026  0.00  0.00    +0.000 C 
ATOM     16  C   UNL     1      46.645   3.394   6.713  0.00  0.00    +0.000 C 
ENDBRANCH   9  11
ENDBRANCH   8   9
ENDBRANCH   5   8
ENDBRANCH   1   2
BRANCH   1  19
ATOM     17  C   UNL     1      48.259   8.591  12.660  0.00  0.00    +0.000 C 
ATOM     18  O   UNL     1      47.607   9.540  12.227  0.00  0.00    +0.000 OA
ATOM     19  N   UNL     1      47.637   7.485  13.171  0.00  0.00    +0.000 N 
ATOM     20  H   UNL     1      48.180   6.690  13.483  0.00  0.00    +0.000 HD
BRANCH  17  28
ATOM     21  C   UNL     1      50.689   7.877  15.005  0.00  0.00    +0.000 A 
ATOM     22  N   UNL     1      51.825   7.660  15.699  0.00  0.00    +0.000 NA
ATOM     23  C   UNL     1      52.992   7.866  15.082  0.00  0.00    +0.000 A 
ATOM     24  N   UNL     1      53.171   8.273  13.830  0.00  0.00    +0.000 NA
ATOM     25  C   UNL     1      52.018   8.470  13.171  0.00  0.00    +0.000 A 
ATOM     26  S   UNL     1      52.060   8.997  11.558  0.00  0.00    +0.000 S 
ATOM     27  C   UNL     1      50.366   9.004  11.466  0.00  0.00    +0.000 A 
ATOM     28  C   UNL     1      49.732   8.608  12.639  0.00  0.00    +0.000 A 
ATOM     29  C   UNL     1      50.726   8.293  13.662  0.00  0.00    +0.000 A 
BRANCH  21  31
ATOM     30  C   UNL     1      49.437   6.320  16.213  0.00  0.00    +0.000 C 
ATOM     31  O   UNL     1      49.489   7.625  15.636  0.00  0.00    +0.000 OA
ENDBRANCH  21  31
ENDBRANCH  17  28
ENDBRANCH   1  19
TORSDOF 7
ENDMDL
MODEL 9
REMARK VINA RESULT:    -6.312      3.055      4.269
REMARK INTER + INTRA:         -10.416
REMARK INTER:                  -9.165
REMARK INTRA:                  -1.251
REMARK UNBOUND:                -1.521
REMARK  Name = 
REMARK  8 active torsions:
REMARK  status: ('A' for Active; 'I' for Inactive)
REMARK    1  A    between atoms: C_1  and  O_2
REMARK    2  A    between atoms: O_2  and  C_3
REMARK    3  A    between atoms: C_10  and  C_11
REMARK    4  A    between atoms: N_13  and  C_14
REMARK    5  A    between atoms: C_14  and  C_15
REMARK    6  A    between atoms: C_18  and  C_19
REMARK    7  A    between atoms: C_19  and  N_20
REMARK    8  A    between atoms: N_20  and  C_21
REMARK                            x       y       z     vdW  Elec       q    Type
REMARK                         _______ _______ _______ _____ _____    ______ ____
ROOT
ATOM      1  C   UNL     1      49.597   7.814  15.551  0.00  0.00    +0.000 C 
ENDROOT
BRANCH   1   2
ATOM      2  C   UNL     1      48.866   7.366  14.311  0.00  0.00    +0.000 A 
ATOM      3  C   UNL     1      48.918   8.120  13.131  0.00  0.00    +0.000 A 
ATOM      4  C   UNL     1      48.176   7.737  12.006  0.00  0.00    +0.000 A 
ATOM      5  C   UNL     1      47.359   6.597  12.040  0.00  0.00    +0.000 A 
ATOM      6  C   UNL     1      47.327   5.834  13.216  0.00  0.00    +0.000 A 
ATOM      7  C   UNL     1      48.069   6.215  14.338  0.00  0.00    +0.000 A 
BRANCH   5   8
ATOM      8  C   UNL     1      46.448   6.249  10.881  0.00  0.00    +0.000 C 
BRANCH   8   9
ATOM      9  N   UNL     1      45.070   6.703  11.072  0.00  0.00    +0.000 NA
ATOM     10  H   UNL     1      44.769   7.181  10.221  0.00  0.00    +0.000 HD
BRANCH   9  11
ATOM     11  C   UNL     1      44.135   5.596  11.364  0.00  0.00    +0.000 C 
ATOM     12  C   UNL     1      43.883   5.536  12.878  0.00  0.00    +0.000 C 
ATOM     13  C   UNL     1      43.007   4.342  13.240  0.00  0.00    +0.000 C 
ATOM     14  O   UNL     1      43.577   3.125  12.763  0.00  0.00    +0.000 OA
ATOM     15  C   UNL     1      43.707   3.114  11.346  0.00  0.00    +0.000 C 
ATOM     16  C   UNL     1      44.636   4.227  10.876  0.00  0.00    +0.000 C 
ENDBRANCH   9  11
ENDBRANCH   8   9
ENDBRANCH   5   8
ENDBRANCH   1   2
BRANCH   1  19
ATOM     17  C   UNL     1      50.291   6.152  17.218  0.00  0.00    +0.000 C 
ATOM     18  O   UNL     1      49.337   6.448  17.936  0.00  0.00    +0.000 OA
ATOM     19  N   UNL     1      50.494   6.788  16.023  0.00  0.00    +0.000 N 
ATOM     20  H   UNL     1      51.306   6.570  15.459  0.00  0.00    +0.000 HD
BRANCH  17  28
ATOM     21  C   UNL     1      50.268   2.704  17.072  0.00  0.00    +0.000 A 
ATOM     22  N   UNL     1      50.531   1.383  17.132  0.00  0.00    +0.000 NA
ATOM     23  C   UNL     1      51.696   0.993  17.658  0.00  0.00    +0.000 A 
ATOM     24  N   UNL     1      52.653   1.775  18.145  0.00  0.00    +0.000 NA
ATOM     25  C   UNL     1      52.357   3.083  18.060  0.00  0.00    +0.000 A 
ATOM     26  S   UNL     1      53.467   4.227  18.642  0.00  0.00    +0.000 S 
ATOM     27  C   UNL     1      52.443   5.510  18.210  0.00  0.00    +0.000 A 
ATOM     28  C   UNL     1      51.250   5.110  17.619  0.00  0.00    +0.000 A 
ATOM     29  C   UNL     1      51.199   3.652  17.534  0.00  0.00    +0.000 A 
BRANCH  21  31
ATOM     30  C   UNL     1      47.982   3.043  17.401  0.00  0.00    +0.000 C 
ATOM     31  O   UNL     1      49.081   3.100  16.492  0.00  0.00    +0.000 OA
ENDBRANCH  21  31
ENDBRANCH  17  28
ENDBRANCH   1  19
TORSDOF 7
ENDMDL
