MODEL 1
REMARK VINA RESULT:    -8.341      0.000      0.000
REMARK INTER + INTRA:         -10.930
REMARK INTER:                 -10.292
REMARK INTRA:                  -0.639
REMARK UNBOUND:                -0.639
REMARK  Name = 
REMARK  4 active torsions:
REMARK  status: ('A' for Active; 'I' for Inactive)
REMARK    1  A    between atoms: C_2  and  C_5
REMARK    2  A    between atoms: N_10  and  C_11
REMARK    3  A    between atoms: C_11  and  C_12
REMARK    4  A    between atoms: C_16  and  C_17
REMARK                            x       y       z     vdW  Elec       q    Type
REMARK                         _______ _______ _______ _____ _____    ______ ____
ROOT
ATOM      1  C   UNL     1      44.628   5.826  11.291  0.00  0.00    +0.000 C 
ENDROOT
BRANCH   1   7
ATOM      2  C   UNL     1      46.053   2.990   7.874  0.00  0.00    +0.000 A 
ATOM      3  C   UNL     1      45.436   1.890   8.437  0.00  0.00    +0.000 A 
ATOM      4  C   UNL     1      44.640   2.140   9.526  0.00  0.00    +0.000 A 
ATOM      5  N   UNL     1      44.448   3.368  10.037  0.00  0.00    +0.000 NA
ATOM      6  C   UNL     1      45.067   4.390   9.434  0.00  0.00    +0.000 A 
ATOM      7  N   UNL     1      44.878   5.688   9.873  0.00  0.00    +0.000 N 
ATOM      8  N   UNL     1      45.875   4.242   8.377  0.00  0.00    +0.000 NA
ATOM      9  H   UNL     1      45.636   6.252   9.509  0.00  0.00    +0.000 HD
BRANCH   2  11
ATOM     10  F   UNL     1      46.785   1.600   6.047  0.00  0.00    +0.000 F 
ATOM     11  C   UNL     1      46.948   2.812   6.660  0.00  0.00    +0.000 C 
ATOM     12  F   UNL     1      48.276   2.888   6.960  0.00  0.00    +0.000 F 
ATOM     13  F   UNL     1      46.724   3.740   5.687  0.00  0.00    +0.000 F 
ENDBRANCH   2  11
ENDBRANCH   1   7
BRANCH   1  14
ATOM     14  C   UNL     1      45.937   6.029  12.024  0.00  0.00    +0.000 A 
ATOM     15  C   UNL     1      46.903   6.896  11.495  0.00  0.00    +0.000 A 
ATOM     16  C   UNL     1      48.101   7.113  12.170  0.00  0.00    +0.000 A 
ATOM     17  C   UNL     1      48.339   6.478  13.389  0.00  0.00    +0.000 A 
ATOM     18  C   UNL     1      47.387   5.616  13.968  0.00  0.00    +0.000 A 
ATOM     19  C   UNL     1      46.203   5.375  13.242  0.00  0.00    +0.000 A 
BRANCH  18  20
ATOM     20  C   UNL     1      47.601   5.035  15.306  0.00  0.00    +0.000 A 
ATOM     21  C   UNL     1      46.772   4.038  15.831  0.00  0.00    +0.000 A 
ATOM     22  N   UNL     1      46.945   3.472  17.052  0.00  0.00    +0.000 NA
ATOM     23  C   UNL     1      48.001   3.941  17.749  0.00  0.00    +0.000 A 
ATOM     24  C   UNL     1      48.840   4.919  17.246  0.00  0.00    +0.000 A 
ATOM     25  N   UNL     1      48.668   5.480  16.020  0.00  0.00    +0.000 NA
ENDBRANCH  18  20
ENDBRANCH   1  14
TORSDOF 4
ENDMDL
MODEL 2
REMARK VINA RESULT:    -7.423      2.343      4.117
REMARK INTER + INTRA:          -9.797
REMARK INTER:                  -9.156
REMARK INTRA:                  -0.641
REMARK UNBOUND:                -0.639
REMARK  Name = 
REMARK  4 active torsions:
REMARK  status: ('A' for Active; 'I' for Inactive)
REMARK    1  A    between atoms: C_2  and  C_5
REMARK    2  A    between atoms: N_10  and  C_11
REMARK    3  A    between atoms: C_11  and  C_12
REMARK    4  A    between atoms: C_16  and  C_17
REMARK                            x       y       z     vdW  Elec       q    Type
REMARK                         _______ _______ _______ _____ _____    ______ ____
ROOT
ATOM      1  C   UNL     1      44.900   6.046  11.301  0.00  0.00    +0.000 C 
ENDROOT
BRANCH   1   7
ATOM      2  C   UNL     1      46.068   3.089   7.889  0.00  0.00    +0.000 A 
ATOM      3  C   UNL     1      45.296   2.071   8.413  0.00  0.00    +0.000 A 
ATOM      4  C   UNL     1      44.501   2.409   9.479  0.00  0.00    +0.000 A 
ATOM      5  N   UNL     1      44.450   3.646  10.003  0.00  0.00    +0.000 NA
ATOM      6  C   UNL     1      45.216   4.587   9.437  0.00  0.00    +0.000 A 
ATOM      7  N   UNL     1      45.180   5.893   9.890  0.00  0.00    +0.000 N 
ATOM      8  N   UNL     1      46.035   4.348   8.406  0.00  0.00    +0.000 NA
ATOM      9  H   UNL     1      46.016   6.359   9.561  0.00  0.00    +0.000 HD
BRANCH   2  11
ATOM     10  F   UNL     1      46.776   3.678   5.663  0.00  0.00    +0.000 F 
ATOM     11  C   UNL     1      46.976   2.812   6.702  0.00  0.00    +0.000 C 
ATOM     12  F   UNL     1      46.798   1.568   6.173  0.00  0.00    +0.000 F 
ATOM     13  F   UNL     1      48.300   2.912   7.005  0.00  0.00    +0.000 F 
ENDBRANCH   2  11
ENDBRANCH   1   7
BRANCH   1  14
ATOM     14  C   UNL     1      46.190   6.290  12.055  0.00  0.00    +0.000 A 
ATOM     15  C   UNL     1      46.445   5.591  13.243  0.00  0.00    +0.000 A 
ATOM     16  C   UNL     1      47.637   5.786  13.934  0.00  0.00    +0.000 A 
ATOM     17  C   UNL     1      48.594   6.671  13.436  0.00  0.00    +0.000 A 
ATOM     18  C   UNL     1      48.389   7.378  12.236  0.00  0.00    +0.000 A 
ATOM     19  C   UNL     1      47.154   7.200  11.580  0.00  0.00    +0.000 A 
BRANCH  18  20
ATOM     20  C   UNL     1      49.449   8.228  11.662  0.00  0.00    +0.000 A 
ATOM     21  C   UNL     1      49.334   9.619  11.587  0.00  0.00    +0.000 A 
ATOM     22  N   UNL     1      50.294  10.433  11.077  0.00  0.00    +0.000 NA
ATOM     23  C   UNL     1      51.400   9.798  10.637  0.00  0.00    +0.000 A 
ATOM     24  C   UNL     1      51.539   8.424  10.711  0.00  0.00    +0.000 A 
ATOM     25  N   UNL     1      50.580   7.612  11.227  0.00  0.00    +0.000 NA
ENDBRANCH  18  20
ENDBRANCH   1  14
TORSDOF 4
ENDMDL
MODEL 3
REMARK VINA RESULT:    -7.363      1.761      2.557
REMARK INTER + INTRA:          -9.723
REMARK INTER:                  -9.266
REMARK INTRA:                  -0.457
REMARK UNBOUND:                -0.639
REMARK  Name = 
REMARK  4 active torsions:
REMARK  status: ('A' for Active; 'I' for Inactive)
REMARK    1  A    between atoms: C_2  and  C_5
REMARK    2  A    between atoms: N_10  and  C_11
REMARK    3  A    between atoms: C_11  and  C_12
REMARK    4  A    between atoms: C_16  and  C_17
REMARK                            x       y       z     vdW  Elec       q    Type
REMARK                         _______ _______ _______ _____ _____    ______ ____
ROOT
ATOM      1  C   UNL     1      44.589   5.786  11.270  0.00  0.00    +0.000 C 
ENDROOT
BRANCH   1   7
ATOM      2  C   UNL     1      46.076   2.995   7.842  0.00  0.00    +0.000 A 
ATOM      3  C   UNL     1      45.516   1.872   8.421  0.00  0.00    +0.000 A 
ATOM      4  C   UNL     1      44.729   2.094   9.522  0.00  0.00    +0.000 A 
ATOM      5  N   UNL     1      44.493   3.316  10.031  0.00  0.00    +0.000 NA
ATOM      6  C   UNL     1      45.057   4.360   9.412  0.00  0.00    +0.000 A 
ATOM      7  N   UNL     1      44.820   5.651   9.849  0.00  0.00    +0.000 N 
ATOM      8  N   UNL     1      45.853   4.241   8.343  0.00  0.00    +0.000 NA
ATOM      9  H   UNL     1      45.548   6.245   9.469  0.00  0.00    +0.000 HD
BRANCH   2  11
ATOM     10  F   UNL     1      46.795   3.869   5.716  0.00  0.00    +0.000 F 
ATOM     11  C   UNL     1      46.957   2.850   6.614  0.00  0.00    +0.000 C 
ATOM     12  F   UNL     1      46.710   1.708   5.910  0.00  0.00    +0.000 F 
ATOM     13  F   UNL     1      48.288   2.836   6.907  0.00  0.00    +0.000 F 
ENDBRANCH   2  11
ENDBRANCH   1   7
BRANCH   1  14
ATOM     14  C   UNL     1      45.360   6.975  11.804  0.00  0.00    +0.000 A 
ATOM     15  C   UNL     1      44.844   8.268  11.644  0.00  0.00    +0.000 A 
ATOM     16  C   UNL     1      45.528   9.369  12.150  0.00  0.00    +0.000 A 
ATOM     17  C   UNL     1      46.728   9.186  12.838  0.00  0.00    +0.000 A 
ATOM     18  C   UNL     1      47.272   7.903  13.041  0.00  0.00    +0.000 A 
ATOM     19  C   UNL     1      46.586   6.809  12.476  0.00  0.00    +0.000 A 
BRANCH  18  20
ATOM     20  C   UNL     1      48.484   7.711  13.861  0.00  0.00    +0.000 A 
ATOM     21  C   UNL     1      48.585   6.701  14.822  0.00  0.00    +0.000 A 
ATOM     22  N   UNL     1      49.687   6.488  15.585  0.00  0.00    +0.000 NA
ATOM     23  C   UNL     1      50.711   7.333  15.350  0.00  0.00    +0.000 A 
ATOM     24  C   UNL     1      50.637   8.334  14.397  0.00  0.00    +0.000 A 
ATOM     25  N   UNL     1      49.535   8.541  13.630  0.00  0.00    +0.000 NA
ENDBRANCH  18  20
ENDBRANCH   1  14
TORSDOF 4
ENDMDL
MODEL 4
REMARK VINA RESULT:    -7.090      4.134      8.195
REMARK INTER + INTRA:          -9.387
REMARK INTER:                  -8.978
REMARK INTRA:                  -0.409
REMARK UNBOUND:                -0.639
REMARK  Name = 
REMARK  4 active torsions:
REMARK  status: ('A' for Active; 'I' for Inactive)
REMARK    1  A    between atoms: C_2  and  C_5
REMARK    2  A    between atoms: N_10  and  C_11
REMARK    3  A    between atoms: C_11  and  C_12
REMARK    4  A    between atoms: C_16  and  C_17
REMARK                            x       y       z     vdW  Elec       q    Type
REMARK                         _______ _______ _______ _____ _____    ______ ____
ROOT
ATOM      1  C   UNL     1      45.969   4.838  14.190  0.00  0.00    +0.000 C 
ENDROOT
BRANCH   1   7
ATOM      2  C   UNL     1      49.075   2.762  16.981  0.00  0.00    +0.000 A 
ATOM      3  C   UNL     1      48.466   3.237  18.126  0.00  0.00    +0.000 A 
ATOM      4  C   UNL     1      47.271   3.886  17.945  0.00  0.00    +0.000 A 
ATOM      5  N   UNL     1      46.698   4.063  16.742  0.00  0.00    +0.000 NA
ATOM      6  C   UNL     1      47.337   3.565  15.676  0.00  0.00    +0.000 A 
ATOM      7  N   UNL     1      46.785   3.666  14.412  0.00  0.00    +0.000 N 
ATOM      8  N   UNL     1      48.514   2.933  15.752  0.00  0.00    +0.000 NA
ATOM      9  H   UNL     1      47.527   3.519  13.737  0.00  0.00    +0.000 HD
BRANCH   2  11
ATOM     10  F   UNL     1      51.457   2.855  17.324  0.00  0.00    +0.000 F 
ATOM     11  C   UNL     1      50.398   2.023  17.082  0.00  0.00    +0.000 C 
ATOM     12  F   UNL     1      50.723   1.350  15.942  0.00  0.00    +0.000 F 
ATOM     13  F   UNL     1      50.425   1.105  18.088  0.00  0.00    +0.000 F 
ENDBRANCH   2  11
ENDBRANCH   1   7
BRANCH   1  14
ATOM     14  C   UNL     1      45.088   4.627  12.976  0.00  0.00    +0.000 A 
ATOM     15  C   UNL     1      43.737   4.998  13.022  0.00  0.00    +0.000 A 
ATOM     16  C   UNL     1      42.921   4.833  11.907  0.00  0.00    +0.000 A 
ATOM     17  C   UNL     1      43.452   4.310  10.728  0.00  0.00    +0.000 A 
ATOM     18  C   UNL     1      44.809   3.944  10.629  0.00  0.00    +0.000 A 
ATOM     19  C   UNL     1      45.602   4.075  11.787  0.00  0.00    +0.000 A 
BRANCH  18  20
ATOM     20  C   UNL     1      45.385   3.494   9.348  0.00  0.00    +0.000 A 
ATOM     21  C   UNL     1      45.809   4.390   8.362  0.00  0.00    +0.000 A 
ATOM     22  N   UNL     1      46.354   4.012   7.178  0.00  0.00    +0.000 NA
ATOM     23  C   UNL     1      46.469   2.679   7.007  0.00  0.00    +0.000 A 
ATOM     24  C   UNL     1      46.065   1.774   7.973  0.00  0.00    +0.000 A 
ATOM     25  N   UNL     1      45.525   2.155   9.160  0.00  0.00    +0.000 NA
ENDBRANCH  18  20
ENDBRANCH   1  14
TORSDOF 4
ENDMDL
MODEL 5
REMARK VINA RESULT:    -7.015      1.239      1.853
REMARK INTER + INTRA:          -9.295
REMARK INTER:                  -8.714
REMARK INTRA:                  -0.581
REMARK UNBOUND:                -0.639
REMARK  Name = 
REMARK  4 active torsions:
REMARK  status: ('A' for Active; 'I' for Inactive)
REMARK    1  A    between atoms: C_2  and  C_5
REMARK    2  A    between atoms: N_10  and  C_11
REMARK    3  A    between atoms: C_11  and  C_12
REMARK    4  A    between atoms: C_16  and  C_17
REMARK                            x       y       z     vdW  Elec       q    Type
REMARK                         _______ _______ _______ _____ _____    ______ ____
ROOT
ATOM      1  C   UNL     1      45.166   6.630  12.026  0.00  0.00    +0.000 C 
ENDROOT
BRANCH   1   7
ATOM      2  C   UNL     1      45.533   3.421   8.661  0.00  0.00    +0.000 A 
ATOM      3  C   UNL     1      44.817   2.485   9.381  0.00  0.00    +0.000 A 
ATOM      4  C   UNL     1      44.250   2.932  10.548  0.00  0.00    +0.000 A 
ATOM      5  N   UNL     1      44.361   4.196  10.990  0.00  0.00    +0.000 NA
ATOM      6  C   UNL     1      45.059   5.053  10.235  0.00  0.00    +0.000 A 
ATOM      7  N   UNL     1      45.175   6.383  10.601  0.00  0.00    +0.000 N 
ATOM      8  N   UNL     1      45.662   4.707   9.092  0.00  0.00    +0.000 NA
ATOM      9  H   UNL     1      45.961   6.775  10.097  0.00  0.00    +0.000 HD
BRANCH   2  11
ATOM     10  F   UNL     1      47.134   3.922   6.931  0.00  0.00    +0.000 F 
ATOM     11  C   UNL     1      46.193   3.022   7.353  0.00  0.00    +0.000 C 
ATOM     12  F   UNL     1      45.309   2.915   6.320  0.00  0.00    +0.000 F 
ATOM     13  F   UNL     1      46.844   1.827   7.422  0.00  0.00    +0.000 F 
ENDBRANCH   2  11
ENDBRANCH   1   7
BRANCH   1  14
ATOM     14  C   UNL     1      46.588   6.775  12.529  0.00  0.00    +0.000 A 
ATOM     15  C   UNL     1      47.556   7.379  11.715  0.00  0.00    +0.000 A 
ATOM     16  C   UNL     1      48.860   7.542  12.173  0.00  0.00    +0.000 A 
ATOM     17  C   UNL     1      49.206   7.118  13.456  0.00  0.00    +0.000 A 
ATOM     18  C   UNL     1      48.260   6.527  14.316  0.00  0.00    +0.000 A 
ATOM     19  C   UNL     1      46.958   6.328  13.811  0.00  0.00    +0.000 A 
BRANCH  18  20
ATOM     20  C   UNL     1      48.607   6.180  15.707  0.00  0.00    +0.000 A 
ATOM     21  C   UNL     1      49.095   7.125  16.614  0.00  0.00    +0.000 A 
ATOM     22  N   UNL     1      49.414   6.845  17.903  0.00  0.00    +0.000 NA
ATOM     23  C   UNL     1      49.222   5.561  18.268  0.00  0.00    +0.000 A 
ATOM     24  C   UNL     1      48.730   4.611  17.390  0.00  0.00    +0.000 A 
ATOM     25  N   UNL     1      48.406   4.895  16.102  0.00  0.00    +0.000 NA
ENDBRANCH  18  20
ENDBRANCH   1  14
TORSDOF 4
ENDMDL
MODEL 6
REMARK VINA RESULT:    -6.309      4.374      8.219
REMARK INTER + INTRA:          -8.423
REMARK INTER:                  -8.020
REMARK INTRA:                  -0.403
REMARK UNBOUND:                -0.639
REMARK  Name = 
REMARK  4 active torsions:
REMARK  status: ('A' for Active; 'I' for Inactive)
REMARK    1  A    between atoms: C_2  and  C_5
REMARK    2  A    between atoms: N_10  and  C_11
REMARK    3  A    between atoms: C_11  and  C_12
REMARK    4  A    between atoms: C_16  and  C_17
REMARK                            x       y       z     vdW  Elec       q    Type
REMARK                         _______ _______ _______ _____ _____    ______ ____
ROOT
ATOM      1  C   UNL     1      48.164   7.586  13.738  0.00  0.00    +0.000 C 
ENDROOT
BRANCH   1   7
ATOM      2  C   UNL     1      50.247   5.049  17.051  0.00  0.00    +0.000 A 
ATOM      3  C   UNL     1      51.366   5.858  17.063  0.00  0.00    +0.000 A 
ATOM      4  C   UNL     1      51.290   6.999  16.304  0.00  0.00    +0.000 A 
ATOM      5  N   UNL     1      50.207   7.340  15.585  0.00  0.00    +0.000 NA
ATOM      6  C   UNL     1      49.153   6.515  15.630  0.00  0.00    +0.000 A 
ATOM      7  N   UNL     1      47.986   6.825  14.955  0.00  0.00    +0.000 N 
ATOM      8  N   UNL     1      49.140   5.373  16.327  0.00  0.00    +0.000 NA
ATOM      9  H   UNL     1      47.448   5.972  14.859  0.00  0.00    +0.000 HD
BRANCH   2  11
ATOM     10  F   UNL     1      50.551   2.661  17.127  0.00  0.00    +0.000 F 
ATOM     11  C   UNL     1      50.235   3.767  17.866  0.00  0.00    +0.000 C 
ATOM     12  F   UNL     1      49.018   3.497  18.418  0.00  0.00    +0.000 F 
ATOM     13  F   UNL     1      51.127   3.778  18.896  0.00  0.00    +0.000 F 
ENDBRANCH   2  11
ENDBRANCH   1   7
BRANCH   1  14
ATOM     14  C   UNL     1      46.900   7.522  12.905  0.00  0.00    +0.000 A 
ATOM     15  C   UNL     1      46.071   8.648  12.813  0.00  0.00    +0.000 A 
ATOM     16  C   UNL     1      44.919   8.613  12.031  0.00  0.00    +0.000 A 
ATOM     17  C   UNL     1      44.595   7.457  11.321  0.00  0.00    +0.000 A 
ATOM     18  C   UNL     1      45.412   6.311  11.368  0.00  0.00    +0.000 A 
ATOM     19  C   UNL     1      46.546   6.354  12.204  0.00  0.00    +0.000 A 
BRANCH  18  20
ATOM     20  C   UNL     1      45.119   5.132  10.530  0.00  0.00    +0.000 A 
ATOM     21  C   UNL     1      44.287   4.095  10.963  0.00  0.00    +0.000 A 
ATOM     22  N   UNL     1      43.986   3.002  10.215  0.00  0.00    +0.000 NA
ATOM     23  C   UNL     1      44.552   2.980   8.991  0.00  0.00    +0.000 A 
ATOM     24  C   UNL     1      45.370   4.000   8.539  0.00  0.00    +0.000 A 
ATOM     25  N   UNL     1      45.665   5.095   9.286  0.00  0.00    +0.000 NA
ENDBRANCH  18  20
ENDBRANCH   1  14
TORSDOF 4
ENDMDL
MODEL 7
REMARK VINA RESULT:    -6.272      3.400      5.540
REMARK INTER + INTRA:          -8.377
REMARK INTER:                  -7.902
REMARK INTRA:                  -0.476
REMARK UNBOUND:                -0.639
REMARK  Name = 
REMARK  4 active torsions:
REMARK  status: ('A' for Active; 'I' for Inactive)
REMARK    1  A    between atoms: C_2  and  C_5
REMARK    2  A    between atoms: N_10  and  C_11
REMARK    3  A    between atoms: C_11  and  C_12
REMARK    4  A    between atoms: C_16  and  C_17
REMARK                            x       y       z     vdW  Elec       q    Type
REMARK                         _______ _______ _______ _____ _____    ______ ____
ROOT
ATOM      1  C   UNL     1      47.241   4.302  15.966  0.00  0.00    +0.000 C 
ENDROOT
BRANCH   1   7
ATOM      2  C   UNL     1      45.239   4.022  11.763  0.00  0.00    +0.000 A 
ATOM      3  C   UNL     1      45.586   5.319  11.436  0.00  0.00    +0.000 A 
ATOM      4  C   UNL     1      46.408   5.962  12.325  0.00  0.00    +0.000 A 
ATOM      5  N   UNL     1      46.869   5.395  13.453  0.00  0.00    +0.000 NA
ATOM      6  C   UNL     1      46.504   4.131  13.701  0.00  0.00    +0.000 A 
ATOM      7  N   UNL     1      46.978   3.465  14.817  0.00  0.00    +0.000 N 
ATOM      8  N   UNL     1      45.692   3.429  12.901  0.00  0.00    +0.000 NA
ATOM      9  H   UNL     1      46.371   2.672  14.986  0.00  0.00    +0.000 HD
BRANCH   2  11
ATOM     10  F   UNL     1      43.440   2.441  11.506  0.00  0.00    +0.000 F 
ATOM     11  C   UNL     1      44.337   3.227  10.835  0.00  0.00    +0.000 C 
ATOM     12  F   UNL     1      45.025   2.375  10.023  0.00  0.00    +0.000 F 
ATOM     13  F   UNL     1      43.585   4.012  10.015  0.00  0.00    +0.000 F 
ENDBRANCH   2  11
ENDBRANCH   1   7
BRANCH   1  14
ATOM     14  C   UNL     1      48.555   3.900  16.602  0.00  0.00    +0.000 A 
ATOM     15  C   UNL     1      48.926   2.549  16.639  0.00  0.00    +0.000 A 
ATOM     16  C   UNL     1      50.141   2.166  17.199  0.00  0.00    +0.000 A 
ATOM     17  C   UNL     1      51.007   3.133  17.712  0.00  0.00    +0.000 A 
ATOM     18  C   UNL     1      50.685   4.503  17.676  0.00  0.00    +0.000 A 
ATOM     19  C   UNL     1      49.427   4.861  17.149  0.00  0.00    +0.000 A 
BRANCH  18  20
ATOM     20  C   UNL     1      51.651   5.525  18.122  0.00  0.00    +0.000 A 
ATOM     21  C   UNL     1      52.954   5.202  18.514  0.00  0.00    +0.000 A 
ATOM     22  N   UNL     1      53.872   6.115  18.919  0.00  0.00    +0.000 NA
ATOM     23  C   UNL     1      53.440   7.393  18.917  0.00  0.00    +0.000 A 
ATOM     24  C   UNL     1      52.158   7.736  18.523  0.00  0.00    +0.000 A 
ATOM     25  N   UNL     1      51.242   6.821  18.113  0.00  0.00    +0.000 NA
ENDBRANCH  18  20
ENDBRANCH   1  14
TORSDOF 4
ENDMDL
MODEL 8
REMARK VINA RESULT:    -6.186      2.757      3.820
REMARK INTER + INTRA:          -8.271
REMARK INTER:                  -7.628
REMARK INTRA:                  -0.643
REMARK UNBOUND:                -0.639
REMARK  Name = 
REMARK  4 active torsions:
REMARK  status: ('A' for Active; 'I' for Inactive)
REMARK    1  A    between atoms: C_2  and  C_5
REMARK    2  A    between atoms: N_10  and  C_11
REMARK    3  A    between atoms: C_11  and  C_12
REMARK    4  A    between atoms: C_16  and  C_17
REMARK                            x       y       z     vdW  Elec       q    Type
REMARK                         _______ _______ _______ _____ _____    ______ ____
ROOT
ATOM      1  C   UNL     1      47.460   8.080  12.401  0.00  0.00    +0.000 C 
ENDROOT
BRANCH   1   7
ATOM      2  C   UNL     1      44.377   4.768  11.272  0.00  0.00    +0.000 A 
ATOM      3  C   UNL     1      43.341   5.674  11.160  0.00  0.00    +0.000 A 
ATOM      4  C   UNL     1      43.689   6.997  11.257  0.00  0.00    +0.000 A 
ATOM      5  N   UNL     1      44.951   7.421  11.445  0.00  0.00    +0.000 NA
ATOM      6  C   UNL     1      45.907   6.488  11.532  0.00  0.00    +0.000 A 
ATOM      7  N   UNL     1      47.234   6.849  11.676  0.00  0.00    +0.000 N 
ATOM      8  N   UNL     1      45.662   5.174  11.466  0.00  0.00    +0.000 NA
ATOM      9  H   UNL     1      47.739   6.042  12.022  0.00  0.00    +0.000 HD
BRANCH   2  11
ATOM     10  F   UNL     1      45.135   2.504  11.594  0.00  0.00    +0.000 F 
ATOM     11  C   UNL     1      44.090   3.279  11.171  0.00  0.00    +0.000 C 
ATOM     12  F   UNL     1      43.831   2.870   9.897  0.00  0.00    +0.000 F 
ATOM     13  F   UNL     1      43.024   2.886  11.922  0.00  0.00    +0.000 F 
ENDBRANCH   2  11
ENDBRANCH   1   7
BRANCH   1  14
ATOM     14  C   UNL     1      48.198   7.786  13.691  0.00  0.00    +0.000 A 
ATOM     15  C   UNL     1      49.036   8.760  14.250  0.00  0.00    +0.000 A 
ATOM     16  C   UNL     1      49.702   8.515  15.448  0.00  0.00    +0.000 A 
ATOM     17  C   UNL     1      49.524   7.298  16.107  0.00  0.00    +0.000 A 
ATOM     18  C   UNL     1      48.674   6.300  15.592  0.00  0.00    +0.000 A 
ATOM     19  C   UNL     1      48.049   6.553  14.354  0.00  0.00    +0.000 A 
BRANCH  18  20
ATOM     20  C   UNL     1      48.408   5.062  16.349  0.00  0.00    +0.000 A 
ATOM     21  C   UNL     1      47.132   4.496  16.434  0.00  0.00    +0.000 A 
ATOM     22  N   UNL     1      46.854   3.353  17.111  0.00  0.00    +0.000 NA
ATOM     23  C   UNL     1      47.915   2.776  17.711  0.00  0.00    +0.000 A 
ATOM     24  C   UNL     1      49.188   3.313  17.632  0.00  0.00    +0.000 A 
ATOM     25  N   UNL     1      49.466   4.454  16.949  0.00  0.00    +0.000 NA
ENDBRANCH  18  20
ENDBRANCH   1  14
TORSDOF 4
ENDMDL
MODEL 9
REMARK VINA RESULT:    -6.048      4.642      7.844
REMARK INTER + INTRA:          -8.101
REMARK INTER:                  -7.406
REMARK INTRA:                  -0.695
REMARK UNBOUND:                -0.639
REMARK  Name = 
REMARK  4 active torsions:
REMARK  status: ('A' for Active; 'I' for Inactive)
REMARK    1  A    between atoms: C_2  and  C_5
REMARK    2  A    between atoms: N_10  and  C_11
REMARK    3  A    between atoms: C_11  and  C_12
REMARK    4  A    between atoms: C_16  and  C_17
REMARK                            x       y       z     vdW  Elec       q    Type
REMARK                         _______ _______ _______ _____ _____    ______ ____
ROOT
ATOM      1  C   UNL     1      48.811   8.370  15.235  0.00  0.00    +0.000 C 
ENDROOT
BRANCH   1   7
ATOM      2  C   UNL     1      49.294   4.321  17.499  0.00  0.00    +0.000 A 
ATOM      3  C   UNL     1      50.671   4.425  17.532  0.00  0.00    +0.000 A 
ATOM      4  C   UNL     1      51.193   5.612  17.085  0.00  0.00    +0.000 A 
ATOM      5  N   UNL     1      50.441   6.633  16.639  0.00  0.00    +0.000 NA
ATOM      6  C   UNL     1      49.112   6.468  16.647  0.00  0.00    +0.000 A 
ATOM      7  N   UNL     1      48.272   7.492  16.250  0.00  0.00    +0.000 N 
ATOM      8  N   UNL     1      48.512   5.341  17.049  0.00  0.00    +0.000 NA
ATOM      9  H   UNL     1      47.368   7.086  16.038  0.00  0.00    +0.000 HD
BRANCH   2  11
ATOM     10  F   UNL     1      47.361   2.884  17.479  0.00  0.00    +0.000 F 
ATOM     11  C   UNL     1      48.623   3.046  17.980  0.00  0.00    +0.000 C 
ATOM     12  F   UNL     1      48.482   2.995  19.335  0.00  0.00    +0.000 F 
ATOM     13  F   UNL     1      49.299   1.917  17.625  0.00  0.00    +0.000 F 
ENDBRANCH   2  11
ENDBRANCH   1   7
BRANCH   1  14
ATOM     14  C   UNL     1      48.375   7.896  13.864  0.00  0.00    +0.000 A 
ATOM     15  C   UNL     1      49.145   8.220  12.739  0.00  0.00    +0.000 A 
ATOM     16  C   UNL     1      48.771   7.771  11.475  0.00  0.00    +0.000 A 
ATOM     17  C   UNL     1      47.633   6.979  11.327  0.00  0.00    +0.000 A 
ATOM     18  C   UNL     1      46.843   6.610  12.433  0.00  0.00    +0.000 A 
ATOM     19  C   UNL     1      47.214   7.118  13.695  0.00  0.00    +0.000 A 
BRANCH  18  20
ATOM     20  C   UNL     1      45.704   5.685  12.281  0.00  0.00    +0.000 A 
ATOM     21  C   UNL     1      45.308   4.812  13.299  0.00  0.00    +0.000 A 
ATOM     22  N   UNL     1      44.259   3.956  13.198  0.00  0.00    +0.000 NA
ATOM     23  C   UNL     1      43.600   4.003  12.022  0.00  0.00    +0.000 A 
ATOM     24  C   UNL     1      43.968   4.866  11.005  0.00  0.00    +0.000 A 
ATOM     25  N   UNL     1      45.015   5.726  11.110  0.00  0.00    +0.000 NA
ENDBRANCH  18  20
ENDBRANCH   1  14
TORSDOF 4
ENDMDL
