MODEL 1
REMARK VINA RESULT:    -9.161      0.000      0.000
REMARK INTER + INTRA:         -13.202
REMARK INTER:                 -12.375
REMARK INTRA:                  -0.827
REMARK UNBOUND:                -0.827
REMARK  Name = 
REMARK  6 active torsions:
REMARK  status: ('A' for Active; 'I' for Inactive)
REMARK    1  A    between atoms: C_2  and  C_4
REMARK    2  A    between atoms: N_8  and  C_9
REMARK    3  A    between atoms: C_9  and  C_10
REMARK    4  A    between atoms: C_10  and  C_13
REMARK    5  A    between atoms: C_15  and  O_16
REMARK    6  A    between atoms: O_16  and  C_17
REMARK                            x       y       z     vdW  Elec       q    Type
REMARK                         _______ _______ _______ _____ _____    ______ ____
ROOT
ATOM      1  C   UNL     1      43.494   4.784  12.562  0.00  0.00    +0.000 C 
ATOM      2  F   UNL     1      42.586   5.710  13.008  0.00  0.00    +0.000 F 
ATOM      3  F   UNL     1      43.163   3.641  13.231  0.00  0.00    +0.000 F 
ENDROOT
BRANCH   1   4
ATOM      4  C   UNL     1      44.917   5.246  12.818  0.00  0.00    +0.000 A 
ATOM      5  C   UNL     1      45.755   4.427  13.602  0.00  0.00    +0.000 A 
ATOM      6  C   UNL     1      47.073   4.790  13.892  0.00  0.00    +0.000 A 
ATOM      7  C   UNL     1      47.576   5.992  13.416  0.00  0.00    +0.000 A 
ATOM      8  C   UNL     1      46.760   6.822  12.641  0.00  0.00    +0.000 A 
ATOM      9  C   UNL     1      45.440   6.456  12.345  0.00  0.00    +0.000 A 
ATOM     10 CL   UNL     1      44.508   7.574  11.418  0.00  0.00    +0.000 Cl
BRANCH   6  11
ATOM     11  O   UNL     1      47.764   3.909  14.681  0.00  0.00    +0.000 OA
BRANCH  11  12
ATOM     12  C   UNL     1      47.464   3.857  16.095  0.00  0.00    +0.000 C 
ATOM     13  C   UNL     1      48.050   4.950  17.000  0.00  0.00    +0.000 C 
ATOM     14  O   UNL     1      48.721   3.976  17.833  0.00  0.00    +0.000 OA
ATOM     15  C   UNL     1      48.354   2.917  16.919  0.00  0.00    +0.000 C 
ENDBRANCH  11  12
ENDBRANCH   6  11
ENDBRANCH   1   4
BRANCH   1  16
ATOM     16  C   UNL     1      43.246   4.571  11.044  0.00  0.00    +0.000 C 
BRANCH  16  21
ATOM     17  C   UNL     1      46.495   2.699   7.501  0.00  0.00    +0.000 A 
ATOM     18  C   UNL     1      46.013   3.988   7.708  0.00  0.00    +0.000 A 
ATOM     19  C   UNL     1      45.087   4.212   8.727  0.00  0.00    +0.000 A 
ATOM     20  C   UNL     1      44.662   3.156   9.527  0.00  0.00    +0.000 A 
ATOM     21  N   UNL     1      43.756   3.297  10.542  0.00  0.00    +0.000 N 
ATOM     22  N   UNL     1      45.114   1.903   9.323  0.00  0.00    +0.000 NA
ATOM     23  C   UNL     1      46.004   1.694   8.315  0.00  0.00    +0.000 A 
ATOM     24  H   UNL     1      43.601   2.448  11.079  0.00  0.00    +0.000 HD
BRANCH  17  26
ATOM     25  N   UNL     1      47.489   3.161   5.336  0.00  0.00    +0.000 N 
ATOM     26  C   UNL     1      47.482   2.371   6.453  0.00  0.00    +0.000 C 
ATOM     27  O   UNL     1      48.283   1.456   6.587  0.00  0.00    +0.000 OA
ATOM     28  H   UNL     1      48.239   2.997   4.675  0.00  0.00    +0.000 HD
ATOM     29  H   UNL     1      47.030   4.060   5.303  0.00  0.00    +0.000 HD
ENDBRANCH  17  26
ENDBRANCH  16  21
ENDBRANCH   1  16
TORSDOF 6
ENDMDL
MODEL 2
REMARK VINA RESULT:    -8.189      3.019      4.533
REMARK INTER + INTRA:         -11.888
REMARK INTER:                 -11.240
REMARK INTRA:                  -0.648
REMARK UNBOUND:                -0.827
REMARK  Name = 
REMARK  6 active torsions:
REMARK  status: ('A' for Active; 'I' for Inactive)
REMARK    1  A    between atoms: C_2  and  C_4
REMARK    2  A    between atoms: N_8  and  C_9
REMARK    3  A    between atoms: C_9  and  C_10
REMARK    4  A    between atoms: C_10  and  C_13
REMARK    5  A    between atoms: C_15  and  O_16
REMARK    6  A    between atoms: O_16  and  C_17
REMARK                            x       y       z     vdW  Elec       q    Type
REMARK                         _______ _______ _______ _____ _____    ______ ____
ROOT
ATOM      1  C   UNL     1      43.842   5.022  12.531  0.00  0.00    +0.000 C 
ATOM      2  F   UNL     1      42.788   5.515  13.256  0.00  0.00    +0.000 F 
ATOM      3  F   UNL     1      44.122   3.823  13.119  0.00  0.00    +0.000 F 
ENDROOT
BRANCH   1   4
ATOM      4  C   UNL     1      45.012   5.990  12.540  0.00  0.00    +0.000 A 
ATOM      5  C   UNL     1      44.794   7.306  12.083  0.00  0.00    +0.000 A 
ATOM      6  C   UNL     1      45.824   8.250  12.050  0.00  0.00    +0.000 A 
ATOM      7  C   UNL     1      47.100   7.891  12.458  0.00  0.00    +0.000 A 
ATOM      8  C   UNL     1      47.339   6.590  12.909  0.00  0.00    +0.000 A 
ATOM      9  C   UNL     1      46.306   5.644  12.948  0.00  0.00    +0.000 A 
ATOM     10 CL   UNL     1      46.720   4.055  13.482  0.00  0.00    +0.000 Cl
BRANCH   6  11
ATOM     11  O   UNL     1      45.474   9.482  11.563  0.00  0.00    +0.000 OA
BRANCH  11  12
ATOM     12  C   UNL     1      44.081   9.750  11.281  0.00  0.00    +0.000 C 
ATOM     13  C   UNL     1      43.686  10.085   9.836  0.00  0.00    +0.000 C 
ATOM     14  O   UNL     1      43.114  11.353  10.229  0.00  0.00    +0.000 OA
ATOM     15  C   UNL     1      43.617  11.184  11.574  0.00  0.00    +0.000 C 
ENDBRANCH  11  12
ENDBRANCH   6  11
ENDBRANCH   1   4
BRANCH   1  16
ATOM     16  C   UNL     1      43.344   4.771  11.082  0.00  0.00    +0.000 C 
BRANCH  16  21
ATOM     17  C   UNL     1      46.497   2.745   7.538  0.00  0.00    +0.000 A 
ATOM     18  C   UNL     1      46.128   4.063   7.784  0.00  0.00    +0.000 A 
ATOM     19  C   UNL     1      45.202   4.333   8.792  0.00  0.00    +0.000 A 
ATOM     20  C   UNL     1      44.664   3.290   9.541  0.00  0.00    +0.000 A 
ATOM     21  N   UNL     1      43.750   3.475  10.541  0.00  0.00    +0.000 N 
ATOM     22  N   UNL     1      45.007   2.010   9.298  0.00  0.00    +0.000 NA
ATOM     23  C   UNL     1      45.898   1.759   8.301  0.00  0.00    +0.000 A 
ATOM     24  H   UNL     1      43.506   2.625  11.042  0.00  0.00    +0.000 HD
BRANCH  17  26
ATOM     25  N   UNL     1      47.430   3.060   5.319  0.00  0.00    +0.000 N 
ATOM     26  C   UNL     1      47.477   2.368   6.498  0.00  0.00    +0.000 C 
ATOM     27  O   UNL     1      48.316   1.499   6.690  0.00  0.00    +0.000 OA
ATOM     28  H   UNL     1      48.172   2.871   4.657  0.00  0.00    +0.000 HD
ATOM     29  H   UNL     1      46.933   3.935   5.222  0.00  0.00    +0.000 HD
ENDBRANCH  17  26
ENDBRANCH  16  21
ENDBRANCH   1  16
TORSDOF 6
ENDMDL
MODEL 3
REMARK VINA RESULT:    -7.769      2.293      3.276
REMARK INTER + INTRA:         -11.322
REMARK INTER:                 -11.080
REMARK INTRA:                  -0.242
REMARK UNBOUND:                -0.827
REMARK  Name = 
REMARK  6 active torsions:
REMARK  status: ('A' for Active; 'I' for Inactive)
REMARK    1  A    between atoms: C_2  and  C_4
REMARK    2  A    between atoms: N_8  and  C_9
REMARK    3  A    between atoms: C_9  and  C_10
REMARK    4  A    between atoms: C_10  and  C_13
REMARK    5  A    between atoms: C_15  and  O_16
REMARK    6  A    between atoms: O_16  and  C_17
REMARK                            x       y       z     vdW  Elec       q    Type
REMARK                         _______ _______ _______ _____ _____    ______ ____
ROOT
ATOM      1  C   UNL     1      43.549   5.963  11.899  0.00  0.00    +0.000 C 
ATOM      2  F   UNL     1      43.457   7.269  11.493  0.00  0.00    +0.000 F 
ATOM      3  F   UNL     1      42.432   5.769  12.658  0.00  0.00    +0.000 F 
ENDROOT
BRANCH   1   4
ATOM      4  C   UNL     1      44.843   5.715  12.653  0.00  0.00    +0.000 A 
ATOM      5  C   UNL     1      45.635   6.828  13.006  0.00  0.00    +0.000 A 
ATOM      6  C   UNL     1      46.845   6.679  13.689  0.00  0.00    +0.000 A 
ATOM      7  C   UNL     1      47.298   5.410  14.018  0.00  0.00    +0.000 A 
ATOM      8  C   UNL     1      46.532   4.293  13.672  0.00  0.00    +0.000 A 
ATOM      9  C   UNL     1      45.316   4.441  12.992  0.00  0.00    +0.000 A 
ATOM     10 CL   UNL     1      44.472   2.994  12.574  0.00  0.00    +0.000 Cl
BRANCH   6  11
ATOM     11  O   UNL     1      47.518   7.844  13.950  0.00  0.00    +0.000 OA
BRANCH  11  12
ATOM     12  C   UNL     1      48.701   8.152  13.177  0.00  0.00    +0.000 C 
ATOM     13  C   UNL     1      48.519   8.833  11.813  0.00  0.00    +0.000 C 
ATOM     14  O   UNL     1      49.216   7.767  11.128  0.00  0.00    +0.000 OA
ATOM     15  C   UNL     1      49.261   6.990  12.346  0.00  0.00    +0.000 C 
ENDBRANCH  11  12
ENDBRANCH   6  11
ENDBRANCH   1   4
BRANCH   1  16
ATOM     16  C   UNL     1      43.464   5.066  10.635  0.00  0.00    +0.000 C 
BRANCH  16  21
ATOM     17  C   UNL     1      46.570   2.380   7.513  0.00  0.00    +0.000 A 
ATOM     18  C   UNL     1      45.659   1.959   8.476  0.00  0.00    +0.000 A 
ATOM     19  C   UNL     1      44.974   2.915   9.227  0.00  0.00    +0.000 A 
ATOM     20  C   UNL     1      45.200   4.270   9.004  0.00  0.00    +0.000 A 
ATOM     21  N   UNL     1      44.570   5.263   9.702  0.00  0.00    +0.000 N 
ATOM     22  N   UNL     1      46.092   4.684   8.083  0.00  0.00    +0.000 NA
ATOM     23  C   UNL     1      46.766   3.742   7.369  0.00  0.00    +0.000 A 
ATOM     24  H   UNL     1      44.789   6.201   9.375  0.00  0.00    +0.000 HD
BRANCH  17  26
ATOM     25  N   UNL     1      48.316   1.970   5.878  0.00  0.00    +0.000 N 
ATOM     26  C   UNL     1      47.333   1.440   6.667  0.00  0.00    +0.000 C 
ATOM     27  O   UNL     1      47.122   0.235   6.692  0.00  0.00    +0.000 OA
ATOM     28  H   UNL     1      48.904   1.308   5.387  0.00  0.00    +0.000 HD
ATOM     29  H   UNL     1      48.683   2.901   6.019  0.00  0.00    +0.000 HD
ENDBRANCH  17  26
ENDBRANCH  16  21
ENDBRANCH   1  16
TORSDOF 6
ENDMDL
MODEL 4
REMARK VINA RESULT:    -7.752      2.840      7.872
REMARK INTER + INTRA:         -11.298
REMARK INTER:                 -11.074
REMARK INTRA:                  -0.224
REMARK UNBOUND:                -0.827
REMARK  Name = 
REMARK  6 active torsions:
REMARK  status: ('A' for Active; 'I' for Inactive)
REMARK    1  A    between atoms: C_2  and  C_4
REMARK    2  A    between atoms: N_8  and  C_9
REMARK    3  A    between atoms: C_9  and  C_10
REMARK    4  A    between atoms: C_10  and  C_13
REMARK    5  A    between atoms: C_15  and  O_16
REMARK    6  A    between atoms: O_16  and  C_17
REMARK                            x       y       z     vdW  Elec       q    Type
REMARK                         _______ _______ _______ _____ _____    ______ ____
ROOT
ATOM      1  C   UNL     1      45.154   6.097  11.495  0.00  0.00    +0.000 C 
ATOM      2  F   UNL     1      44.113   6.207  12.379  0.00  0.00    +0.000 F 
ATOM      3  F   UNL     1      45.114   7.261  10.783  0.00  0.00    +0.000 F 
ENDROOT
BRANCH   1   4
ATOM      4  C   UNL     1      45.012   4.855  10.634  0.00  0.00    +0.000 A 
ATOM      5  C   UNL     1      45.644   4.839   9.374  0.00  0.00    +0.000 A 
ATOM      6  C   UNL     1      45.549   3.737   8.519  0.00  0.00    +0.000 A 
ATOM      7  C   UNL     1      44.803   2.633   8.902  0.00  0.00    +0.000 A 
ATOM      8  C   UNL     1      44.164   2.629  10.145  0.00  0.00    +0.000 A 
ATOM      9  C   UNL     1      44.263   3.731  11.005  0.00  0.00    +0.000 A 
ATOM     10 CL   UNL     1      43.399   3.640  12.496  0.00  0.00    +0.000 Cl
BRANCH   6  11
ATOM     11  O   UNL     1      46.196   3.869   7.318  0.00  0.00    +0.000 OA
BRANCH  11  12
ATOM     12  C   UNL     1      46.452   2.683   6.531  0.00  0.00    +0.000 C 
ATOM     13  C   UNL     1      47.517   1.698   7.032  0.00  0.00    +0.000 C 
ATOM     14  O   UNL     1      48.275   1.810   5.805  0.00  0.00    +0.000 OA
ATOM     15  C   UNL     1      47.412   2.877   5.349  0.00  0.00    +0.000 C 
ENDBRANCH  11  12
ENDBRANCH   6  11
ENDBRANCH   1   4
BRANCH   1  16
ATOM     16  C   UNL     1      46.471   6.052  12.317  0.00  0.00    +0.000 C 
BRANCH  16  21
ATOM     17  C   UNL     1      48.387   4.469  16.837  0.00  0.00    +0.000 A 
ATOM     18  C   UNL     1      48.503   5.686  16.172  0.00  0.00    +0.000 A 
ATOM     19  C   UNL     1      47.916   5.832  14.915  0.00  0.00    +0.000 A 
ATOM     20  C   UNL     1      47.220   4.771  14.343  0.00  0.00    +0.000 A 
ATOM     21  N   UNL     1      46.621   4.838  13.116  0.00  0.00    +0.000 N 
ATOM     22  N   UNL     1      47.116   3.586  14.976  0.00  0.00    +0.000 NA
ATOM     23  C   UNL     1      47.707   3.451  16.194  0.00  0.00    +0.000 A 
ATOM     24  H   UNL     1      46.091   4.007  12.868  0.00  0.00    +0.000 HD
BRANCH  17  26
ATOM     25  N   UNL     1      48.339   3.311  18.969  0.00  0.00    +0.000 N 
ATOM     26  C   UNL     1      48.969   4.228  18.173  0.00  0.00    +0.000 C 
ATOM     27  O   UNL     1      49.988   4.794  18.543  0.00  0.00    +0.000 OA
ATOM     28  H   UNL     1      48.806   3.073  19.836  0.00  0.00    +0.000 HD
ATOM     29  H   UNL     1      47.663   2.652  18.609  0.00  0.00    +0.000 HD
ENDBRANCH  17  26
ENDBRANCH  16  21
ENDBRANCH   1  16
TORSDOF 6
ENDMDL
MODEL 5
REMARK VINA RESULT:    -7.011      4.011      7.419
REMARK INTER + INTRA:         -10.298
REMARK INTER:                  -9.777
REMARK INTRA:                  -0.521
REMARK UNBOUND:                -0.827
REMARK  Name = 
REMARK  6 active torsions:
REMARK  status: ('A' for Active; 'I' for Inactive)
REMARK    1  A    between atoms: C_2  and  C_4
REMARK    2  A    between atoms: N_8  and  C_9
REMARK    3  A    between atoms: C_9  and  C_10
REMARK    4  A    between atoms: C_10  and  C_13
REMARK    5  A    between atoms: C_15  and  O_16
REMARK    6  A    between atoms: O_16  and  C_17
REMARK                            x       y       z     vdW  Elec       q    Type
REMARK                         _______ _______ _______ _____ _____    ______ ____
ROOT
ATOM      1  C   UNL     1      44.775   6.109  11.406  0.00  0.00    +0.000 C 
ATOM      2  F   UNL     1      43.490   6.458  11.734  0.00  0.00    +0.000 F 
ATOM      3  F   UNL     1      45.253   7.190  10.725  0.00  0.00    +0.000 F 
ENDROOT
BRANCH   1   4
ATOM      4  C   UNL     1      44.802   4.824  10.598  0.00  0.00    +0.000 A 
ATOM      5  C   UNL     1      45.499   4.819   9.372  0.00  0.00    +0.000 A 
ATOM      6  C   UNL     1      45.560   3.679   8.567  0.00  0.00    +0.000 A 
ATOM      7  C   UNL     1      44.907   2.521   8.964  0.00  0.00    +0.000 A 
ATOM      8  C   UNL     1      44.206   2.505  10.173  0.00  0.00    +0.000 A 
ATOM      9  C   UNL     1      44.149   3.646  10.984  0.00  0.00    +0.000 A 
ATOM     10 CL   UNL     1      43.220   3.530  12.434  0.00  0.00    +0.000 Cl
BRANCH   6  11
ATOM     11  O   UNL     1      46.253   3.825   7.395  0.00  0.00    +0.000 OA
BRANCH  11  12
ATOM     12  C   UNL     1      46.486   2.658   6.572  0.00  0.00    +0.000 C 
ATOM     13  C   UNL     1      47.579   1.672   7.007  0.00  0.00    +0.000 C 
ATOM     14  O   UNL     1      48.284   1.817   5.753  0.00  0.00    +0.000 OA
ATOM     15  C   UNL     1      47.394   2.885   5.356  0.00  0.00    +0.000 C 
ENDBRANCH  11  12
ENDBRANCH   6  11
ENDBRANCH   1   4
BRANCH   1  16
ATOM     16  C   UNL     1      45.575   5.949  12.727  0.00  0.00    +0.000 C 
BRANCH  16  21
ATOM     17  C   UNL     1      49.736   8.965  12.287  0.00  0.00    +0.000 A 
ATOM     18  C   UNL     1      49.488   7.679  11.819  0.00  0.00    +0.000 A 
ATOM     19  C   UNL     1      48.273   7.066  12.129  0.00  0.00    +0.000 A 
ATOM     20  C   UNL     1      47.326   7.742  12.892  0.00  0.00    +0.000 A 
ATOM     21  N   UNL     1      46.116   7.206  13.238  0.00  0.00    +0.000 N 
ATOM     22  N   UNL     1      47.566   8.982  13.360  0.00  0.00    +0.000 NA
ATOM     23  C   UNL     1      48.761   9.563  13.065  0.00  0.00    +0.000 A 
ATOM     24  H   UNL     1      45.506   7.849  13.736  0.00  0.00    +0.000 HD
BRANCH  17  26
ATOM     25  N   UNL     1      51.322   9.865  10.685  0.00  0.00    +0.000 N 
ATOM     26  C   UNL     1      50.989   9.694  12.001  0.00  0.00    +0.000 C 
ATOM     27  O   UNL     1      51.683  10.156  12.896  0.00  0.00    +0.000 OA
ATOM     28  H   UNL     1      52.121  10.459  10.498  0.00  0.00    +0.000 HD
ATOM     29  H   UNL     1      50.660   9.728   9.935  0.00  0.00    +0.000 HD
ENDBRANCH  17  26
ENDBRANCH  16  21
ENDBRANCH   1  16
TORSDOF 6
ENDMDL
MODEL 6
REMARK VINA RESULT:    -6.648      3.545      8.186
REMARK INTER + INTRA:          -9.807
REMARK INTER:                  -9.498
REMARK INTRA:                  -0.310
REMARK UNBOUND:                -0.827
REMARK  Name = 
REMARK  6 active torsions:
REMARK  status: ('A' for Active; 'I' for Inactive)
REMARK    1  A    between atoms: C_2  and  C_4
REMARK    2  A    between atoms: N_8  and  C_9
REMARK    3  A    between atoms: C_9  and  C_10
REMARK    4  A    between atoms: C_10  and  C_13
REMARK    5  A    between atoms: C_15  and  O_16
REMARK    6  A    between atoms: O_16  and  C_17
REMARK                            x       y       z     vdW  Elec       q    Type
REMARK                         _______ _______ _______ _____ _____    ______ ____
ROOT
ATOM      1  C   UNL     1      45.196   6.197  11.417  0.00  0.00    +0.000 C 
ATOM      2  F   UNL     1      44.751   6.005  12.700  0.00  0.00    +0.000 F 
ATOM      3  F   UNL     1      44.465   7.256  10.964  0.00  0.00    +0.000 F 
ENDROOT
BRANCH   1   4
ATOM      4  C   UNL     1      45.022   4.939  10.584  0.00  0.00    +0.000 A 
ATOM      5  C   UNL     1      45.643   4.884   9.320  0.00  0.00    +0.000 A 
ATOM      6  C   UNL     1      45.519   3.766   8.490  0.00  0.00    +0.000 A 
ATOM      7  C   UNL     1      44.754   2.685   8.902  0.00  0.00    +0.000 A 
ATOM      8  C   UNL     1      44.125   2.722  10.150  0.00  0.00    +0.000 A 
ATOM      9  C   UNL     1      44.253   3.839  10.985  0.00  0.00    +0.000 A 
ATOM     10 CL   UNL     1      43.400   3.797  12.485  0.00  0.00    +0.000 Cl
BRANCH   6  11
ATOM     11  O   UNL     1      46.158   3.859   7.282  0.00  0.00    +0.000 OA
BRANCH  11  12
ATOM     12  C   UNL     1      46.411   2.649   6.533  0.00  0.00    +0.000 C 
ATOM     13  C   UNL     1      47.515   1.706   7.031  0.00  0.00    +0.000 C 
ATOM     14  O   UNL     1      48.226   1.785   5.774  0.00  0.00    +0.000 OA
ATOM     15  C   UNL     1      47.324   2.814   5.309  0.00  0.00    +0.000 C 
ENDBRANCH  11  12
ENDBRANCH   6  11
ENDBRANCH   1   4
BRANCH   1  16
ATOM     16  C   UNL     1      46.691   6.608  11.490  0.00  0.00    +0.000 C 
BRANCH  16  21
ATOM     17  C   UNL     1      48.901   7.749  16.010  0.00  0.00    +0.000 A 
ATOM     18  C   UNL     1      48.617   6.524  15.416  0.00  0.00    +0.000 A 
ATOM     19  C   UNL     1      47.956   6.500  14.188  0.00  0.00    +0.000 A 
ATOM     20  C   UNL     1      47.594   7.693  13.568  0.00  0.00    +0.000 A 
ATOM     21  N   UNL     1      46.941   7.750  12.368  0.00  0.00    +0.000 N 
ATOM     22  N   UNL     1      47.853   8.883  14.145  0.00  0.00    +0.000 NA
ATOM     23  C   UNL     1      48.483   8.892  15.351  0.00  0.00    +0.000 A 
ATOM     24  H   UNL     1      46.810   8.693  12.013  0.00  0.00    +0.000 HD
BRANCH  17  26
ATOM     25  N   UNL     1      49.942   9.130  17.713  0.00  0.00    +0.000 N 
ATOM     26  C   UNL     1      49.604   7.870  17.303  0.00  0.00    +0.000 C 
ATOM     27  O   UNL     1      49.846   6.892  17.997  0.00  0.00    +0.000 OA
ATOM     28  H   UNL     1      50.323   9.212  18.647  0.00  0.00    +0.000 HD
ATOM     29  H   UNL     1      49.540   9.961  17.301  0.00  0.00    +0.000 HD
ENDBRANCH  17  26
ENDBRANCH  16  21
ENDBRANCH   1  16
TORSDOF 6
ENDMDL
MODEL 7
REMARK VINA RESULT:    -6.615      3.488      4.945
REMARK INTER + INTRA:          -9.762
REMARK INTER:                  -8.856
REMARK INTRA:                  -0.906
REMARK UNBOUND:                -0.827
REMARK  Name = 
REMARK  6 active torsions:
REMARK  status: ('A' for Active; 'I' for Inactive)
REMARK    1  A    between atoms: C_2  and  C_4
REMARK    2  A    between atoms: N_8  and  C_9
REMARK    3  A    between atoms: C_9  and  C_10
REMARK    4  A    between atoms: C_10  and  C_13
REMARK    5  A    between atoms: C_15  and  O_16
REMARK    6  A    between atoms: O_16  and  C_17
REMARK                            x       y       z     vdW  Elec       q    Type
REMARK                         _______ _______ _______ _____ _____    ______ ____
ROOT
ATOM      1  C   UNL     1      48.508   8.227  12.679  0.00  0.00    +0.000 C 
ATOM      2  F   UNL     1      48.760   7.055  12.015  0.00  0.00    +0.000 F 
ATOM      3  F   UNL     1      49.245   9.158  12.007  0.00  0.00    +0.000 F 
ENDROOT
BRANCH   1   4
ATOM      4  C   UNL     1      48.872   8.112  14.149  0.00  0.00    +0.000 A 
ATOM      5  C   UNL     1      48.988   6.824  14.710  0.00  0.00    +0.000 A 
ATOM      6  C   UNL     1      49.308   6.637  16.058  0.00  0.00    +0.000 A 
ATOM      7  C   UNL     1      49.501   7.739  16.878  0.00  0.00    +0.000 A 
ATOM      8  C   UNL     1      49.384   9.025  16.343  0.00  0.00    +0.000 A 
ATOM      9  C   UNL     1      49.069   9.214  14.991  0.00  0.00    +0.000 A 
ATOM     10 CL   UNL     1      48.907  10.843  14.445  0.00  0.00    +0.000 Cl
BRANCH   6  11
ATOM     11  O   UNL     1      49.368   5.332  16.471  0.00  0.00    +0.000 OA
BRANCH  11  12
ATOM     12  C   UNL     1      48.246   4.779  17.197  0.00  0.00    +0.000 C 
ATOM     13  C   UNL     1      48.371   3.351  17.745  0.00  0.00    +0.000 C 
ATOM     14  O   UNL     1      47.201   2.911  17.016  0.00  0.00    +0.000 OA
ATOM     15  C   UNL     1      47.134   4.180  16.326  0.00  0.00    +0.000 C 
ENDBRANCH  11  12
ENDBRANCH   6  11
ENDBRANCH   1   4
BRANCH   1  16
ATOM     16  C   UNL     1      47.000   8.555  12.507  0.00  0.00    +0.000 C 
BRANCH  16  21
ATOM     17  C   UNL     1      44.532   4.158  11.418  0.00  0.00    +0.000 A 
ATOM     18  C   UNL     1      45.215   5.048  10.597  0.00  0.00    +0.000 A 
ATOM     19  C   UNL     1      45.756   6.208  11.153  0.00  0.00    +0.000 A 
ATOM     20  C   UNL     1      45.614   6.460  12.515  0.00  0.00    +0.000 A 
ATOM     21  N   UNL     1      46.113   7.574  13.130  0.00  0.00    +0.000 N 
ATOM     22  N   UNL     1      44.941   5.608  13.313  0.00  0.00    +0.000 NA
ATOM     23  C   UNL     1      44.404   4.490  12.755  0.00  0.00    +0.000 A 
ATOM     24  H   UNL     1      45.990   7.580  14.139  0.00  0.00    +0.000 HD
BRANCH  17  26
ATOM     25  N   UNL     1      44.547   2.304   9.852  0.00  0.00    +0.000 N 
ATOM     26  C   UNL     1      43.935   2.903  10.918  0.00  0.00    +0.000 C 
ATOM     27  O   UNL     1      42.956   2.399  11.451  0.00  0.00    +0.000 OA
ATOM     28  H   UNL     1      44.198   1.392   9.587  0.00  0.00    +0.000 HD
ATOM     29  H   UNL     1      45.483   2.547   9.556  0.00  0.00    +0.000 HD
ENDBRANCH  17  26
ENDBRANCH  16  21
ENDBRANCH   1  16
TORSDOF 6
ENDMDL
MODEL 8
REMARK VINA RESULT:    -6.521      4.058      5.823
REMARK INTER + INTRA:          -9.635
REMARK INTER:                  -8.518
REMARK INTRA:                  -1.118
REMARK UNBOUND:                -0.827
REMARK  Name = 
REMARK  6 active torsions:
REMARK  status: ('A' for Active; 'I' for Inactive)
REMARK    1  A    between atoms: C_2  and  C_4
REMARK    2  A    between atoms: N_8  and  C_9
REMARK    3  A    between atoms: C_9  and  C_10
REMARK    4  A    between atoms: C_10  and  C_13
REMARK    5  A    between atoms: C_15  and  O_16
REMARK    6  A    between atoms: O_16  and  C_17
REMARK                            x       y       z     vdW  Elec       q    Type
REMARK                         _______ _______ _______ _____ _____    ______ ____
ROOT
ATOM      1  C   UNL     1      48.793   8.317  14.819  0.00  0.00    +0.000 C 
ATOM      2  F   UNL     1      49.525   9.472  14.731  0.00  0.00    +0.000 F 
ATOM      3  F   UNL     1      47.503   8.723  14.633  0.00  0.00    +0.000 F 
ENDROOT
BRANCH   1   4
ATOM      4  C   UNL     1      49.024   7.622  16.149  0.00  0.00    +0.000 A 
ATOM      5  C   UNL     1      49.689   6.379  16.147  0.00  0.00    +0.000 A 
ATOM      6  C   UNL     1      49.928   5.673  17.330  0.00  0.00    +0.000 A 
ATOM      7  C   UNL     1      49.489   6.190  18.540  0.00  0.00    +0.000 A 
ATOM      8  C   UNL     1      48.823   7.419  18.564  0.00  0.00    +0.000 A 
ATOM      9  C   UNL     1      48.588   8.130  17.379  0.00  0.00    +0.000 A 
ATOM     10 CL   UNL     1      47.719   9.615  17.518  0.00  0.00    +0.000 Cl
BRANCH   6  11
ATOM     11  O   UNL     1      50.565   4.470  17.176  0.00  0.00    +0.000 OA
BRANCH  11  12
ATOM     12  C   UNL     1      49.838   3.254  17.466  0.00  0.00    +0.000 C 
ATOM     13  C   UNL     1      50.393   1.930  16.922  0.00  0.00    +0.000 C 
ATOM     14  O   UNL     1      49.168   1.648  16.207  0.00  0.00    +0.000 OA
ATOM     15  C   UNL     1      48.655   2.960  16.533  0.00  0.00    +0.000 C 
ENDBRANCH  11  12
ENDBRANCH   6  11
ENDBRANCH   1   4
BRANCH   1  16
ATOM     16  C   UNL     1      49.209   7.400  13.637  0.00  0.00    +0.000 C 
BRANCH  16  21
ATOM     17  C   UNL     1      44.966   4.718  12.447  0.00  0.00    +0.000 A 
ATOM     18  C   UNL     1      45.910   4.533  13.451  0.00  0.00    +0.000 A 
ATOM     19  C   UNL     1      47.009   5.391  13.518  0.00  0.00    +0.000 A 
ATOM     20  C   UNL     1      47.146   6.421  12.591  0.00  0.00    +0.000 A 
ATOM     21  N   UNL     1      48.195   7.298  12.590  0.00  0.00    +0.000 N 
ATOM     22  N   UNL     1      46.241   6.596  11.608  0.00  0.00    +0.000 NA
ATOM     23  C   UNL     1      45.184   5.743  11.544  0.00  0.00    +0.000 A 
ATOM     24  H   UNL     1      48.116   8.036  11.895  0.00  0.00    +0.000 HD
BRANCH  17  26
ATOM     25  N   UNL     1      42.701   4.395  11.637  0.00  0.00    +0.000 N 
ATOM     26  C   UNL     1      43.768   3.864  12.306  0.00  0.00    +0.000 C 
ATOM     27  O   UNL     1      43.740   2.720  12.738  0.00  0.00    +0.000 OA
ATOM     28  H   UNL     1      41.930   3.766  11.450  0.00  0.00    +0.000 HD
ATOM     29  H   UNL     1      42.778   5.219  11.057  0.00  0.00    +0.000 HD
ENDBRANCH  17  26
ENDBRANCH  16  21
ENDBRANCH   1  16
TORSDOF 6
ENDMDL
MODEL 9
REMARK VINA RESULT:    -6.487      3.928      5.573
REMARK INTER + INTRA:          -9.590
REMARK INTER:                  -8.428
REMARK INTRA:                  -1.162
REMARK UNBOUND:                -0.827
REMARK  Name = 
REMARK  6 active torsions:
REMARK  status: ('A' for Active; 'I' for Inactive)
REMARK    1  A    between atoms: C_2  and  C_4
REMARK    2  A    between atoms: N_8  and  C_9
REMARK    3  A    between atoms: C_9  and  C_10
REMARK    4  A    between atoms: C_10  and  C_13
REMARK    5  A    between atoms: C_15  and  O_16
REMARK    6  A    between atoms: O_16  and  C_17
REMARK                            x       y       z     vdW  Elec       q    Type
REMARK                         _______ _______ _______ _____ _____    ______ ____
ROOT
ATOM      1  C   UNL     1      49.383   8.471  13.337  0.00  0.00    +0.000 C 
ATOM      2  F   UNL     1      49.839   7.970  12.145  0.00  0.00    +0.000 F 
ATOM      3  F   UNL     1      49.696   9.799  13.284  0.00  0.00    +0.000 F 
ENDROOT
BRANCH   1   4
ATOM      4  C   UNL     1      50.015   7.747  14.512  0.00  0.00    +0.000 A 
ATOM      5  C   UNL     1      49.175   7.012  15.374  0.00  0.00    +0.000 A 
ATOM      6  C   UNL     1      49.680   6.329  16.484  0.00  0.00    +0.000 A 
ATOM      7  C   UNL     1      51.038   6.382  16.764  0.00  0.00    +0.000 A 
ATOM      8  C   UNL     1      51.887   7.109  15.926  0.00  0.00    +0.000 A 
ATOM      9  C   UNL     1      51.383   7.790  14.810  0.00  0.00    +0.000 A 
ATOM     10 CL   UNL     1      52.513   8.693  13.868  0.00  0.00    +0.000 Cl
BRANCH   6  11
ATOM     11  O   UNL     1      48.747   5.674  17.244  0.00  0.00    +0.000 OA
BRANCH  11  12
ATOM     12  C   UNL     1      48.475   4.281  16.965  0.00  0.00    +0.000 C 
ATOM     13  C   UNL     1      47.146   3.925  16.284  0.00  0.00    +0.000 C 
ATOM     14  O   UNL     1      46.764   3.046  17.367  0.00  0.00    +0.000 OA
ATOM     15  C   UNL     1      47.905   3.478  18.143  0.00  0.00    +0.000 C 
ENDBRANCH  11  12
ENDBRANCH   6  11
ENDBRANCH   1   4
BRANCH   1  16
ATOM     16  C   UNL     1      47.839   8.317  13.358  0.00  0.00    +0.000 C 
BRANCH  16  21
ATOM     17  C   UNL     1      45.020   4.326  11.703  0.00  0.00    +0.000 A 
ATOM     18  C   UNL     1      45.589   4.588  12.945  0.00  0.00    +0.000 A 
ATOM     19  C   UNL     1      46.360   5.740  13.109  0.00  0.00    +0.000 A 
ATOM     20  C   UNL     1      46.546   6.612  12.041  0.00  0.00    +0.000 A 
ATOM     21  N   UNL     1      47.290   7.757  12.125  0.00  0.00    +0.000 N 
ATOM     22  N   UNL     1      46.009   6.356  10.832  0.00  0.00    +0.000 NA
ATOM     23  C   UNL     1      45.274   5.222  10.680  0.00  0.00    +0.000 A 
ATOM     24  H   UNL     1      47.273   8.324  11.281  0.00  0.00    +0.000 HD
BRANCH  17  26
ATOM     25  N   UNL     1      43.797   2.396  12.524  0.00  0.00    +0.000 N 
ATOM     26  C   UNL     1      44.184   3.137  11.441  0.00  0.00    +0.000 C 
ATOM     27  O   UNL     1      43.821   2.842  10.310  0.00  0.00    +0.000 OA
ATOM     28  H   UNL     1      43.136   1.650  12.345  0.00  0.00    +0.000 HD
ATOM     29  H   UNL     1      43.860   2.745  13.470  0.00  0.00    +0.000 HD
ENDBRANCH  17  26
ENDBRANCH  16  21
ENDBRANCH   1  16
TORSDOF 6
ENDMDL
