MODEL 1
REMARK VINA RESULT:    -6.459      0.000      0.000
REMARK INTER + INTRA:          -7.608
REMARK INTER:                  -7.215
REMARK INTRA:                  -0.393
REMARK UNBOUND:                -0.393
REMARK  Name = 
REMARK  2 active torsions:
REMARK  status: ('A' for Active; 'I' for Inactive)
REMARK    1  A    between atoms: C_7  and  C_8
REMARK    2  A    between atoms: C_8  and  N_9
REMARK                            x       y       z     vdW  Elec       q    Type
REMARK                         _______ _______ _______ _____ _____    ______ ____
ROOT
ATOM      1  N   UNL     1      50.264   7.393  12.646  0.00  0.00    +0.000 NA
ATOM      2  C   UNL     1      49.266   8.194  12.773  0.00  0.00    +0.000 C 
ATOM      3  N   UNL     1      49.456   9.490  13.107  0.00  0.00    +0.000 N 
ATOM      4  N   UNL     1      47.957   7.816  12.640  0.00  0.00    +0.000 N 
ATOM      5  C   UNL     1      46.917   8.724  12.153  0.00  0.00    +0.000 C 
ATOM      6  C   UNL     1      45.648   8.468  12.956  0.00  0.00    +0.000 C 
ATOM      7  C   UNL     1      45.163   7.017  12.799  0.00  0.00    +0.000 C 
ATOM      8  C   UNL     1      46.315   6.058  13.153  0.00  0.00    +0.000 C 
ATOM      9  C   UNL     1      47.634   6.395  12.447  0.00  0.00    +0.000 C 
ATOM     10  H   UNL     1      51.132   7.908  12.789  0.00  0.00    +0.000 HD
ATOM     11  H   UNL     1      50.375   9.705  13.467  0.00  0.00    +0.000 HD
ATOM     12  H   UNL     1      48.739   9.834  13.735  0.00  0.00    +0.000 HD
ENDROOT
BRANCH   7  13
ATOM     13  C   UNL     1      44.583   6.714  11.398  0.00  0.00    +0.000 C 
BRANCH  13  14
ATOM     14  N   UNL     1      44.339   5.295  11.160  0.00  0.00    +0.000 N 
ATOM     15  C   UNL     1      43.562   4.506  11.975  0.00  0.00    +0.000 A 
ATOM     16  C   UNL     1      43.444   3.267  11.385  0.00  0.00    +0.000 A 
ATOM     17  C   UNL     1      44.210   3.291  10.199  0.00  0.00    +0.000 A 
ATOM     18  N   UNL     1      44.387   2.299   9.292  0.00  0.00    +0.000 NA
ATOM     19  C   UNL     1      45.211   2.606   8.271  0.00  0.00    +0.000 A 
ATOM     20  C   UNL     1      45.872   3.814   8.106  0.00  0.00    +0.000 A 
ATOM     21  C   UNL     1      45.676   4.833   9.036  0.00  0.00    +0.000 A 
ATOM     22  C   UNL     1      44.804   4.550  10.094  0.00  0.00    +0.000 A 
ENDBRANCH  13  14
ENDBRANCH   7  13
TORSDOF 2
ENDMDL
MODEL 2
REMARK VINA RESULT:    -6.342      2.203      6.055
REMARK INTER + INTRA:          -7.476
REMARK INTER:                  -6.943
REMARK INTRA:                  -0.533
REMARK UNBOUND:                -0.393
REMARK  Name = 
REMARK  2 active torsions:
REMARK  status: ('A' for Active; 'I' for Inactive)
REMARK    1  A    between atoms: C_7  and  C_8
REMARK    2  A    between atoms: C_8  and  N_9
REMARK                            x       y       z     vdW  Elec       q    Type
REMARK                         _______ _______ _______ _____ _____    ______ ____
ROOT
ATOM      1  N   UNL     1      47.102   4.041   5.678  0.00  0.00    +0.000 NA
ATOM      2  C   UNL     1      46.704   2.962   6.253  0.00  0.00    +0.000 C 
ATOM      3  N   UNL     1      46.887   1.757   5.670  0.00  0.00    +0.000 N 
ATOM      4  N   UNL     1      46.032   2.932   7.446  0.00  0.00    +0.000 N 
ATOM      5  C   UNL     1      46.140   1.815   8.387  0.00  0.00    +0.000 C 
ATOM      6  C   UNL     1      44.762   1.566   8.988  0.00  0.00    +0.000 C 
ATOM      7  C   UNL     1      44.240   2.804   9.736  0.00  0.00    +0.000 C 
ATOM      8  C   UNL     1      44.284   4.021   8.792  0.00  0.00    +0.000 C 
ATOM      9  C   UNL     1      45.631   4.196   8.079  0.00  0.00    +0.000 C 
ATOM     10  H   UNL     1      47.576   3.805   4.807  0.00  0.00    +0.000 HD
ATOM     11  H   UNL     1      47.129   1.793   4.689  0.00  0.00    +0.000 HD
ATOM     12  H   UNL     1      46.103   1.134   5.820  0.00  0.00    +0.000 HD
ENDROOT
BRANCH   7  13
ATOM     13  C   UNL     1      44.994   3.085  11.057  0.00  0.00    +0.000 C 
BRANCH  13  14
ATOM     14  N   UNL     1      44.583   4.321  11.714  0.00  0.00    +0.000 N 
ATOM     15  C   UNL     1      43.383   4.476  12.369  0.00  0.00    +0.000 A 
ATOM     16  C   UNL     1      43.384   5.712  12.977  0.00  0.00    +0.000 A 
ATOM     17  C   UNL     1      44.602   6.345  12.643  0.00  0.00    +0.000 A 
ATOM     18  N   UNL     1      45.043   7.570  13.017  0.00  0.00    +0.000 NA
ATOM     19  C   UNL     1      46.240   7.922  12.507  0.00  0.00    +0.000 A 
ATOM     20  C   UNL     1      47.006   7.149  11.648  0.00  0.00    +0.000 A 
ATOM     21  C   UNL     1      46.551   5.884  11.276  0.00  0.00    +0.000 A 
ATOM     22  C   UNL     1      45.322   5.483  11.813  0.00  0.00    +0.000 A 
ENDBRANCH  13  14
ENDBRANCH   7  13
TORSDOF 2
ENDMDL
MODEL 3
REMARK VINA RESULT:    -6.120      1.843      3.299
REMARK INTER + INTRA:          -7.229
REMARK INTER:                  -7.092
REMARK INTRA:                  -0.137
REMARK UNBOUND:                -0.393
REMARK  Name = 
REMARK  2 active torsions:
REMARK  status: ('A' for Active; 'I' for Inactive)
REMARK    1  A    between atoms: C_7  and  C_8
REMARK    2  A    between atoms: C_8  and  N_9
REMARK                            x       y       z     vdW  Elec       q    Type
REMARK                         _______ _______ _______ _____ _____    ______ ____
ROOT
ATOM      1  N   UNL     1      47.260   6.890  13.506  0.00  0.00    +0.000 NA
ATOM      2  C   UNL     1      46.109   7.174  13.008  0.00  0.00    +0.000 C 
ATOM      3  N   UNL     1      45.453   8.298  13.373  0.00  0.00    +0.000 N 
ATOM      4  N   UNL     1      45.434   6.369  12.130  0.00  0.00    +0.000 N 
ATOM      5  C   UNL     1      44.525   6.898  11.110  0.00  0.00    +0.000 C 
ATOM      6  C   UNL     1      43.328   5.962  11.009  0.00  0.00    +0.000 C 
ATOM      7  C   UNL     1      43.755   4.538  10.612  0.00  0.00    +0.000 C 
ATOM      8  C   UNL     1      44.837   4.044  11.592  0.00  0.00    +0.000 C 
ATOM      9  C   UNL     1      45.980   5.045  11.800  0.00  0.00    +0.000 C 
ATOM     10  H   UNL     1      47.554   7.642  14.129  0.00  0.00    +0.000 HD
ATOM     11  H   UNL     1      45.811   8.746  14.205  0.00  0.00    +0.000 HD
ATOM     12  H   UNL     1      44.454   8.152  13.450  0.00  0.00    +0.000 HD
ENDROOT
BRANCH   7  13
ATOM     13  C   UNL     1      44.227   4.427   9.144  0.00  0.00    +0.000 C 
BRANCH  13  14
ATOM     14  N   UNL     1      44.880   3.160   8.833  0.00  0.00    +0.000 N 
ATOM     15  C   UNL     1      44.447   1.942   9.303  0.00  0.00    +0.000 A 
ATOM     16  C   UNL     1      45.211   0.960   8.711  0.00  0.00    +0.000 A 
ATOM     17  C   UNL     1      46.165   1.603   7.893  0.00  0.00    +0.000 A 
ATOM     18  N   UNL     1      47.123   1.041   7.117  0.00  0.00    +0.000 NA
ATOM     19  C   UNL     1      47.918   1.919   6.473  0.00  0.00    +0.000 A 
ATOM     20  C   UNL     1      47.830   3.300   6.564  0.00  0.00    +0.000 A 
ATOM     21  C   UNL     1      46.835   3.871   7.355  0.00  0.00    +0.000 A 
ATOM     22  C   UNL     1      45.979   2.982   8.015  0.00  0.00    +0.000 A 
ENDBRANCH  13  14
ENDBRANCH   7  13
TORSDOF 2
ENDMDL
MODEL 4
REMARK VINA RESULT:    -5.909      2.252      6.337
REMARK INTER + INTRA:          -6.993
REMARK INTER:                  -6.498
REMARK INTRA:                  -0.495
REMARK UNBOUND:                -0.393
REMARK  Name = 
REMARK  2 active torsions:
REMARK  status: ('A' for Active; 'I' for Inactive)
REMARK    1  A    between atoms: C_7  and  C_8
REMARK    2  A    between atoms: C_8  and  N_9
REMARK                            x       y       z     vdW  Elec       q    Type
REMARK                         _______ _______ _______ _____ _____    ______ ____
ROOT
ATOM      1  N   UNL     1      43.256   1.868  11.311  0.00  0.00    +0.000 NA
ATOM      2  C   UNL     1      43.931   2.750  10.664  0.00  0.00    +0.000 C 
ATOM      3  N   UNL     1      44.189   2.596   9.346  0.00  0.00    +0.000 N 
ATOM      4  N   UNL     1      44.481   3.866  11.235  0.00  0.00    +0.000 N 
ATOM      5  C   UNL     1      44.662   5.123  10.504  0.00  0.00    +0.000 C 
ATOM      6  C   UNL     1      45.994   5.729  10.923  0.00  0.00    +0.000 C 
ATOM      7  C   UNL     1      46.033   6.017  12.434  0.00  0.00    +0.000 C 
ATOM      8  C   UNL     1      45.677   4.731  13.203  0.00  0.00    +0.000 C 
ATOM      9  C   UNL     1      44.406   4.042  12.692  0.00  0.00    +0.000 C 
ATOM     10  H   UNL     1      42.953   1.136  10.670  0.00  0.00    +0.000 HD
ATOM     11  H   UNL     1      44.026   1.665   8.988  0.00  0.00    +0.000 HD
ATOM     12  H   UNL     1      45.117   2.916   9.096  0.00  0.00    +0.000 HD
ENDROOT
BRANCH   7  13
ATOM     13  C   UNL     1      45.127   7.198  12.856  0.00  0.00    +0.000 C 
BRANCH  13  14
ATOM     14  N   UNL     1      45.665   8.505  12.497  0.00  0.00    +0.000 N 
ATOM     15  C   UNL     1      46.864   8.993  12.964  0.00  0.00    +0.000 A 
ATOM     16  C   UNL     1      47.118  10.187  12.325  0.00  0.00    +0.000 A 
ATOM     17  C   UNL     1      46.019  10.454  11.480  0.00  0.00    +0.000 A 
ATOM     18  N   UNL     1      45.830  11.514  10.656  0.00  0.00    +0.000 NA
ATOM     19  C   UNL     1      44.655  11.515   9.996  0.00  0.00    +0.000 A 
ATOM     20  C   UNL     1      43.665  10.552  10.114  0.00  0.00    +0.000 A 
ATOM     21  C   UNL     1      43.871   9.459  10.954  0.00  0.00    +0.000 A 
ATOM     22  C   UNL     1      45.094   9.419  11.633  0.00  0.00    +0.000 A 
ENDBRANCH  13  14
ENDBRANCH   7  13
TORSDOF 2
ENDMDL
MODEL 5
REMARK VINA RESULT:    -5.790      1.340      1.988
REMARK INTER + INTRA:          -6.861
REMARK INTER:                  -6.466
REMARK INTRA:                  -0.395
REMARK UNBOUND:                -0.393
REMARK  Name = 
REMARK  2 active torsions:
REMARK  status: ('A' for Active; 'I' for Inactive)
REMARK    1  A    between atoms: C_7  and  C_8
REMARK    2  A    between atoms: C_8  and  N_9
REMARK                            x       y       z     vdW  Elec       q    Type
REMARK                         _______ _______ _______ _____ _____    ______ ____
ROOT
ATOM      1  N   UNL     1      48.592  10.073  15.289  0.00  0.00    +0.000 NA
ATOM      2  C   UNL     1      48.665   8.817  15.020  0.00  0.00    +0.000 C 
ATOM      3  N   UNL     1      49.557   8.023  15.654  0.00  0.00    +0.000 N 
ATOM      4  N   UNL     1      47.913   8.193  14.062  0.00  0.00    +0.000 N 
ATOM      5  C   UNL     1      47.506   6.790  14.165  0.00  0.00    +0.000 C 
ATOM      6  C   UNL     1      47.596   6.166  12.778  0.00  0.00    +0.000 C 
ATOM      7  C   UNL     1      46.677   6.884  11.775  0.00  0.00    +0.000 C 
ATOM      8  C   UNL     1      46.992   8.392  11.789  0.00  0.00    +0.000 C 
ATOM      9  C   UNL     1      47.036   8.996  13.198  0.00  0.00    +0.000 C 
ATOM     10  H   UNL     1      49.248  10.297  16.037  0.00  0.00    +0.000 HD
ATOM     11  H   UNL     1      50.285   8.516  16.152  0.00  0.00    +0.000 HD
ATOM     12  H   UNL     1      49.957   7.326  15.038  0.00  0.00    +0.000 HD
ENDROOT
BRANCH   7  13
ATOM     13  C   UNL     1      45.174   6.617  12.023  0.00  0.00    +0.000 C 
BRANCH  13  14
ATOM     14  N   UNL     1      44.779   5.232  11.793  0.00  0.00    +0.000 N 
ATOM     15  C   UNL     1      44.231   4.423  12.762  0.00  0.00    +0.000 A 
ATOM     16  C   UNL     1      43.862   3.236  12.168  0.00  0.00    +0.000 A 
ATOM     17  C   UNL     1      44.239   3.309  10.809  0.00  0.00    +0.000 A 
ATOM     18  N   UNL     1      44.072   2.377   9.839  0.00  0.00    +0.000 NA
ATOM     19  C   UNL     1      44.572   2.719   8.635  0.00  0.00    +0.000 A 
ATOM     20  C   UNL     1      45.230   3.903   8.343  0.00  0.00    +0.000 A 
ATOM     21  C   UNL     1      45.387   4.862   9.343  0.00  0.00    +0.000 A 
ATOM     22  C   UNL     1      44.855   4.544  10.598  0.00  0.00    +0.000 A 
ENDBRANCH  13  14
ENDBRANCH   7  13
TORSDOF 2
ENDMDL
MODEL 6
REMARK VINA RESULT:    -5.764      1.514      6.492
REMARK INTER + INTRA:          -6.831
REMARK INTER:                  -6.533
REMARK INTRA:                  -0.298
REMARK UNBOUND:                -0.393
REMARK  Name = 
REMARK  2 active torsions:
REMARK  status: ('A' for Active; 'I' for Inactive)
REMARK    1  A    between atoms: C_7  and  C_8
REMARK    2  A    between atoms: C_8  and  N_9
REMARK                            x       y       z     vdW  Elec       q    Type
REMARK                         _______ _______ _______ _____ _____    ______ ____
ROOT
ATOM      1  N   UNL     1      44.124   2.796   9.329  0.00  0.00    +0.000 NA
ATOM      2  C   UNL     1      44.122   2.997  10.599  0.00  0.00    +0.000 C 
ATOM      3  N   UNL     1      43.498   2.138  11.435  0.00  0.00    +0.000 N 
ATOM      4  N   UNL     1      44.686   4.088  11.204  0.00  0.00    +0.000 N 
ATOM      5  C   UNL     1      45.252   4.040  12.554  0.00  0.00    +0.000 C 
ATOM      6  C   UNL     1      44.899   5.341  13.263  0.00  0.00    +0.000 C 
ATOM      7  C   UNL     1      45.471   6.561  12.522  0.00  0.00    +0.000 C 
ATOM      8  C   UNL     1      45.010   6.522  11.053  0.00  0.00    +0.000 C 
ATOM      9  C   UNL     1      45.240   5.166  10.373  0.00  0.00    +0.000 C 
ATOM     10  H   UNL     1      43.646   1.919   9.124  0.00  0.00    +0.000 HD
ATOM     11  H   UNL     1      42.861   1.495  10.985  0.00  0.00    +0.000 HD
ATOM     12  H   UNL     1      43.038   2.615  12.202  0.00  0.00    +0.000 HD
ENDROOT
BRANCH   7  13
ATOM     13  C   UNL     1      47.009   6.678  12.630  0.00  0.00    +0.000 C 
BRANCH  13  14
ATOM     14  N   UNL     1      47.521   8.002  12.292  0.00  0.00    +0.000 N 
ATOM     15  C   UNL     1      46.791   9.160  12.425  0.00  0.00    +0.000 A 
ATOM     16  C   UNL     1      47.620  10.223  12.143  0.00  0.00    +0.000 A 
ATOM     17  C   UNL     1      48.878   9.692  11.783  0.00  0.00    +0.000 A 
ATOM     18  N   UNL     1      50.003  10.360  11.429  0.00  0.00    +0.000 NA
ATOM     19  C   UNL     1      51.048   9.575  11.099  0.00  0.00    +0.000 A 
ATOM     20  C   UNL     1      51.039   8.189  11.084  0.00  0.00    +0.000 A 
ATOM     21  C   UNL     1      49.882   7.508  11.461  0.00  0.00    +0.000 A 
ATOM     22  C   UNL     1      48.789   8.299  11.833  0.00  0.00    +0.000 A 
ENDBRANCH  13  14
ENDBRANCH   7  13
TORSDOF 2
ENDMDL
MODEL 7
REMARK VINA RESULT:    -5.735      1.950      6.425
REMARK INTER + INTRA:          -6.799
REMARK INTER:                  -6.615
REMARK INTRA:                  -0.184
REMARK UNBOUND:                -0.393
REMARK  Name = 
REMARK  2 active torsions:
REMARK  status: ('A' for Active; 'I' for Inactive)
REMARK    1  A    between atoms: C_7  and  C_8
REMARK    2  A    between atoms: C_8  and  N_9
REMARK                            x       y       z     vdW  Elec       q    Type
REMARK                         _______ _______ _______ _____ _____    ______ ____
ROOT
ATOM      1  N   UNL     1      43.288   2.217  11.583  0.00  0.00    +0.000 NA
ATOM      2  C   UNL     1      43.915   3.087  10.874  0.00  0.00    +0.000 C 
ATOM      3  N   UNL     1      44.035   2.935   9.536  0.00  0.00    +0.000 N 
ATOM      4  N   UNL     1      44.547   4.186  11.390  0.00  0.00    +0.000 N 
ATOM      5  C   UNL     1      44.684   5.442  10.649  0.00  0.00    +0.000 C 
ATOM      6  C   UNL     1      46.067   6.013  10.934  0.00  0.00    +0.000 C 
ATOM      7  C   UNL     1      46.265   6.291  12.434  0.00  0.00    +0.000 C 
ATOM      8  C   UNL     1      45.957   5.009  13.231  0.00  0.00    +0.000 C 
ATOM      9  C   UNL     1      44.624   4.354  12.848  0.00  0.00    +0.000 C 
ATOM     10  H   UNL     1      42.903   1.496  10.973  0.00  0.00    +0.000 HD
ATOM     11  H   UNL     1      43.814   2.010   9.193  0.00  0.00    +0.000 HD
ATOM     12  H   UNL     1      44.940   3.233   9.195  0.00  0.00    +0.000 HD
ENDROOT
BRANCH   7  13
ATOM     13  C   UNL     1      45.435   7.491  12.949  0.00  0.00    +0.000 C 
BRANCH  13  14
ATOM     14  N   UNL     1      45.814   8.765  12.349  0.00  0.00    +0.000 N 
ATOM     15  C   UNL     1      44.908   9.702  11.910  0.00  0.00    +0.000 A 
ATOM     16  C   UNL     1      45.606  10.826  11.526  0.00  0.00    +0.000 A 
ATOM     17  C   UNL     1      46.980  10.546  11.696  0.00  0.00    +0.000 A 
ATOM     18  N   UNL     1      48.039  11.355  11.451  0.00  0.00    +0.000 NA
ATOM     19  C   UNL     1      49.244  10.794  11.674  0.00  0.00    +0.000 A 
ATOM     20  C   UNL     1      49.458   9.493  12.103  0.00  0.00    +0.000 A 
ATOM     21  C   UNL     1      48.364   8.670  12.365  0.00  0.00    +0.000 A 
ATOM     22  C   UNL     1      47.099   9.236  12.166  0.00  0.00    +0.000 A 
ENDBRANCH  13  14
ENDBRANCH   7  13
TORSDOF 2
ENDMDL
MODEL 8
REMARK VINA RESULT:    -5.689      3.007      6.969
REMARK INTER + INTRA:          -6.748
REMARK INTER:                  -6.456
REMARK INTRA:                  -0.292
REMARK UNBOUND:                -0.393
REMARK  Name = 
REMARK  2 active torsions:
REMARK  status: ('A' for Active; 'I' for Inactive)
REMARK    1  A    between atoms: C_7  and  C_8
REMARK    2  A    between atoms: C_8  and  N_9
REMARK                            x       y       z     vdW  Elec       q    Type
REMARK                         _______ _______ _______ _____ _____    ______ ____
ROOT
ATOM      1  N   UNL     1      44.151   3.540   9.144  0.00  0.00    +0.000 NA
ATOM      2  C   UNL     1      44.174   3.385  10.420  0.00  0.00    +0.000 C 
ATOM      3  N   UNL     1      43.417   2.438  11.018  0.00  0.00    +0.000 N 
ATOM      4  N   UNL     1      44.901   4.169  11.275  0.00  0.00    +0.000 N 
ATOM      5  C   UNL     1      45.445   3.669  12.540  0.00  0.00    +0.000 C 
ATOM      6  C   UNL     1      45.300   4.766  13.587  0.00  0.00    +0.000 C 
ATOM      7  C   UNL     1      46.063   6.038  13.180  0.00  0.00    +0.000 C 
ATOM      8  C   UNL     1      45.609   6.472  11.773  0.00  0.00    +0.000 C 
ATOM      9  C   UNL     1      45.625   5.334  10.745  0.00  0.00    +0.000 C 
ATOM     10  H   UNL     1      43.541   2.837   8.729  0.00  0.00    +0.000 HD
ATOM     11  H   UNL     1      42.688   2.048  10.436  0.00  0.00    +0.000 HD
ATOM     12  H   UNL     1      43.035   2.753  11.901  0.00  0.00    +0.000 HD
ENDROOT
BRANCH   7  13
ATOM     13  C   UNL     1      47.599   5.882  13.257  0.00  0.00    +0.000 C 
BRANCH  13  14
ATOM     14  N   UNL     1      48.161   6.244  14.554  0.00  0.00    +0.000 N 
ATOM     15  C   UNL     1      48.836   7.418  14.794  0.00  0.00    +0.000 A 
ATOM     16  C   UNL     1      49.108   7.487  16.142  0.00  0.00    +0.000 A 
ATOM     17  C   UNL     1      48.623   6.298  16.732  0.00  0.00    +0.000 A 
ATOM     18  N   UNL     1      48.664   5.928  18.034  0.00  0.00    +0.000 NA
ATOM     19  C   UNL     1      48.151   4.709  18.293  0.00  0.00    +0.000 A 
ATOM     20  C   UNL     1      47.622   3.843  17.349  0.00  0.00    +0.000 A 
ATOM     21  C   UNL     1      47.572   4.235  16.012  0.00  0.00    +0.000 A 
ATOM     22  C   UNL     1      48.076   5.507  15.719  0.00  0.00    +0.000 A 
ENDBRANCH  13  14
ENDBRANCH   7  13
TORSDOF 2
ENDMDL
MODEL 9
REMARK VINA RESULT:    -5.239      2.168      6.672
REMARK INTER + INTRA:          -6.245
REMARK INTER:                  -5.739
REMARK INTRA:                  -0.506
REMARK UNBOUND:                -0.393
REMARK  Name = 
REMARK  2 active torsions:
REMARK  status: ('A' for Active; 'I' for Inactive)
REMARK    1  A    between atoms: C_7  and  C_8
REMARK    2  A    between atoms: C_8  and  N_9
REMARK                            x       y       z     vdW  Elec       q    Type
REMARK                         _______ _______ _______ _____ _____    ______ ____
ROOT
ATOM      1  N   UNL     1      45.080   2.556  12.454  0.00  0.00    +0.000 NA
ATOM      2  C   UNL     1      44.307   3.541  12.164  0.00  0.00    +0.000 C 
ATOM      3  N   UNL     1      43.024   3.330  11.796  0.00  0.00    +0.000 N 
ATOM      4  N   UNL     1      44.706   4.851  12.149  0.00  0.00    +0.000 N 
ATOM      5  C   UNL     1      43.798   5.958  12.458  0.00  0.00    +0.000 C 
ATOM      6  C   UNL     1      44.116   7.111  11.513  0.00  0.00    +0.000 C 
ATOM      7  C   UNL     1      45.568   7.591  11.677  0.00  0.00    +0.000 C 
ATOM      8  C   UNL     1      46.519   6.389  11.517  0.00  0.00    +0.000 C 
ATOM      9  C   UNL     1      46.123   5.175  12.367  0.00  0.00    +0.000 C 
ATOM     10  H   UNL     1      44.554   1.685  12.397  0.00  0.00    +0.000 HD
ATOM     11  H   UNL     1      42.806   2.376  11.545  0.00  0.00    +0.000 HD
ATOM     12  H   UNL     1      42.724   3.967  11.067  0.00  0.00    +0.000 HD
ENDROOT
BRANCH   7  13
ATOM     13  C   UNL     1      45.820   8.339  13.007  0.00  0.00    +0.000 C 
BRANCH  13  14
ATOM     14  N   UNL     1      47.145   8.943  13.097  0.00  0.00    +0.000 N 
ATOM     15  C   UNL     1      47.490  10.122  12.477  0.00  0.00    +0.000 A 
ATOM     16  C   UNL     1      48.764  10.460  12.880  0.00  0.00    +0.000 A 
ATOM     17  C   UNL     1      49.222   9.432  13.734  0.00  0.00    +0.000 A 
ATOM     18  N   UNL     1      50.414   9.338  14.371  0.00  0.00    +0.000 NA
ATOM     19  C   UNL     1      50.582   8.213  15.095  0.00  0.00    +0.000 A 
ATOM     20  C   UNL     1      49.658   7.186  15.210  0.00  0.00    +0.000 A 
ATOM     21  C   UNL     1      48.429   7.295  14.562  0.00  0.00    +0.000 A 
ATOM     22  C   UNL     1      48.218   8.466  13.823  0.00  0.00    +0.000 A 
ENDBRANCH  13  14
ENDBRANCH   7  13
TORSDOF 2
ENDMDL
