MODEL 1
REMARK VINA RESULT:    -8.323      0.000      0.000
REMARK INTER + INTRA:         -11.482
REMARK INTER:                 -10.756
REMARK INTRA:                  -0.727
REMARK UNBOUND:                -0.727
REMARK  Name = 
REMARK  5 active torsions:
REMARK  status: ('A' for Active; 'I' for Inactive)
REMARK    1  A    between atoms: C_2  and  C_4
REMARK    2  A    between atoms: C_7  and  N_8
REMARK    3  A    between atoms: N_8  and  C_9
REMARK    4  A    between atoms: C_9  and  C_10
REMARK    5  A    between atoms: C_14  and  N_15
REMARK                            x       y       z     vdW  Elec       q    Type
REMARK                         _______ _______ _______ _____ _____    ______ ____
ROOT
ATOM      1  N   UNL     1      43.761   4.854   9.816  0.00  0.00    +0.000 N 
ATOM      2  H   UNL     1      43.977   5.827   9.605  0.00  0.00    +0.000 HD
ENDROOT
BRANCH   1   6
ATOM      3  C   UNL     1      46.195   2.036   7.961  0.00  0.00    +0.000 A 
ATOM      4  C   UNL     1      46.414   3.370   7.664  0.00  0.00    +0.000 A 
ATOM      5  C   UNL     1      45.587   4.327   8.255  0.00  0.00    +0.000 A 
ATOM      6  C   UNL     1      44.548   3.946   9.108  0.00  0.00    +0.000 A 
ATOM      7  C   UNL     1      44.447   2.570   9.359  0.00  0.00    +0.000 A 
ATOM      8  N   UNL     1      45.218   1.602   8.802  0.00  0.00    +0.000 NA
BRANCH   3  10
ATOM      9  N   UNL     1      46.778  -0.301   7.669  0.00  0.00    +0.000 N 
ATOM     10  C   UNL     1      47.086   0.995   7.358  0.00  0.00    +0.000 C 
ATOM     11  O   UNL     1      48.031   1.276   6.631  0.00  0.00    +0.000 OA
ATOM     12  H   UNL     1      47.344  -1.049   7.297  0.00  0.00    +0.000 HD
ATOM     13  H   UNL     1      45.989  -0.498   8.274  0.00  0.00    +0.000 HD
ENDBRANCH   3  10
ENDBRANCH   1   6
BRANCH   1  14
ATOM     14  C   UNL     1      43.482   4.663  11.238  0.00  0.00    +0.000 C 
BRANCH  14  15
ATOM     15  C   UNL     1      44.747   4.737  12.051  0.00  0.00    +0.000 A 
ATOM     16  C   UNL     1      45.167   3.634  12.780  0.00  0.00    +0.000 A 
ATOM     17  N   UNL     1      46.249   3.632  13.583  0.00  0.00    +0.000 NA
ATOM     18  C   UNL     1      46.937   4.798  13.666  0.00  0.00    +0.000 A 
ATOM     19  C   UNL     1      46.628   5.989  12.999  0.00  0.00    +0.000 A 
ATOM     20  C   UNL     1      45.486   5.925  12.195  0.00  0.00    +0.000 A 
BRANCH  19  21
ATOM     21  N   UNL     1      47.387   7.131  13.125  0.00  0.00    +0.000 N 
ATOM     22  C   UNL     1      46.825   8.476  13.319  0.00  0.00    +0.000 C 
ATOM     23  C   UNL     1      47.289   9.417  12.197  0.00  0.00    +0.000 C 
ATOM     24  O   UNL     1      48.721   9.424  12.067  0.00  0.00    +0.000 OA
ATOM     25  C   UNL     1      49.201   8.099  11.779  0.00  0.00    +0.000 C 
ATOM     26  C   UNL     1      48.841   7.110  12.901  0.00  0.00    +0.000 C 
ENDBRANCH  19  21
ENDBRANCH  14  15
ENDBRANCH   1  14
TORSDOF 5
ENDMDL
MODEL 2
REMARK VINA RESULT:    -7.631      2.206      3.014
REMARK INTER + INTRA:         -10.589
REMARK INTER:                  -9.895
REMARK INTRA:                  -0.694
REMARK UNBOUND:                -0.727
REMARK  Name = 
REMARK  5 active torsions:
REMARK  status: ('A' for Active; 'I' for Inactive)
REMARK    1  A    between atoms: C_2  and  C_4
REMARK    2  A    between atoms: C_7  and  N_8
REMARK    3  A    between atoms: N_8  and  C_9
REMARK    4  A    between atoms: C_9  and  C_10
REMARK    5  A    between atoms: C_14  and  N_15
REMARK                            x       y       z     vdW  Elec       q    Type
REMARK                         _______ _______ _______ _____ _____    ______ ____
ROOT
ATOM      1  N   UNL     1      43.492   3.895  10.215  0.00  0.00    +0.000 N 
ATOM      2  H   UNL     1      43.087   4.781   9.918  0.00  0.00    +0.000 HD
ENDROOT
BRANCH   1   6
ATOM      3  C   UNL     1      46.467   2.718   7.557  0.00  0.00    +0.000 A 
ATOM      4  C   UNL     1      45.914   1.747   8.373  0.00  0.00    +0.000 A 
ATOM      5  C   UNL     1      44.936   2.130   9.292  0.00  0.00    +0.000 A 
ATOM      6  C   UNL     1      44.540   3.466   9.401  0.00  0.00    +0.000 A 
ATOM      7  C   UNL     1      45.147   4.351   8.497  0.00  0.00    +0.000 A 
ATOM      8  N   UNL     1      46.109   4.029   7.594  0.00  0.00    +0.000 NA
BRANCH   3  10
ATOM      9  N   UNL     1      47.535   3.081   5.408  0.00  0.00    +0.000 N 
ATOM     10  C   UNL     1      47.501   2.325   6.546  0.00  0.00    +0.000 C 
ATOM     11  O   UNL     1      48.272   1.389   6.722  0.00  0.00    +0.000 OA
ATOM     12  H   UNL     1      48.206   2.863   4.687  0.00  0.00    +0.000 HD
ATOM     13  H   UNL     1      46.881   3.848   5.295  0.00  0.00    +0.000 HD
ENDBRANCH   3  10
ENDBRANCH   1   6
BRANCH   1  14
ATOM     14  C   UNL     1      43.584   3.809  11.671  0.00  0.00    +0.000 C 
BRANCH  14  15
ATOM     15  C   UNL     1      44.476   4.889  12.220  0.00  0.00    +0.000 A 
ATOM     16  C   UNL     1      44.319   6.201  11.795  0.00  0.00    +0.000 A 
ATOM     17  N   UNL     1      45.112   7.218  12.185  0.00  0.00    +0.000 NA
ATOM     18  C   UNL     1      46.120   6.900  13.036  0.00  0.00    +0.000 A 
ATOM     19  C   UNL     1      46.405   5.626  13.540  0.00  0.00    +0.000 A 
ATOM     20  C   UNL     1      45.553   4.617  13.083  0.00  0.00    +0.000 A 
BRANCH  19  21
ATOM     21  N   UNL     1      47.441   5.388  14.414  0.00  0.00    +0.000 N 
ATOM     22  C   UNL     1      47.466   4.277  15.377  0.00  0.00    +0.000 C 
ATOM     23  C   UNL     1      47.622   4.813  16.808  0.00  0.00    +0.000 C 
ATOM     24  O   UNL     1      48.761   5.681  16.929  0.00  0.00    +0.000 OA
ATOM     25  C   UNL     1      48.631   6.800  16.035  0.00  0.00    +0.000 C 
ATOM     26  C   UNL     1      48.547   6.346  14.568  0.00  0.00    +0.000 C 
ENDBRANCH  19  21
ENDBRANCH  14  15
ENDBRANCH   1  14
TORSDOF 5
ENDMDL
MODEL 3
REMARK VINA RESULT:    -7.581      1.599      2.166
REMARK INTER + INTRA:         -10.523
REMARK INTER:                  -9.788
REMARK INTRA:                  -0.735
REMARK UNBOUND:                -0.727
REMARK  Name = 
REMARK  5 active torsions:
REMARK  status: ('A' for Active; 'I' for Inactive)
REMARK    1  A    between atoms: C_2  and  C_4
REMARK    2  A    between atoms: C_7  and  N_8
REMARK    3  A    between atoms: N_8  and  C_9
REMARK    4  A    between atoms: C_9  and  C_10
REMARK    5  A    between atoms: C_14  and  N_15
REMARK                            x       y       z     vdW  Elec       q    Type
REMARK                         _______ _______ _______ _____ _____    ______ ____
ROOT
ATOM      1  N   UNL     1      43.615   4.146  10.419  0.00  0.00    +0.000 N 
ATOM      2  H   UNL     1      43.155   4.996  10.097  0.00  0.00    +0.000 HD
ENDROOT
BRANCH   1   6
ATOM      3  C   UNL     1      46.358   2.397   7.827  0.00  0.00    +0.000 A 
ATOM      4  C   UNL     1      46.145   3.759   7.714  0.00  0.00    +0.000 A 
ATOM      5  C   UNL     1      45.206   4.358   8.555  0.00  0.00    +0.000 A 
ATOM      6  C   UNL     1      44.482   3.595   9.475  0.00  0.00    +0.000 A 
ATOM      7  C   UNL     1      44.809   2.232   9.521  0.00  0.00    +0.000 A 
ATOM      8  N   UNL     1      45.705   1.603   8.718  0.00  0.00    +0.000 NA
BRANCH   3  10
ATOM      9  N   UNL     1      48.420   2.531   6.555  0.00  0.00    +0.000 N 
ATOM     10  C   UNL     1      47.379   1.738   6.951  0.00  0.00    +0.000 C 
ATOM     11  O   UNL     1      47.295   0.565   6.608  0.00  0.00    +0.000 OA
ATOM     12  H   UNL     1      49.138   2.146   5.960  0.00  0.00    +0.000 HD
ATOM     13  H   UNL     1      48.458   3.498   6.856  0.00  0.00    +0.000 HD
ENDBRANCH   3  10
ENDBRANCH   1   6
BRANCH   1  14
ATOM     14  C   UNL     1      43.993   4.242  11.827  0.00  0.00    +0.000 C 
BRANCH  14  15
ATOM     15  C   UNL     1      44.804   5.484  12.084  0.00  0.00    +0.000 A 
ATOM     16  C   UNL     1      44.341   6.717  11.645  0.00  0.00    +0.000 A 
ATOM     17  N   UNL     1      45.029   7.868  11.776  0.00  0.00    +0.000 NA
ATOM     18  C   UNL     1      46.247   7.775  12.367  0.00  0.00    +0.000 A 
ATOM     19  C   UNL     1      46.845   6.605  12.848  0.00  0.00    +0.000 A 
ATOM     20  C   UNL     1      46.083   5.447  12.668  0.00  0.00    +0.000 A 
BRANCH  19  21
ATOM     21  N   UNL     1      48.082   6.597  13.451  0.00  0.00    +0.000 N 
ATOM     22  C   UNL     1      48.298   6.338  14.882  0.00  0.00    +0.000 C 
ATOM     23  C   UNL     1      49.026   7.523  15.537  0.00  0.00    +0.000 C 
ATOM     24  O   UNL     1      50.240   7.851  14.839  0.00  0.00    +0.000 OA
ATOM     25  C   UNL     1      49.952   8.191  13.472  0.00  0.00    +0.000 C 
ATOM     26  C   UNL     1      49.289   7.021  12.724  0.00  0.00    +0.000 C 
ENDBRANCH  19  21
ENDBRANCH  14  15
ENDBRANCH   1  14
TORSDOF 5
ENDMDL
MODEL 4
REMARK VINA RESULT:    -6.930      2.580      6.854
REMARK INTER + INTRA:          -9.683
REMARK INTER:                  -9.230
REMARK INTRA:                  -0.453
REMARK UNBOUND:                -0.727
REMARK  Name = 
REMARK  5 active torsions:
REMARK  status: ('A' for Active; 'I' for Inactive)
REMARK    1  A    between atoms: C_2  and  C_4
REMARK    2  A    between atoms: C_7  and  N_8
REMARK    3  A    between atoms: N_8  and  C_9
REMARK    4  A    between atoms: C_9  and  C_10
REMARK    5  A    between atoms: C_14  and  N_15
REMARK                            x       y       z     vdW  Elec       q    Type
REMARK                         _______ _______ _______ _____ _____    ______ ____
ROOT
ATOM      1  N   UNL     1      47.128   6.443  12.583  0.00  0.00    +0.000 N 
ATOM      2  H   UNL     1      47.793   7.202  12.438  0.00  0.00    +0.000 HD
ENDROOT
BRANCH   1   6
ATOM      3  C   UNL     1      47.811   3.916  15.816  0.00  0.00    +0.000 A 
ATOM      4  C   UNL     1      48.109   5.258  15.975  0.00  0.00    +0.000 A 
ATOM      5  C   UNL     1      47.915   6.115  14.890  0.00  0.00    +0.000 A 
ATOM      6  C   UNL     1      47.450   5.626  13.667  0.00  0.00    +0.000 A 
ATOM      7  C   UNL     1      47.150   4.256  13.638  0.00  0.00    +0.000 A 
ATOM      8  N   UNL     1      47.332   3.382  14.661  0.00  0.00    +0.000 NA
BRANCH   3  10
ATOM      9  N   UNL     1      46.856   2.701  17.687  0.00  0.00    +0.000 N 
ATOM     10  C   UNL     1      47.988   2.983  16.974  0.00  0.00    +0.000 C 
ATOM     11  O   UNL     1      49.074   2.497  17.269  0.00  0.00    +0.000 OA
ATOM     12  H   UNL     1      46.912   2.082  18.482  0.00  0.00    +0.000 HD
ATOM     13  H   UNL     1      45.974   3.121  17.416  0.00  0.00    +0.000 HD
ENDBRANCH   3  10
ENDBRANCH   1   6
BRANCH   1  14
ATOM     14  C   UNL     1      45.754   6.882  12.350  0.00  0.00    +0.000 C 
BRANCH  14  15
ATOM     15  C   UNL     1      44.910   5.755  11.819  0.00  0.00    +0.000 A 
ATOM     16  C   UNL     1      43.837   5.283  12.562  0.00  0.00    +0.000 A 
ATOM     17  N   UNL     1      43.069   4.240  12.194  0.00  0.00    +0.000 NA
ATOM     18  C   UNL     1      43.402   3.631  11.028  0.00  0.00    +0.000 A 
ATOM     19  C   UNL     1      44.458   3.988  10.182  0.00  0.00    +0.000 A 
ATOM     20  C   UNL     1      45.222   5.069  10.631  0.00  0.00    +0.000 A 
BRANCH  19  21
ATOM     21  N   UNL     1      44.723   3.327   9.004  0.00  0.00    +0.000 N 
ATOM     22  C   UNL     1      44.694   1.864   8.857  0.00  0.00    +0.000 C 
ATOM     23  C   UNL     1      46.054   1.349   8.361  0.00  0.00    +0.000 C 
ATOM     24  O   UNL     1      46.471   2.023   7.161  0.00  0.00    +0.000 OA
ATOM     25  C   UNL     1      46.577   3.437   7.396  0.00  0.00    +0.000 C 
ATOM     26  C   UNL     1      45.229   4.043   7.823  0.00  0.00    +0.000 C 
ENDBRANCH  19  21
ENDBRANCH  14  15
ENDBRANCH   1  14
TORSDOF 5
ENDMDL
MODEL 5
REMARK VINA RESULT:    -6.804      1.899      6.803
REMARK INTER + INTRA:          -9.519
REMARK INTER:                  -8.809
REMARK INTRA:                  -0.710
REMARK UNBOUND:                -0.727
REMARK  Name = 
REMARK  5 active torsions:
REMARK  status: ('A' for Active; 'I' for Inactive)
REMARK    1  A    between atoms: C_2  and  C_4
REMARK    2  A    between atoms: C_7  and  N_8
REMARK    3  A    between atoms: N_8  and  C_9
REMARK    4  A    between atoms: C_9  and  C_10
REMARK    5  A    between atoms: C_14  and  N_15
REMARK                            x       y       z     vdW  Elec       q    Type
REMARK                         _______ _______ _______ _____ _____    ______ ____
ROOT
ATOM      1  N   UNL     1      46.052   6.100  13.706  0.00  0.00    +0.000 N 
ATOM      2  H   UNL     1      46.068   5.168  14.117  0.00  0.00    +0.000 HD
ENDROOT
BRANCH   1   6
ATOM      3  C   UNL     1      49.791   7.636  12.726  0.00  0.00    +0.000 A 
ATOM      4  C   UNL     1      48.821   7.629  11.739  0.00  0.00    +0.000 A 
ATOM      5  C   UNL     1      47.570   7.089  12.042  0.00  0.00    +0.000 A 
ATOM      6  C   UNL     1      47.310   6.550  13.305  0.00  0.00    +0.000 A 
ATOM      7  C   UNL     1      48.359   6.646  14.230  0.00  0.00    +0.000 A 
ATOM      8  N   UNL     1      49.595   7.151  13.980  0.00  0.00    +0.000 NA
BRANCH   3  10
ATOM      9  N   UNL     1      51.693   7.870  11.237  0.00  0.00    +0.000 N 
ATOM     10  C   UNL     1      51.133   8.233  12.430  0.00  0.00    +0.000 C 
ATOM     11  O   UNL     1      51.699   8.999  13.202  0.00  0.00    +0.000 OA
ATOM     12  H   UNL     1      52.599   8.235  10.982  0.00  0.00    +0.000 HD
ATOM     13  H   UNL     1      51.198   7.233  10.623  0.00  0.00    +0.000 HD
ENDBRANCH   3  10
ENDBRANCH   1   6
BRANCH   1  14
ATOM     14  C   UNL     1      44.876   6.292  12.860  0.00  0.00    +0.000 C 
BRANCH  14  15
ATOM     15  C   UNL     1      44.423   4.988  12.262  0.00  0.00    +0.000 A 
ATOM     16  C   UNL     1      43.725   4.074  13.040  0.00  0.00    +0.000 A 
ATOM     17  N   UNL     1      43.338   2.859  12.606  0.00  0.00    +0.000 NA
ATOM     18  C   UNL     1      43.677   2.540  11.332  0.00  0.00    +0.000 A 
ATOM     19  C   UNL     1      44.384   3.352  10.438  0.00  0.00    +0.000 A 
ATOM     20  C   UNL     1      44.767   4.592  10.957  0.00  0.00    +0.000 A 
BRANCH  19  21
ATOM     21  N   UNL     1      44.678   2.960   9.151  0.00  0.00    +0.000 N 
ATOM     22  C   UNL     1      44.981   1.575   8.762  0.00  0.00    +0.000 C 
ATOM     23  C   UNL     1      46.367   1.494   8.104  0.00  0.00    +0.000 C 
ATOM     24  O   UNL     1      46.492   2.420   7.012  0.00  0.00    +0.000 OA
ATOM     25  C   UNL     1      46.284   3.766   7.475  0.00  0.00    +0.000 C 
ATOM     26  C   UNL     1      44.881   3.947   8.079  0.00  0.00    +0.000 C 
ENDBRANCH  19  21
ENDBRANCH  14  15
ENDBRANCH   1  14
TORSDOF 5
ENDMDL
MODEL 6
REMARK VINA RESULT:    -6.359      3.242      7.311
REMARK INTER + INTRA:          -8.945
REMARK INTER:                  -8.529
REMARK INTRA:                  -0.416
REMARK UNBOUND:                -0.727
REMARK  Name = 
REMARK  5 active torsions:
REMARK  status: ('A' for Active; 'I' for Inactive)
REMARK    1  A    between atoms: C_2  and  C_4
REMARK    2  A    between atoms: C_7  and  N_8
REMARK    3  A    between atoms: N_8  and  C_9
REMARK    4  A    between atoms: C_9  and  C_10
REMARK    5  A    between atoms: C_14  and  N_15
REMARK                            x       y       z     vdW  Elec       q    Type
REMARK                         _______ _______ _______ _____ _____    ______ ____
ROOT
ATOM      1  N   UNL     1      48.566   7.437  13.950  0.00  0.00    +0.000 N 
ATOM      2  H   UNL     1      48.052   8.277  14.211  0.00  0.00    +0.000 HD
ENDROOT
BRANCH   1   6
ATOM      3  C   UNL     1      47.936   4.373  16.693  0.00  0.00    +0.000 A 
ATOM      4  C   UNL     1      48.618   5.496  17.129  0.00  0.00    +0.000 A 
ATOM      5  C   UNL     1      48.865   6.520  16.214  0.00  0.00    +0.000 A 
ATOM      6  C   UNL     1      48.452   6.406  14.884  0.00  0.00    +0.000 A 
ATOM      7  C   UNL     1      47.740   5.239  14.570  0.00  0.00    +0.000 A 
ATOM      8  N   UNL     1      47.486   4.211  15.421  0.00  0.00    +0.000 NA
BRANCH   3  10
ATOM      9  N   UNL     1      48.653   2.948  18.522  0.00  0.00    +0.000 N 
ATOM     10  C   UNL     1      47.639   3.273  17.664  0.00  0.00    +0.000 C 
ATOM     11  O   UNL     1      46.558   2.696  17.697  0.00  0.00    +0.000 OA
ATOM     12  H   UNL     1      48.516   2.212  19.197  0.00  0.00    +0.000 HD
ATOM     13  H   UNL     1      49.535   3.446  18.467  0.00  0.00    +0.000 HD
ENDBRANCH   3  10
ENDBRANCH   1   6
BRANCH   1  14
ATOM     14  C   UNL     1      48.468   7.172  12.517  0.00  0.00    +0.000 C 
BRANCH  14  15
ATOM     15  C   UNL     1      47.041   7.270  12.047  0.00  0.00    +0.000 A 
ATOM     16  C   UNL     1      46.353   8.469  12.167  0.00  0.00    +0.000 A 
ATOM     17  N   UNL     1      45.058   8.629  11.832  0.00  0.00    +0.000 NA
ATOM     18  C   UNL     1      44.419   7.528  11.363  0.00  0.00    +0.000 A 
ATOM     19  C   UNL     1      44.979   6.256  11.197  0.00  0.00    +0.000 A 
ATOM     20  C   UNL     1      46.320   6.158  11.577  0.00  0.00    +0.000 A 
BRANCH  19  21
ATOM     21  N   UNL     1      44.265   5.189  10.699  0.00  0.00    +0.000 N 
ATOM     22  C   UNL     1      43.113   4.580  11.381  0.00  0.00    +0.000 C 
ATOM     23  C   UNL     1      43.369   3.087  11.634  0.00  0.00    +0.000 C 
ATOM     24  O   UNL     1      43.730   2.398  10.425  0.00  0.00    +0.000 OA
ATOM     25  C   UNL     1      44.919   2.975   9.860  0.00  0.00    +0.000 C 
ATOM     26  C   UNL     1      44.716   4.458   9.505  0.00  0.00    +0.000 C 
ENDBRANCH  19  21
ENDBRANCH  14  15
ENDBRANCH   1  14
TORSDOF 5
ENDMDL
MODEL 7
REMARK VINA RESULT:    -6.294      3.624      8.247
REMARK INTER + INTRA:          -8.861
REMARK INTER:                  -8.411
REMARK INTRA:                  -0.449
REMARK UNBOUND:                -0.727
REMARK  Name = 
REMARK  5 active torsions:
REMARK  status: ('A' for Active; 'I' for Inactive)
REMARK    1  A    between atoms: C_2  and  C_4
REMARK    2  A    between atoms: C_7  and  N_8
REMARK    3  A    between atoms: N_8  and  C_9
REMARK    4  A    between atoms: C_9  and  C_10
REMARK    5  A    between atoms: C_14  and  N_15
REMARK                            x       y       z     vdW  Elec       q    Type
REMARK                         _______ _______ _______ _____ _____    ______ ____
ROOT
ATOM      1  N   UNL     1      46.786   3.929  14.662  0.00  0.00    +0.000 N 
ATOM      2  H   UNL     1      47.118   3.049  14.270  0.00  0.00    +0.000 HD
ENDROOT
BRANCH   1   6
ATOM      3  C   UNL     1      48.727   4.884  18.214  0.00  0.00    +0.000 A 
ATOM      4  C   UNL     1      48.119   3.645  18.128  0.00  0.00    +0.000 A 
ATOM      5  C   UNL     1      47.438   3.319  16.954  0.00  0.00    +0.000 A 
ATOM      6  C   UNL     1      47.352   4.232  15.900  0.00  0.00    +0.000 A 
ATOM      7  C   UNL     1      48.037   5.441  16.091  0.00  0.00    +0.000 A 
ATOM      8  N   UNL     1      48.703   5.808  17.216  0.00  0.00    +0.000 NA
BRANCH   3  10
ATOM      9  N   UNL     1      49.843   6.560  19.570  0.00  0.00    +0.000 N 
ATOM     10  C   UNL     1      49.485   5.245  19.455  0.00  0.00    +0.000 C 
ATOM     11  O   UNL     1      49.769   4.422  20.317  0.00  0.00    +0.000 OA
ATOM     12  H   UNL     1      50.359   6.864  20.382  0.00  0.00    +0.000 HD
ATOM     13  H   UNL     1      49.593   7.214  18.837  0.00  0.00    +0.000 HD
ENDBRANCH   3  10
ENDBRANCH   1   6
BRANCH   1  14
ATOM     14  C   UNL     1      46.635   4.952  13.629  0.00  0.00    +0.000 C 
BRANCH  14  15
ATOM     15  C   UNL     1      45.457   4.652  12.741  0.00  0.00    +0.000 A 
ATOM     16  C   UNL     1      44.167   4.844  13.214  0.00  0.00    +0.000 A 
ATOM     17  N   UNL     1      43.057   4.543  12.512  0.00  0.00    +0.000 NA
ATOM     18  C   UNL     1      43.252   4.013  11.279  0.00  0.00    +0.000 A 
ATOM     19  C   UNL     1      44.489   3.755  10.677  0.00  0.00    +0.000 A 
ATOM     20  C   UNL     1      45.597   4.077  11.465  0.00  0.00    +0.000 A 
BRANCH  19  21
ATOM     21  N   UNL     1      44.604   3.226   9.411  0.00  0.00    +0.000 N 
ATOM     22  C   UNL     1      44.712   1.787   9.127  0.00  0.00    +0.000 C 
ATOM     23  C   UNL     1      46.006   1.491   8.353  0.00  0.00    +0.000 C 
ATOM     24  O   UNL     1      46.116   2.303   7.171  0.00  0.00    +0.000 OA
ATOM     25  C   UNL     1      46.104   3.697   7.523  0.00  0.00    +0.000 C 
ATOM     26  C   UNL     1      44.800   4.091   8.236  0.00  0.00    +0.000 C 
ENDBRANCH  19  21
ENDBRANCH  14  15
ENDBRANCH   1  14
TORSDOF 5
ENDMDL
MODEL 8
REMARK VINA RESULT:    -6.223      5.096      8.153
REMARK INTER + INTRA:          -8.768
REMARK INTER:                  -8.182
REMARK INTRA:                  -0.586
REMARK UNBOUND:                -0.727
REMARK  Name = 
REMARK  5 active torsions:
REMARK  status: ('A' for Active; 'I' for Inactive)
REMARK    1  A    between atoms: C_2  and  C_4
REMARK    2  A    between atoms: C_7  and  N_8
REMARK    3  A    between atoms: N_8  and  C_9
REMARK    4  A    between atoms: C_9  and  C_10
REMARK    5  A    between atoms: C_14  and  N_15
REMARK                            x       y       z     vdW  Elec       q    Type
REMARK                         _______ _______ _______ _____ _____    ______ ____
ROOT
ATOM      1  N   UNL     1      48.904   4.784  17.191  0.00  0.00    +0.000 N 
ATOM      2  H   UNL     1      48.839   5.431  17.975  0.00  0.00    +0.000 HD
ENDROOT
BRANCH   1   6
ATOM      3  C   UNL     1      51.916   1.942  17.581  0.00  0.00    +0.000 A 
ATOM      4  C   UNL     1      50.686   1.514  17.115  0.00  0.00    +0.000 A 
ATOM      5  C   UNL     1      49.655   2.449  17.006  0.00  0.00    +0.000 A 
ATOM      6  C   UNL     1      49.854   3.780  17.381  0.00  0.00    +0.000 A 
ATOM      7  C   UNL     1      51.152   4.101  17.805  0.00  0.00    +0.000 A 
ATOM      8  N   UNL     1      52.183   3.226  17.938  0.00  0.00    +0.000 NA
BRANCH   3  10
ATOM      9  N   UNL     1      52.762  -0.200  18.348  0.00  0.00    +0.000 N 
ATOM     10  C   UNL     1      53.044   0.961  17.682  0.00  0.00    +0.000 C 
ATOM     11  O   UNL     1      54.150   1.175  17.200  0.00  0.00    +0.000 OA
ATOM     12  H   UNL     1      53.482  -0.898  18.454  0.00  0.00    +0.000 HD
ATOM     13  H   UNL     1      51.837  -0.344  18.736  0.00  0.00    +0.000 HD
ENDBRANCH   3  10
ENDBRANCH   1   6
BRANCH   1  14
ATOM     14  C   UNL     1      47.587   4.482  16.635  0.00  0.00    +0.000 C 
BRANCH  14  15
ATOM     15  C   UNL     1      47.448   5.041  15.244  0.00  0.00    +0.000 A 
ATOM     16  C   UNL     1      48.157   6.177  14.880  0.00  0.00    +0.000 A 
ATOM     17  N   UNL     1      48.046   6.781  13.681  0.00  0.00    +0.000 NA
ATOM     18  C   UNL     1      47.169   6.223  12.808  0.00  0.00    +0.000 A 
ATOM     19  C   UNL     1      46.382   5.090  13.039  0.00  0.00    +0.000 A 
ATOM     20  C   UNL     1      46.537   4.523  14.307  0.00  0.00    +0.000 A 
BRANCH  19  21
ATOM     21  N   UNL     1      45.524   4.576  12.093  0.00  0.00    +0.000 N 
ATOM     22  C   UNL     1      44.856   5.385  11.062  0.00  0.00    +0.000 C 
ATOM     23  C   UNL     1      43.330   5.234  11.168  0.00  0.00    +0.000 C 
ATOM     24  O   UNL     1      42.930   3.854  11.141  0.00  0.00    +0.000 OA
ATOM     25  C   UNL     1      43.536   3.138  12.231  0.00  0.00    +0.000 C 
ATOM     26  C   UNL     1      45.071   3.177  12.150  0.00  0.00    +0.000 C 
ENDBRANCH  19  21
ENDBRANCH  14  15
ENDBRANCH   1  14
TORSDOF 5
ENDMDL
MODEL 9
REMARK VINA RESULT:    -6.213      3.720      5.783
REMARK INTER + INTRA:          -8.756
REMARK INTER:                  -8.101
REMARK INTRA:                  -0.654
REMARK UNBOUND:                -0.727
REMARK  Name = 
REMARK  5 active torsions:
REMARK  status: ('A' for Active; 'I' for Inactive)
REMARK    1  A    between atoms: C_2  and  C_4
REMARK    2  A    between atoms: C_7  and  N_8
REMARK    3  A    between atoms: N_8  and  C_9
REMARK    4  A    between atoms: C_9  and  C_10
REMARK    5  A    between atoms: C_14  and  N_15
REMARK                            x       y       z     vdW  Elec       q    Type
REMARK                         _______ _______ _______ _____ _____    ______ ____
ROOT
ATOM      1  N   UNL     1      46.570   7.367  13.379  0.00  0.00    +0.000 N 
ATOM      2  H   UNL     1      46.033   8.226  13.490  0.00  0.00    +0.000 HD
ENDROOT
BRANCH   1   6
ATOM      3  C   UNL     1      44.625   4.107  11.677  0.00  0.00    +0.000 A 
ATOM      4  C   UNL     1      44.890   5.195  10.863  0.00  0.00    +0.000 A 
ATOM      5  C   UNL     1      45.515   6.309  11.425  0.00  0.00    +0.000 A 
ATOM      6  C   UNL     1      45.846   6.335  12.782  0.00  0.00    +0.000 A 
ATOM      7  C   UNL     1      45.559   5.162  13.496  0.00  0.00    +0.000 A 
ATOM      8  N   UNL     1      44.944   4.059  12.997  0.00  0.00    +0.000 NA
BRANCH   3  10
ATOM      9  N   UNL     1      44.656   2.297  10.061  0.00  0.00    +0.000 N 
ATOM     10  C   UNL     1      43.978   2.892  11.089  0.00  0.00    +0.000 C 
ATOM     11  O   UNL     1      42.910   2.450  11.498  0.00  0.00    +0.000 OA
ATOM     12  H   UNL     1      44.268   1.476   9.620  0.00  0.00    +0.000 HD
ATOM     13  H   UNL     1      45.536   2.689   9.747  0.00  0.00    +0.000 HD
ENDBRANCH   3  10
ENDBRANCH   1   6
BRANCH   1  14
ATOM     14  C   UNL     1      47.950   7.645  12.988  0.00  0.00    +0.000 C 
BRANCH  14  15
ATOM     15  C   UNL     1      48.895   7.396  14.133  0.00  0.00    +0.000 A 
ATOM     16  C   UNL     1      50.159   7.969  14.125  0.00  0.00    +0.000 A 
ATOM     17  N   UNL     1      51.090   7.751  15.074  0.00  0.00    +0.000 NA
ATOM     18  C   UNL     1      50.738   6.905  16.076  0.00  0.00    +0.000 A 
ATOM     19  C   UNL     1      49.509   6.248  16.209  0.00  0.00    +0.000 A 
ATOM     20  C   UNL     1      48.597   6.509  15.183  0.00  0.00    +0.000 A 
BRANCH  19  21
ATOM     21  N   UNL     1      49.224   5.414  17.266  0.00  0.00    +0.000 N 
ATOM     22  C   UNL     1      50.186   4.468  17.850  0.00  0.00    +0.000 C 
ATOM     23  C   UNL     1      49.635   3.035  17.786  0.00  0.00    +0.000 C 
ATOM     24  O   UNL     1      48.329   2.941  18.380  0.00  0.00    +0.000 OA
ATOM     25  C   UNL     1      47.410   3.815  17.702  0.00  0.00    +0.000 C 
ATOM     26  C   UNL     1      47.855   5.284  17.790  0.00  0.00    +0.000 C 
ENDBRANCH  19  21
ENDBRANCH  14  15
ENDBRANCH   1  14
TORSDOF 5
ENDMDL
