MODEL 1
REMARK VINA RESULT:    -8.924      0.000      0.000
REMARK INTER + INTRA:         -12.043
REMARK INTER:                 -11.532
REMARK INTRA:                  -0.510
REMARK UNBOUND:                -0.510
REMARK  Name = 
REMARK  6 active torsions:
REMARK  status: ('A' for Active; 'I' for Inactive)
REMARK    1  A    between atoms: C_1  and  C_2
REMARK    2  A    between atoms: C_2  and  N_3
REMARK    3  A    between atoms: C_2  and  C_16
REMARK    4  A    between atoms: C_4  and  C_6
REMARK    5  A    between atoms: C_19  and  O_20
REMARK    6  A    between atoms: O_20  and  C_21
REMARK                            x       y       z     vdW  Elec       q    Type
REMARK                         _______ _______ _______ _____ _____    ______ ____
ROOT
ATOM      1  C   UNL     1      45.323   8.574  12.844  0.00  0.00    +0.000 C 
ATOM      2  C   UNL     1      46.441   7.540  12.685  0.00  0.00    +0.000 C 
ENDROOT
BRANCH   2   3
ATOM      3  C   UNL     1      45.930   6.365  11.857  0.00  0.00    +0.000 A 
ATOM      4  C   UNL     1      46.088   6.387  10.463  0.00  0.00    +0.000 A 
ATOM      5  C   UNL     1      45.643   5.323   9.674  0.00  0.00    +0.000 A 
ATOM      6  C   UNL     1      45.072   4.198  10.268  0.00  0.00    +0.000 A 
ATOM      7  C   UNL     1      44.848   4.188  11.645  0.00  0.00    +0.000 A 
ATOM      8  C   UNL     1      45.266   5.268  12.432  0.00  0.00    +0.000 A 
BRANCH   6   9
ATOM      9  O   UNL     1      44.631   3.102   9.558  0.00  0.00    +0.000 OA
BRANCH   9  10
ATOM     10  C   UNL     1      45.454   2.591   8.558  0.00  0.00    +0.000 A 
ATOM     11  C   UNL     1      45.720   3.431   7.486  0.00  0.00    +0.000 A 
ATOM     12  C   UNL     1      46.565   2.971   6.479  0.00  0.00    +0.000 A 
ATOM     13  C   UNL     1      47.105   1.691   6.573  0.00  0.00    +0.000 A 
ATOM     14  C   UNL     1      46.756   0.913   7.664  0.00  0.00    +0.000 A 
ATOM     15  N   UNL     1      45.933   1.329   8.647  0.00  0.00    +0.000 NA
ENDBRANCH   9  10
ENDBRANCH   6   9
ENDBRANCH   2   3
BRANCH   2  16
ATOM     16  N   UNL     1      46.983   7.098  13.962  0.00  0.00    +0.000 N 
ATOM     17  C   UNL     1      48.273   6.647  14.097  0.00  0.00    +0.000 C 
ATOM     18  O   UNL     1      49.075   6.636  13.169  0.00  0.00    +0.000 OA
ATOM     19  H   UNL     1      46.304   6.746  14.630  0.00  0.00    +0.000 HD
BRANCH  17  20
ATOM     20  C   UNL     1      48.678   6.232  15.445  0.00  0.00    +0.000 A 
ATOM     21  C   UNL     1      49.643   6.959  16.128  0.00  0.00    +0.000 A 
ATOM     22  S   UNL     1      49.988   6.347  17.681  0.00  0.00    +0.000 S 
ATOM     23  C   UNL     1      48.892   5.062  17.478  0.00  0.00    +0.000 A 
ATOM     24  N   UNL     1      48.724   4.121  18.445  0.00  0.00    +0.000 NA
ATOM     25  C   UNL     1      47.886   3.186  18.142  0.00  0.00    +0.000 A 
ATOM     26  N   UNL     1      47.188   3.116  16.964  0.00  0.00    +0.000 N 
ATOM     27  C   UNL     1      47.289   4.069  15.979  0.00  0.00    +0.000 A 
ATOM     28  O   UNL     1      46.597   4.026  14.967  0.00  0.00    +0.000 OA
ATOM     29  C   UNL     1      48.246   5.120  16.255  0.00  0.00    +0.000 A 
ATOM     30  H   UNL     1      46.530   2.369  16.795  0.00  0.00    +0.000 HD
ENDBRANCH  17  20
ENDBRANCH   2  16
TORSDOF 5
ENDMDL
MODEL 2
REMARK VINA RESULT:    -8.274      1.672      2.163
REMARK INTER + INTRA:         -11.202
REMARK INTER:                 -10.408
REMARK INTRA:                  -0.794
REMARK UNBOUND:                -0.510
REMARK  Name = 
REMARK  6 active torsions:
REMARK  status: ('A' for Active; 'I' for Inactive)
REMARK    1  A    between atoms: C_1  and  C_2
REMARK    2  A    between atoms: C_2  and  N_3
REMARK    3  A    between atoms: C_2  and  C_16
REMARK    4  A    between atoms: C_4  and  C_6
REMARK    5  A    between atoms: C_19  and  O_20
REMARK    6  A    between atoms: O_20  and  C_21
REMARK                            x       y       z     vdW  Elec       q    Type
REMARK                         _______ _______ _______ _____ _____    ______ ____
ROOT
ATOM      1  C   UNL     1      46.178   8.137  13.193  0.00  0.00    +0.000 C 
ATOM      2  C   UNL     1      46.962   6.823  13.143  0.00  0.00    +0.000 C 
ENDROOT
BRANCH   2   3
ATOM      3  C   UNL     1      46.309   5.882  12.135  0.00  0.00    +0.000 A 
ATOM      4  C   UNL     1      46.200   6.283  10.795  0.00  0.00    +0.000 A 
ATOM      5  C   UNL     1      45.618   5.443   9.841  0.00  0.00    +0.000 A 
ATOM      6  C   UNL     1      45.176   4.169  10.201  0.00  0.00    +0.000 A 
ATOM      7  C   UNL     1      45.219   3.782  11.540  0.00  0.00    +0.000 A 
ATOM      8  C   UNL     1      45.772   4.636  12.502  0.00  0.00    +0.000 A 
BRANCH   6   9
ATOM      9  O   UNL     1      44.615   3.278   9.313  0.00  0.00    +0.000 OA
BRANCH   9  10
ATOM     10  C   UNL     1      45.449   2.656   8.388  0.00  0.00    +0.000 A 
ATOM     11  C   UNL     1      45.766   3.385   7.251  0.00  0.00    +0.000 A 
ATOM     12  C   UNL     1      46.624   2.812   6.315  0.00  0.00    +0.000 A 
ATOM     13  C   UNL     1      47.126   1.534   6.543  0.00  0.00    +0.000 A 
ATOM     14  C   UNL     1      46.729   0.870   7.691  0.00  0.00    +0.000 A 
ATOM     15  N   UNL     1      45.892   1.396   8.608  0.00  0.00    +0.000 NA
ENDBRANCH   9  10
ENDBRANCH   6   9
ENDBRANCH   2   3
BRANCH   2  16
ATOM     16  N   UNL     1      47.091   6.197  14.452  0.00  0.00    +0.000 N 
ATOM     17  C   UNL     1      48.298   6.084  15.097  0.00  0.00    +0.000 C 
ATOM     18  O   UNL     1      49.340   6.548  14.647  0.00  0.00    +0.000 OA
ATOM     19  H   UNL     1      46.385   5.504  14.680  0.00  0.00    +0.000 HD
BRANCH  17  20
ATOM     20  C   UNL     1      48.274   5.427  16.409  0.00  0.00    +0.000 A 
ATOM     21  C   UNL     1      48.152   4.046  16.485  0.00  0.00    +0.000 A 
ATOM     22  S   UNL     1      48.148   3.448  18.081  0.00  0.00    +0.000 S 
ATOM     23  C   UNL     1      48.263   5.016  18.728  0.00  0.00    +0.000 A 
ATOM     24  N   UNL     1      48.270   5.224  20.072  0.00  0.00    +0.000 NA
ATOM     25  C   UNL     1      48.328   6.467  20.420  0.00  0.00    +0.000 A 
ATOM     26  N   UNL     1      48.394   7.520  19.546  0.00  0.00    +0.000 N 
ATOM     27  C   UNL     1      48.439   7.356  18.182  0.00  0.00    +0.000 A 
ATOM     28  O   UNL     1      48.577   8.309  17.423  0.00  0.00    +0.000 OA
ATOM     29  C   UNL     1      48.338   5.981  17.738  0.00  0.00    +0.000 A 
ATOM     30  H   UNL     1      48.459   8.470  19.882  0.00  0.00    +0.000 HD
ENDBRANCH  17  20
ENDBRANCH   2  16
TORSDOF 5
ENDMDL
MODEL 3
REMARK VINA RESULT:    -8.039      2.690      4.014
REMARK INTER + INTRA:         -10.899
REMARK INTER:                  -9.912
REMARK INTRA:                  -0.987
REMARK UNBOUND:                -0.510
REMARK  Name = 
REMARK  6 active torsions:
REMARK  status: ('A' for Active; 'I' for Inactive)
REMARK    1  A    between atoms: C_1  and  C_2
REMARK    2  A    between atoms: C_2  and  N_3
REMARK    3  A    between atoms: C_2  and  C_16
REMARK    4  A    between atoms: C_4  and  C_6
REMARK    5  A    between atoms: C_19  and  O_20
REMARK    6  A    between atoms: O_20  and  C_21
REMARK                            x       y       z     vdW  Elec       q    Type
REMARK                         _______ _______ _______ _____ _____    ______ ____
ROOT
ATOM      1  C   UNL     1      46.766   4.734  14.668  0.00  0.00    +0.000 C 
ATOM      2  C   UNL     1      46.391   5.789  13.625  0.00  0.00    +0.000 C 
ENDROOT
BRANCH   2   3
ATOM      3  C   UNL     1      45.883   5.095  12.364  0.00  0.00    +0.000 A 
ATOM      4  C   UNL     1      45.927   5.779  11.140  0.00  0.00    +0.000 A 
ATOM      5  C   UNL     1      45.481   5.171   9.963  0.00  0.00    +0.000 A 
ATOM      6  C   UNL     1      45.026   3.852   9.981  0.00  0.00    +0.000 A 
ATOM      7  C   UNL     1      44.916   3.181  11.199  0.00  0.00    +0.000 A 
ATOM      8  C   UNL     1      45.333   3.802  12.383  0.00  0.00    +0.000 A 
BRANCH   6   9
ATOM      9  O   UNL     1      44.594   3.180   8.859  0.00  0.00    +0.000 OA
BRANCH   9  10
ATOM     10  C   UNL     1      45.548   2.569   8.049  0.00  0.00    +0.000 A 
ATOM     11  C   UNL     1      45.949   3.277   6.924  0.00  0.00    +0.000 A 
ATOM     12  C   UNL     1      46.925   2.716   6.104  0.00  0.00    +0.000 A 
ATOM     13  C   UNL     1      47.457   1.472   6.429  0.00  0.00    +0.000 A 
ATOM     14  C   UNL     1      46.972   0.826   7.553  0.00  0.00    +0.000 A 
ATOM     15  N   UNL     1      46.020   1.340   8.359  0.00  0.00    +0.000 NA
ENDBRANCH   9  10
ENDBRANCH   6   9
ENDBRANCH   2   3
BRANCH   2  16
ATOM     16  N   UNL     1      47.488   6.699  13.328  0.00  0.00    +0.000 N 
ATOM     17  C   UNL     1      47.324   8.063  13.296  0.00  0.00    +0.000 C 
ATOM     18  O   UNL     1      46.262   8.612  13.568  0.00  0.00    +0.000 OA
ATOM     19  H   UNL     1      48.237   6.317  12.758  0.00  0.00    +0.000 HD
BRANCH  17  20
ATOM     20  C   UNL     1      48.520   8.852  12.980  0.00  0.00    +0.000 A 
ATOM     21  C   UNL     1      48.421   9.934  12.115  0.00  0.00    +0.000 A 
ATOM     22  S   UNL     1      49.899  10.745  11.864  0.00  0.00    +0.000 S 
ATOM     23  C   UNL     1      50.732   9.651  12.866  0.00  0.00    +0.000 A 
ATOM     24  N   UNL     1      52.075   9.756  13.058  0.00  0.00    +0.000 NA
ATOM     25  C   UNL     1      52.579   8.839  13.816  0.00  0.00    +0.000 A 
ATOM     26  N   UNL     1      51.860   7.834  14.410  0.00  0.00    +0.000 N 
ATOM     27  C   UNL     1      50.496   7.717  14.283  0.00  0.00    +0.000 A 
ATOM     28  O   UNL     1      49.864   6.857  14.887  0.00  0.00    +0.000 OA
ATOM     29  C   UNL     1      49.887   8.701  13.412  0.00  0.00    +0.000 A 
ATOM     30  H   UNL     1      52.311   7.158  15.009  0.00  0.00    +0.000 HD
ENDBRANCH  17  20
ENDBRANCH   2  16
TORSDOF 5
ENDMDL
MODEL 4
REMARK VINA RESULT:    -7.634      2.799      4.316
REMARK INTER + INTRA:         -10.376
REMARK INTER:                  -9.434
REMARK INTRA:                  -0.942
REMARK UNBOUND:                -0.510
REMARK  Name = 
REMARK  6 active torsions:
REMARK  status: ('A' for Active; 'I' for Inactive)
REMARK    1  A    between atoms: C_1  and  C_2
REMARK    2  A    between atoms: C_2  and  N_3
REMARK    3  A    between atoms: C_2  and  C_16
REMARK    4  A    between atoms: C_4  and  C_6
REMARK    5  A    between atoms: C_19  and  O_20
REMARK    6  A    between atoms: O_20  and  C_21
REMARK                            x       y       z     vdW  Elec       q    Type
REMARK                         _______ _______ _______ _____ _____    ______ ____
ROOT
ATOM      1  C   UNL     1      46.766   4.794  14.619  0.00  0.00    +0.000 C 
ATOM      2  C   UNL     1      46.207   5.846  13.658  0.00  0.00    +0.000 C 
ENDROOT
BRANCH   2   3
ATOM      3  C   UNL     1      45.810   5.172  12.347  0.00  0.00    +0.000 A 
ATOM      4  C   UNL     1      45.312   3.861  12.374  0.00  0.00    +0.000 A 
ATOM      5  C   UNL     1      44.927   3.217  11.195  0.00  0.00    +0.000 A 
ATOM      6  C   UNL     1      44.992   3.888   9.973  0.00  0.00    +0.000 A 
ATOM      7  C   UNL     1      45.545   5.167   9.922  0.00  0.00    +0.000 A 
ATOM      8  C   UNL     1      45.960   5.801  11.099  0.00  0.00    +0.000 A 
BRANCH   6   9
ATOM      9  O   UNL     1      44.609   3.326   8.774  0.00  0.00    +0.000 OA
BRANCH   9  10
ATOM     10  C   UNL     1      45.577   2.677   8.013  0.00  0.00    +0.000 A 
ATOM     11  C   UNL     1      46.035   3.350   6.889  0.00  0.00    +0.000 A 
ATOM     12  C   UNL     1      47.026   2.749   6.117  0.00  0.00    +0.000 A 
ATOM     13  C   UNL     1      47.517   1.501   6.487  0.00  0.00    +0.000 A 
ATOM     14  C   UNL     1      46.977   0.891   7.607  0.00  0.00    +0.000 A 
ATOM     15  N   UNL     1      46.009   1.444   8.366  0.00  0.00    +0.000 NA
ENDBRANCH   9  10
ENDBRANCH   6   9
ENDBRANCH   2   3
BRANCH   2  16
ATOM     16  N   UNL     1      47.130   6.949  13.433  0.00  0.00    +0.000 N 
ATOM     17  C   UNL     1      46.701   8.237  13.225  0.00  0.00    +0.000 C 
ATOM     18  O   UNL     1      45.518   8.559  13.269  0.00  0.00    +0.000 OA
ATOM     19  H   UNL     1      48.028   6.697  13.031  0.00  0.00    +0.000 HD
BRANCH  17  20
ATOM     20  C   UNL     1      47.747   9.243  13.010  0.00  0.00    +0.000 A 
ATOM     21  C   UNL     1      47.802   9.932  11.807  0.00  0.00    +0.000 A 
ATOM     22  S   UNL     1      49.071  11.068  11.727  0.00  0.00    +0.000 S 
ATOM     23  C   UNL     1      49.620  10.645  13.281  0.00  0.00    +0.000 A 
ATOM     24  N   UNL     1      50.723  11.230  13.820  0.00  0.00    +0.000 NA
ATOM     25  C   UNL     1      51.043  10.788  14.991  0.00  0.00    +0.000 A 
ATOM     26  N   UNL     1      50.351   9.825  15.678  0.00  0.00    +0.000 N 
ATOM     27  C   UNL     1      49.205   9.241  15.194  0.00  0.00    +0.000 A 
ATOM     28  O   UNL     1      48.560   8.438  15.860  0.00  0.00    +0.000 OA
ATOM     29  C   UNL     1      48.824   9.675  13.866  0.00  0.00    +0.000 A 
ATOM     30  H   UNL     1      50.642   9.537  16.601  0.00  0.00    +0.000 HD
ENDBRANCH  17  20
ENDBRANCH   2  16
TORSDOF 5
ENDMDL
MODEL 5
REMARK VINA RESULT:    -7.590      3.267      7.876
REMARK INTER + INTRA:         -10.319
REMARK INTER:                  -9.196
REMARK INTRA:                  -1.123
REMARK UNBOUND:                -0.510
REMARK  Name = 
REMARK  6 active torsions:
REMARK  status: ('A' for Active; 'I' for Inactive)
REMARK    1  A    between atoms: C_1  and  C_2
REMARK    2  A    between atoms: C_2  and  N_3
REMARK    3  A    between atoms: C_2  and  C_16
REMARK    4  A    between atoms: C_4  and  C_6
REMARK    5  A    between atoms: C_19  and  O_20
REMARK    6  A    between atoms: O_20  and  C_21
REMARK                            x       y       z     vdW  Elec       q    Type
REMARK                         _______ _______ _______ _____ _____    ______ ____
ROOT
ATOM      1  C   UNL     1      49.477   7.922  12.443  0.00  0.00    +0.000 C 
ATOM      2  C   UNL     1      48.279   7.342  13.199  0.00  0.00    +0.000 C 
ENDROOT
BRANCH   2   3
ATOM      3  C   UNL     1      48.757   6.740  14.517  0.00  0.00    +0.000 A 
ATOM      4  C   UNL     1      47.907   5.877  15.225  0.00  0.00    +0.000 A 
ATOM      5  C   UNL     1      48.315   5.297  16.429  0.00  0.00    +0.000 A 
ATOM      6  C   UNL     1      49.597   5.535  16.926  0.00  0.00    +0.000 A 
ATOM      7  C   UNL     1      50.430   6.440  16.269  0.00  0.00    +0.000 A 
ATOM      8  C   UNL     1      50.008   7.046  15.078  0.00  0.00    +0.000 A 
BRANCH   6   9
ATOM      9  O   UNL     1      50.077   4.981  18.093  0.00  0.00    +0.000 OA
BRANCH   9  10
ATOM     10  C   UNL     1      50.892   3.856  18.001  0.00  0.00    +0.000 A 
ATOM     11  C   UNL     1      50.335   2.735  17.403  0.00  0.00    +0.000 A 
ATOM     12  C   UNL     1      51.127   1.598  17.262  0.00  0.00    +0.000 A 
ATOM     13  C   UNL     1      52.438   1.618  17.729  0.00  0.00    +0.000 A 
ATOM     14  C   UNL     1      52.897   2.772  18.341  0.00  0.00    +0.000 A 
ATOM     15  N   UNL     1      52.149   3.883  18.500  0.00  0.00    +0.000 NA
ENDBRANCH   9  10
ENDBRANCH   6   9
ENDBRANCH   2   3
BRANCH   2  16
ATOM     16  N   UNL     1      47.533   6.373  12.409  0.00  0.00    +0.000 N 
ATOM     17  C   UNL     1      46.378   6.701  11.741  0.00  0.00    +0.000 C 
ATOM     18  O   UNL     1      45.925   7.841  11.716  0.00  0.00    +0.000 OA
ATOM     19  H   UNL     1      47.637   5.402  12.688  0.00  0.00    +0.000 HD
BRANCH  17  20
ATOM     20  C   UNL     1      45.734   5.619  10.988  0.00  0.00    +0.000 A 
ATOM     21  C   UNL     1      45.800   5.612   9.601  0.00  0.00    +0.000 A 
ATOM     22  S   UNL     1      45.008   4.282   8.887  0.00  0.00    +0.000 S 
ATOM     23  C   UNL     1      44.510   3.694  10.403  0.00  0.00    +0.000 A 
ATOM     24  N   UNL     1      43.744   2.575  10.506  0.00  0.00    +0.000 NA
ATOM     25  C   UNL     1      43.413   2.264  11.716  0.00  0.00    +0.000 A 
ATOM     26  N   UNL     1      43.791   2.962  12.832  0.00  0.00    +0.000 N 
ATOM     27  C   UNL     1      44.603   4.070  12.781  0.00  0.00    +0.000 A 
ATOM     28  O   UNL     1      44.992   4.632  13.799  0.00  0.00    +0.000 OA
ATOM     29  C   UNL     1      44.972   4.483  11.442  0.00  0.00    +0.000 A 
ATOM     30  H   UNL     1      43.516   2.655  13.754  0.00  0.00    +0.000 HD
ENDBRANCH  17  20
ENDBRANCH   2  16
TORSDOF 5
ENDMDL
MODEL 6
REMARK VINA RESULT:    -7.382      3.371      5.252
REMARK INTER + INTRA:         -10.051
REMARK INTER:                  -8.767
REMARK INTRA:                  -1.283
REMARK UNBOUND:                -0.510
REMARK  Name = 
REMARK  6 active torsions:
REMARK  status: ('A' for Active; 'I' for Inactive)
REMARK    1  A    between atoms: C_1  and  C_2
REMARK    2  A    between atoms: C_2  and  N_3
REMARK    3  A    between atoms: C_2  and  C_16
REMARK    4  A    between atoms: C_4  and  C_6
REMARK    5  A    between atoms: C_19  and  O_20
REMARK    6  A    between atoms: O_20  and  C_21
REMARK                            x       y       z     vdW  Elec       q    Type
REMARK                         _______ _______ _______ _____ _____    ______ ____
ROOT
ATOM      1  C   UNL     1      48.262   6.788  18.241  0.00  0.00    +0.000 C 
ATOM      2  C   UNL     1      49.186   6.225  17.158  0.00  0.00    +0.000 C 
ENDROOT
BRANCH   2   3
ATOM      3  C   UNL     1      48.348   5.536  16.085  0.00  0.00    +0.000 A 
ATOM      4  C   UNL     1      48.210   6.142  14.828  0.00  0.00    +0.000 A 
ATOM      5  C   UNL     1      47.460   5.534  13.818  0.00  0.00    +0.000 A 
ATOM      6  C   UNL     1      46.871   4.287  14.032  0.00  0.00    +0.000 A 
ATOM      7  C   UNL     1      46.945   3.702  15.295  0.00  0.00    +0.000 A 
ATOM      8  C   UNL     1      47.670   4.327  16.318  0.00  0.00    +0.000 A 
BRANCH   6   9
ATOM      9  O   UNL     1      46.138   3.617  13.077  0.00  0.00    +0.000 OA
BRANCH   9  10
ATOM     10  C   UNL     1      44.967   4.209  12.611  0.00  0.00    +0.000 A 
ATOM     11  C   UNL     1      44.941   4.556  11.267  0.00  0.00    +0.000 A 
ATOM     12  C   UNL     1      43.776   5.121  10.753  0.00  0.00    +0.000 A 
ATOM     13  C   UNL     1      42.688   5.327  11.596  0.00  0.00    +0.000 A 
ATOM     14  C   UNL     1      42.818   4.979  12.929  0.00  0.00    +0.000 A 
ATOM     15  N   UNL     1      43.936   4.440  13.456  0.00  0.00    +0.000 NA
ENDBRANCH   9  10
ENDBRANCH   6   9
ENDBRANCH   2   3
BRANCH   2  16
ATOM     16  N   UNL     1      50.203   5.333  17.696  0.00  0.00    +0.000 N 
ATOM     17  C   UNL     1      51.506   5.354  17.260  0.00  0.00    +0.000 C 
ATOM     18  O   UNL     1      51.917   6.159  16.431  0.00  0.00    +0.000 OA
ATOM     19  H   UNL     1      49.863   4.454  18.074  0.00  0.00    +0.000 HD
BRANCH  17  20
ATOM     20  C   UNL     1      52.418   4.395  17.893  0.00  0.00    +0.000 A 
ATOM     21  C   UNL     1      53.525   4.856  18.593  0.00  0.00    +0.000 A 
ATOM     22  S   UNL     1      54.471   3.611  19.271  0.00  0.00    +0.000 S 
ATOM     23  C   UNL     1      53.460   2.410  18.615  0.00  0.00    +0.000 A 
ATOM     24  N   UNL     1      53.731   1.089  18.792  0.00  0.00    +0.000 NA
ATOM     25  C   UNL     1      52.898   0.291  18.211  0.00  0.00    +0.000 A 
ATOM     26  N   UNL     1      51.811   0.694  17.481  0.00  0.00    +0.000 N 
ATOM     27  C   UNL     1      51.471   2.015  17.316  0.00  0.00    +0.000 A 
ATOM     28  O   UNL     1      50.449   2.349  16.725  0.00  0.00    +0.000 OA
ATOM     29  C   UNL     1      52.396   2.953  17.917  0.00  0.00    +0.000 A 
ATOM     30  H   UNL     1      51.184   0.018  17.068  0.00  0.00    +0.000 HD
ENDBRANCH  17  20
ENDBRANCH   2  16
TORSDOF 5
ENDMDL
MODEL 7
REMARK VINA RESULT:    -7.207      2.961      8.560
REMARK INTER + INTRA:          -9.823
REMARK INTER:                  -8.762
REMARK INTRA:                  -1.061
REMARK UNBOUND:                -0.510
REMARK  Name = 
REMARK  6 active torsions:
REMARK  status: ('A' for Active; 'I' for Inactive)
REMARK    1  A    between atoms: C_1  and  C_2
REMARK    2  A    between atoms: C_2  and  N_3
REMARK    3  A    between atoms: C_2  and  C_16
REMARK    4  A    between atoms: C_4  and  C_6
REMARK    5  A    between atoms: C_19  and  O_20
REMARK    6  A    between atoms: O_20  and  C_21
REMARK                            x       y       z     vdW  Elec       q    Type
REMARK                         _______ _______ _______ _____ _____    ______ ____
ROOT
ATOM      1  C   UNL     1      48.890   7.847  11.379  0.00  0.00    +0.000 C 
ATOM      2  C   UNL     1      47.641   7.722  12.255  0.00  0.00    +0.000 C 
ENDROOT
BRANCH   2   3
ATOM      3  C   UNL     1      48.040   7.831  13.724  0.00  0.00    +0.000 A 
ATOM      4  C   UNL     1      48.550   6.701  14.381  0.00  0.00    +0.000 A 
ATOM      5  C   UNL     1      48.936   6.766  15.722  0.00  0.00    +0.000 A 
ATOM      6  C   UNL     1      48.863   7.973  16.418  0.00  0.00    +0.000 A 
ATOM      7  C   UNL     1      48.298   9.088  15.799  0.00  0.00    +0.000 A 
ATOM      8  C   UNL     1      47.881   9.014  14.464  0.00  0.00    +0.000 A 
BRANCH   6   9
ATOM      9  O   UNL     1      49.247   8.119  17.733  0.00  0.00    +0.000 OA
BRANCH   9  10
ATOM     10  C   UNL     1      48.983   7.075  18.616  0.00  0.00    +0.000 A 
ATOM     11  C   UNL     1      47.682   6.978  19.089  0.00  0.00    +0.000 A 
ATOM     12  C   UNL     1      47.368   5.929  19.950  0.00  0.00    +0.000 A 
ATOM     13  C   UNL     1      48.360   5.023  20.312  0.00  0.00    +0.000 A 
ATOM     14  C   UNL     1      49.638   5.218  19.815  0.00  0.00    +0.000 A 
ATOM     15  N   UNL     1      49.973   6.231  18.989  0.00  0.00    +0.000 NA
ENDBRANCH   9  10
ENDBRANCH   6   9
ENDBRANCH   2   3
BRANCH   2  16
ATOM     16  N   UNL     1      46.892   6.501  11.994  0.00  0.00    +0.000 N 
ATOM     17  C   UNL     1      45.534   6.500  11.790  0.00  0.00    +0.000 C 
ATOM     18  O   UNL     1      44.865   7.527  11.759  0.00  0.00    +0.000 OA
ATOM     19  H   UNL     1      47.298   5.647  12.365  0.00  0.00    +0.000 HD
BRANCH  17  20
ATOM     20  C   UNL     1      44.916   5.192  11.541  0.00  0.00    +0.000 A 
ATOM     21  C   UNL     1      44.185   4.573  12.546  0.00  0.00    +0.000 A 
ATOM     22  S   UNL     1      43.531   3.068  12.086  0.00  0.00    +0.000 S 
ATOM     23  C   UNL     1      44.240   3.169  10.543  0.00  0.00    +0.000 A 
ATOM     24  N   UNL     1      44.100   2.163   9.638  0.00  0.00    +0.000 NA
ATOM     25  C   UNL     1      44.719   2.360   8.521  0.00  0.00    +0.000 A 
ATOM     26  N   UNL     1      45.453   3.478   8.223  0.00  0.00    +0.000 N 
ATOM     27  C   UNL     1      45.583   4.540   9.087  0.00  0.00    +0.000 A 
ATOM     28  O   UNL     1      46.180   5.562   8.767  0.00  0.00    +0.000 OA
ATOM     29  C   UNL     1      44.937   4.352  10.370  0.00  0.00    +0.000 A 
ATOM     30  H   UNL     1      45.897   3.582   7.322  0.00  0.00    +0.000 HD
ENDBRANCH  17  20
ENDBRANCH   2  16
TORSDOF 5
ENDMDL
MODEL 8
REMARK VINA RESULT:    -6.807      3.182      8.295
REMARK INTER + INTRA:          -9.306
REMARK INTER:                  -8.293
REMARK INTRA:                  -1.013
REMARK UNBOUND:                -0.510
REMARK  Name = 
REMARK  6 active torsions:
REMARK  status: ('A' for Active; 'I' for Inactive)
REMARK    1  A    between atoms: C_1  and  C_2
REMARK    2  A    between atoms: C_2  and  N_3
REMARK    3  A    between atoms: C_2  and  C_16
REMARK    4  A    between atoms: C_4  and  C_6
REMARK    5  A    between atoms: C_19  and  O_20
REMARK    6  A    between atoms: O_20  and  C_21
REMARK                            x       y       z     vdW  Elec       q    Type
REMARK                         _______ _______ _______ _____ _____    ______ ____
ROOT
ATOM      1  C   UNL     1      49.269   8.590  11.722  0.00  0.00    +0.000 C 
ATOM      2  C   UNL     1      48.139   7.934  12.519  0.00  0.00    +0.000 C 
ENDROOT
BRANCH   2   3
ATOM      3  C   UNL     1      48.685   7.436  13.854  0.00  0.00    +0.000 A 
ATOM      4  C   UNL     1      49.813   8.058  14.408  0.00  0.00    +0.000 A 
ATOM      5  C   UNL     1      50.334   7.637  15.635  0.00  0.00    +0.000 A 
ATOM      6  C   UNL     1      49.710   6.615  16.351  0.00  0.00    +0.000 A 
ATOM      7  C   UNL     1      48.627   5.943  15.784  0.00  0.00    +0.000 A 
ATOM      8  C   UNL     1      48.124   6.344  14.540  0.00  0.00    +0.000 A 
BRANCH   6   9
ATOM      9  O   UNL     1      50.152   6.163  17.575  0.00  0.00    +0.000 OA
BRANCH   9  10
ATOM     10  C   UNL     1      49.278   6.232  18.657  0.00  0.00    +0.000 A 
ATOM     11  C   UNL     1      48.603   7.432  18.832  0.00  0.00    +0.000 A 
ATOM     12  C   UNL     1      47.696   7.534  19.883  0.00  0.00    +0.000 A 
ATOM     13  C   UNL     1      47.502   6.442  20.724  0.00  0.00    +0.000 A 
ATOM     14  C   UNL     1      48.244   5.296  20.492  0.00  0.00    +0.000 A 
ATOM     15  N   UNL     1      49.136   5.174  19.488  0.00  0.00    +0.000 NA
ENDBRANCH   9  10
ENDBRANCH   6   9
ENDBRANCH   2   3
BRANCH   2  16
ATOM     16  N   UNL     1      47.478   6.866  11.781  0.00  0.00    +0.000 N 
ATOM     17  C   UNL     1      46.110   6.754  11.718  0.00  0.00    +0.000 C 
ATOM     18  O   UNL     1      45.351   7.570  12.228  0.00  0.00    +0.000 OA
ATOM     19  H   UNL     1      48.011   6.010  11.673  0.00  0.00    +0.000 HD
BRANCH  17  20
ATOM     20  C   UNL     1      45.588   5.626  10.939  0.00  0.00    +0.000 A 
ATOM     21  C   UNL     1      45.713   5.627   9.556  0.00  0.00    +0.000 A 
ATOM     22  S   UNL     1      45.061   4.240   8.810  0.00  0.00    +0.000 S 
ATOM     23  C   UNL     1      44.547   3.610  10.304  0.00  0.00    +0.000 A 
ATOM     24  N   UNL     1      43.869   2.433  10.375  0.00  0.00    +0.000 NA
ATOM     25  C   UNL     1      43.512   2.094  11.569  0.00  0.00    +0.000 A 
ATOM     26  N   UNL     1      43.785   2.818  12.701  0.00  0.00    +0.000 N 
ATOM     27  C   UNL     1      44.508   3.987  12.683  0.00  0.00    +0.000 A 
ATOM     28  O   UNL     1      44.806   4.576  13.716  0.00  0.00    +0.000 OA
ATOM     29  C   UNL     1      44.899   4.431  11.361  0.00  0.00    +0.000 A 
ATOM     30  H   UNL     1      43.496   2.487  13.610  0.00  0.00    +0.000 HD
ENDBRANCH  17  20
ENDBRANCH   2  16
TORSDOF 5
ENDMDL
MODEL 9
REMARK VINA RESULT:    -6.238      3.416      5.789
REMARK INTER + INTRA:          -8.571
REMARK INTER:                  -8.011
REMARK INTRA:                  -0.560
REMARK UNBOUND:                -0.510
REMARK  Name = 
REMARK  6 active torsions:
REMARK  status: ('A' for Active; 'I' for Inactive)
REMARK    1  A    between atoms: C_1  and  C_2
REMARK    2  A    between atoms: C_2  and  N_3
REMARK    3  A    between atoms: C_2  and  C_16
REMARK    4  A    between atoms: C_4  and  C_6
REMARK    5  A    between atoms: C_19  and  O_20
REMARK    6  A    between atoms: O_20  and  C_21
REMARK                            x       y       z     vdW  Elec       q    Type
REMARK                         _______ _______ _______ _____ _____    ______ ____
ROOT
ATOM      1  C   UNL     1      47.159   2.546  17.835  0.00  0.00    +0.000 C 
ATOM      2  C   UNL     1      48.055   3.774  17.657  0.00  0.00    +0.000 C 
ENDROOT
BRANCH   2   3
ATOM      3  C   UNL     1      47.786   4.402  16.293  0.00  0.00    +0.000 A 
ATOM      4  C   UNL     1      47.050   3.683  15.340  0.00  0.00    +0.000 A 
ATOM      5  C   UNL     1      46.774   4.231  14.084  0.00  0.00    +0.000 A 
ATOM      6  C   UNL     1      47.191   5.526  13.775  0.00  0.00    +0.000 A 
ATOM      7  C   UNL     1      47.978   6.229  14.686  0.00  0.00    +0.000 A 
ATOM      8  C   UNL     1      48.282   5.667  15.932  0.00  0.00    +0.000 A 
BRANCH   6   9
ATOM      9  O   UNL     1      46.936   6.140  12.568  0.00  0.00    +0.000 OA
BRANCH   9  10
ATOM     10  C   UNL     1      45.720   5.882  11.941  0.00  0.00    +0.000 A 
ATOM     11  C   UNL     1      45.776   5.176  10.748  0.00  0.00    +0.000 A 
ATOM     12  C   UNL     1      44.579   4.868  10.105  0.00  0.00    +0.000 A 
ATOM     13  C   UNL     1      43.376   5.282  10.668  0.00  0.00    +0.000 A 
ATOM     14  C   UNL     1      43.420   6.010  11.845  0.00  0.00    +0.000 A 
ATOM     15  N   UNL     1      44.564   6.331  12.483  0.00  0.00    +0.000 NA
ENDBRANCH   9  10
ENDBRANCH   6   9
ENDBRANCH   2   3
BRANCH   2  16
ATOM     16  N   UNL     1      49.468   3.470  17.836  0.00  0.00    +0.000 N 
ATOM     17  C   UNL     1      50.102   2.481  17.124  0.00  0.00    +0.000 C 
ATOM     18  O   UNL     1      49.543   1.824  16.253  0.00  0.00    +0.000 OA
ATOM     19  H   UNL     1      49.856   3.698  18.745  0.00  0.00    +0.000 HD
BRANCH  17  20
ATOM     20  C   UNL     1      51.528   2.287  17.413  0.00  0.00    +0.000 A 
ATOM     21  C   UNL     1      52.019   1.006  17.624  0.00  0.00    +0.000 A 
ATOM     22  S   UNL     1      53.694   0.959  17.938  0.00  0.00    +0.000 S 
ATOM     23  C   UNL     1      53.813   2.654  17.848  0.00  0.00    +0.000 A 
ATOM     24  N   UNL     1      54.997   3.288  18.063  0.00  0.00    +0.000 NA
ATOM     25  C   UNL     1      54.933   4.576  17.996  0.00  0.00    +0.000 A 
ATOM     26  N   UNL     1      53.794   5.288  17.719  0.00  0.00    +0.000 N 
ATOM     27  C   UNL     1      52.587   4.689  17.448  0.00  0.00    +0.000 A 
ATOM     28  O   UNL     1      51.601   5.343  17.127  0.00  0.00    +0.000 OA
ATOM     29  C   UNL     1      52.597   3.244  17.548  0.00  0.00    +0.000 A 
ATOM     30  H   UNL     1      53.814   6.295  17.660  0.00  0.00    +0.000 HD
ENDBRANCH  17  20
ENDBRANCH   2  16
TORSDOF 5
ENDMDL
