MODEL 1
REMARK VINA RESULT:    -8.472      0.000      0.000
REMARK INTER + INTRA:         -13.452
REMARK INTER:                 -12.186
REMARK INTRA:                  -1.266
REMARK UNBOUND:                -1.266
REMARK  Name = 
REMARK  8 active torsions:
REMARK  status: ('A' for Active; 'I' for Inactive)
REMARK    1  A    between atoms: N_1  and  C_2
REMARK    2  A    between atoms: C_4  and  C_5
REMARK    3  A    between atoms: C_5  and  N_6
REMARK    4  A    between atoms: C_7  and  C_9
REMARK    5  A    between atoms: C_21  and  C_22
REMARK    6  A    between atoms: C_22  and  O_23
REMARK    7  A    between atoms: O_23  and  C_24
REMARK    8  A    between atoms: C_24  and  C_25
REMARK                            x       y       z     vdW  Elec       q    Type
REMARK                         _______ _______ _______ _____ _____    ______ ____
ROOT
ATOM      1  C   UNL     1      45.491   4.214  12.414  0.00  0.00    +0.000 A 
ATOM      2  N   UNL     1      46.349   5.118  12.917  0.00  0.00    +0.000 NA
ATOM      3  C   UNL     1      46.225   6.414  12.527  0.00  0.00    +0.000 A 
ATOM      4  C   UNL     1      45.270   6.830  11.609  0.00  0.00    +0.000 A 
ATOM      5  C   UNL     1      44.378   5.889  11.117  0.00  0.00    +0.000 A 
ATOM      6  C   UNL     1      44.473   4.551  11.527  0.00  0.00    +0.000 A 
ENDROOT
BRANCH   1   7
ATOM      7  N   UNL     1      45.675   2.912  12.877  0.00  0.00    +0.000 N 
ATOM      8  H   UNL     1      46.031   2.998  13.827  0.00  0.00    +0.000 HD
ATOM      9  H   UNL     1      46.313   2.384  12.295  0.00  0.00    +0.000 HD
ENDBRANCH   1   7
BRANCH   3  10
ATOM     10  C   UNL     1      47.172   7.414  13.140  0.00  0.00    +0.000 C 
BRANCH  10  11
ATOM     11  N   UNL     1      47.576   7.046  14.476  0.00  0.00    +0.000 N 
ATOM     12  C   UNL     1      48.890   6.902  14.840  0.00  0.00    +0.000 C 
ATOM     13  O   UNL     1      49.804   7.044  14.030  0.00  0.00    +0.000 OA
ATOM     14  H   UNL     1      46.835   6.720  15.090  0.00  0.00    +0.000 HD
BRANCH  12  15
ATOM     15  C   UNL     1      49.153   6.646  16.258  0.00  0.00    +0.000 A 
ATOM     16  C   UNL     1      49.784   7.619  17.022  0.00  0.00    +0.000 A 
ATOM     17  S   UNL     1      49.974   7.192  18.661  0.00  0.00    +0.000 S 
ATOM     18  C   UNL     1      49.258   5.671  18.403  0.00  0.00    +0.000 A 
ATOM     19  N   UNL     1      49.131   4.778  19.422  0.00  0.00    +0.000 NA
ATOM     20  C   UNL     1      48.599   3.652  19.081  0.00  0.00    +0.000 A 
ATOM     21  N   UNL     1      48.175   3.342  17.816  0.00  0.00    +0.000 N 
ATOM     22  C   UNL     1      48.236   4.229  16.768  0.00  0.00    +0.000 A 
ATOM     23  O   UNL     1      47.768   3.948  15.669  0.00  0.00    +0.000 OA
ATOM     24  C   UNL     1      48.858   5.500  17.089  0.00  0.00    +0.000 A 
ATOM     25  H   UNL     1      47.748   2.449  17.617  0.00  0.00    +0.000 HD
ENDBRANCH  12  15
ENDBRANCH  10  11
ENDBRANCH   3  10
BRANCH   6  26
ATOM     26  C   UNL     1      43.497   3.544  10.989  0.00  0.00    +0.000 C 
BRANCH  26  27
ATOM     27  O   UNL     1      43.790   3.200   9.633  0.00  0.00    +0.000 OA
BRANCH  27  28
ATOM     28  C   UNL     1      44.613   2.032   9.526  0.00  0.00    +0.000 C 
BRANCH  28  29
ATOM     29  C   UNL     1      45.640   2.184   8.429  0.00  0.00    +0.000 A 
ATOM     30  C   UNL     1      45.844   3.412   7.804  0.00  0.00    +0.000 A 
ATOM     31  C   UNL     1      46.816   3.513   6.813  0.00  0.00    +0.000 A 
ATOM     32  C   UNL     1      47.574   2.396   6.490  0.00  0.00    +0.000 A 
ATOM     33  C   UNL     1      47.329   1.220   7.176  0.00  0.00    +0.000 A 
ATOM     34  N   UNL     1      46.389   1.088   8.136  0.00  0.00    +0.000 NA
ENDBRANCH  28  29
ENDBRANCH  27  28
ENDBRANCH  26  27
ENDBRANCH   6  26
TORSDOF 8
ENDMDL
MODEL 2
REMARK VINA RESULT:    -8.310      1.408      1.816
REMARK INTER + INTRA:         -13.219
REMARK INTER:                 -12.059
REMARK INTRA:                  -1.160
REMARK UNBOUND:                -1.266
REMARK  Name = 
REMARK  8 active torsions:
REMARK  status: ('A' for Active; 'I' for Inactive)
REMARK    1  A    between atoms: N_1  and  C_2
REMARK    2  A    between atoms: C_4  and  C_5
REMARK    3  A    between atoms: C_5  and  N_6
REMARK    4  A    between atoms: C_7  and  C_9
REMARK    5  A    between atoms: C_21  and  C_22
REMARK    6  A    between atoms: C_22  and  O_23
REMARK    7  A    between atoms: O_23  and  C_24
REMARK    8  A    between atoms: C_24  and  C_25
REMARK                            x       y       z     vdW  Elec       q    Type
REMARK                         _______ _______ _______ _____ _____    ______ ____
ROOT
ATOM      1  C   UNL     1      45.404   5.512  11.405  0.00  0.00    +0.000 A 
ATOM      2  N   UNL     1      46.428   6.123  12.024  0.00  0.00    +0.000 NA
ATOM      3  C   UNL     1      46.933   5.557  13.153  0.00  0.00    +0.000 A 
ATOM      4  C   UNL     1      46.410   4.394  13.703  0.00  0.00    +0.000 A 
ATOM      5  C   UNL     1      45.368   3.764  13.040  0.00  0.00    +0.000 A 
ATOM      6  C   UNL     1      44.851   4.318  11.860  0.00  0.00    +0.000 A 
ENDROOT
BRANCH   1   7
ATOM      7  N   UNL     1      44.957   6.147  10.248  0.00  0.00    +0.000 N 
ATOM      8  H   UNL     1      45.630   5.916   9.521  0.00  0.00    +0.000 HD
ATOM      9  H   UNL     1      44.878   7.149  10.366  0.00  0.00    +0.000 HD
ENDBRANCH   1   7
BRANCH   3  10
ATOM     10  C   UNL     1      48.109   6.239  13.802  0.00  0.00    +0.000 C 
BRANCH  10  11
ATOM     11  N   UNL     1      47.939   6.400  15.226  0.00  0.00    +0.000 N 
ATOM     12  C   UNL     1      48.995   6.454  16.098  0.00  0.00    +0.000 C 
ATOM     13  O   UNL     1      50.157   6.331  15.714  0.00  0.00    +0.000 OA
ATOM     14  H   UNL     1      46.991   6.290  15.575  0.00  0.00    +0.000 HD
BRANCH  12  15
ATOM     15  C   UNL     1      48.675   6.744  17.498  0.00  0.00    +0.000 A 
ATOM     16  C   UNL     1      48.390   8.048  17.878  0.00  0.00    +0.000 A 
ATOM     17  S   UNL     1      47.991   8.214  19.527  0.00  0.00    +0.000 S 
ATOM     18  C   UNL     1      48.226   6.553  19.806  0.00  0.00    +0.000 A 
ATOM     19  N   UNL     1      48.066   6.025  21.049  0.00  0.00    +0.000 NA
ATOM     20  C   UNL     1      48.307   4.759  21.126  0.00  0.00    +0.000 A 
ATOM     21  N   UNL     1      48.684   3.971  20.070  0.00  0.00    +0.000 N 
ATOM     22  C   UNL     1      48.808   4.450  18.788  0.00  0.00    +0.000 A 
ATOM     23  O   UNL     1      49.063   3.699  17.852  0.00  0.00    +0.000 OA
ATOM     24  C   UNL     1      48.582   5.877  18.651  0.00  0.00    +0.000 A 
ATOM     25  H   UNL     1      48.839   2.981  20.192  0.00  0.00    +0.000 HD
ENDBRANCH  12  15
ENDBRANCH  10  11
ENDBRANCH   3  10
BRANCH   6  26
ATOM     26  C   UNL     1      43.725   3.621  11.150  0.00  0.00    +0.000 C 
BRANCH  26  27
ATOM     27  O   UNL     1      44.016   3.429   9.763  0.00  0.00    +0.000 OA
BRANCH  27  28
ATOM     28  C   UNL     1      44.577   2.139   9.491  0.00  0.00    +0.000 C 
BRANCH  28  29
ATOM     29  C   UNL     1      45.601   2.209   8.383  0.00  0.00    +0.000 A 
ATOM     30  C   UNL     1      45.793   3.384   7.658  0.00  0.00    +0.000 A 
ATOM     31  C   UNL     1      46.762   3.412   6.660  0.00  0.00    +0.000 A 
ATOM     32  C   UNL     1      47.530   2.278   6.428  0.00  0.00    +0.000 A 
ATOM     33  C   UNL     1      47.296   1.160   7.209  0.00  0.00    +0.000 A 
ATOM     34  N   UNL     1      46.359   1.100   8.179  0.00  0.00    +0.000 NA
ENDBRANCH  28  29
ENDBRANCH  27  28
ENDBRANCH  26  27
ENDBRANCH   6  26
TORSDOF 8
ENDMDL
MODEL 3
REMARK VINA RESULT:    -8.147      1.718      2.226
REMARK INTER + INTRA:         -12.986
REMARK INTER:                 -11.951
REMARK INTRA:                  -1.034
REMARK UNBOUND:                -1.266
REMARK  Name = 
REMARK  8 active torsions:
REMARK  status: ('A' for Active; 'I' for Inactive)
REMARK    1  A    between atoms: N_1  and  C_2
REMARK    2  A    between atoms: C_4  and  C_5
REMARK    3  A    between atoms: C_5  and  N_6
REMARK    4  A    between atoms: C_7  and  C_9
REMARK    5  A    between atoms: C_21  and  C_22
REMARK    6  A    between atoms: C_22  and  O_23
REMARK    7  A    between atoms: O_23  and  C_24
REMARK    8  A    between atoms: C_24  and  C_25
REMARK                            x       y       z     vdW  Elec       q    Type
REMARK                         _______ _______ _______ _____ _____    ______ ____
ROOT
ATOM      1  C   UNL     1      45.589   4.306  12.501  0.00  0.00    +0.000 A 
ATOM      2  N   UNL     1      46.573   4.947  13.155  0.00  0.00    +0.000 NA
ATOM      3  C   UNL     1      46.802   6.255  12.860  0.00  0.00    +0.000 A 
ATOM      4  C   UNL     1      46.081   6.938  11.891  0.00  0.00    +0.000 A 
ATOM      5  C   UNL     1      45.054   6.270  11.241  0.00  0.00    +0.000 A 
ATOM      6  C   UNL     1      44.785   4.928  11.550  0.00  0.00    +0.000 A 
ENDROOT
BRANCH   1   7
ATOM      7  N   UNL     1      45.409   2.976  12.873  0.00  0.00    +0.000 N 
ATOM      8  H   UNL     1      45.225   2.464  12.012  0.00  0.00    +0.000 HD
ATOM      9  H   UNL     1      44.652   2.860  13.535  0.00  0.00    +0.000 HD
ENDBRANCH   1   7
BRANCH   3  10
ATOM     10  C   UNL     1      47.881   6.960  13.640  0.00  0.00    +0.000 C 
BRANCH  10  11
ATOM     11  N   UNL     1      47.873   6.609  15.039  0.00  0.00    +0.000 N 
ATOM     12  C   UNL     1      49.019   6.493  15.782  0.00  0.00    +0.000 C 
ATOM     13  O   UNL     1      50.131   6.648  15.282  0.00  0.00    +0.000 OA
ATOM     14  H   UNL     1      46.987   6.273  15.407  0.00  0.00    +0.000 HD
BRANCH  12  15
ATOM     15  C   UNL     1      48.849   6.251  17.217  0.00  0.00    +0.000 A 
ATOM     16  C   UNL     1      49.186   5.013  17.746  0.00  0.00    +0.000 A 
ATOM     17  S   UNL     1      48.979   4.906  19.435  0.00  0.00    +0.000 S 
ATOM     18  C   UNL     1      48.389   6.499  19.517  0.00  0.00    +0.000 A 
ATOM     19  N   UNL     1      47.996   7.037  20.703  0.00  0.00    +0.000 NA
ATOM     20  C   UNL     1      47.540   8.242  20.617  0.00  0.00    +0.000 A 
ATOM     21  N   UNL     1      47.449   8.960  19.455  0.00  0.00    +0.000 N 
ATOM     22  C   UNL     1      47.880   8.478  18.243  0.00  0.00    +0.000 A 
ATOM     23  O   UNL     1      47.865   9.180  17.237  0.00  0.00    +0.000 OA
ATOM     24  C   UNL     1      48.372   7.113  18.276  0.00  0.00    +0.000 A 
ATOM     25  H   UNL     1      47.100   9.908  19.457  0.00  0.00    +0.000 HD
ENDBRANCH  12  15
ENDBRANCH  10  11
ENDBRANCH   3  10
BRANCH   6  26
ATOM     26  C   UNL     1      43.667   4.218  10.841  0.00  0.00    +0.000 C 
BRANCH  26  27
ATOM     27  O   UNL     1      44.044   3.834   9.516  0.00  0.00    +0.000 OA
BRANCH  27  28
ATOM     28  C   UNL     1      44.526   2.486   9.449  0.00  0.00    +0.000 C 
BRANCH  28  29
ATOM     29  C   UNL     1      45.571   2.332   8.369  0.00  0.00    +0.000 A 
ATOM     30  C   UNL     1      45.930   3.408   7.560  0.00  0.00    +0.000 A 
ATOM     31  C   UNL     1      46.913   3.228   6.592  0.00  0.00    +0.000 A 
ATOM     32  C   UNL     1      47.528   1.989   6.472  0.00  0.00    +0.000 A 
ATOM     33  C   UNL     1      47.134   0.979   7.331  0.00  0.00    +0.000 A 
ATOM     34  N   UNL     1      46.179   1.121   8.275  0.00  0.00    +0.000 NA
ENDBRANCH  28  29
ENDBRANCH  27  28
ENDBRANCH  26  27
ENDBRANCH   6  26
TORSDOF 8
ENDMDL
MODEL 4
REMARK VINA RESULT:    -7.674      1.891      3.246
REMARK INTER + INTRA:         -12.305
REMARK INTER:                 -11.047
REMARK INTRA:                  -1.258
REMARK UNBOUND:                -1.266
REMARK  Name = 
REMARK  8 active torsions:
REMARK  status: ('A' for Active; 'I' for Inactive)
REMARK    1  A    between atoms: N_1  and  C_2
REMARK    2  A    between atoms: C_4  and  C_5
REMARK    3  A    between atoms: C_5  and  N_6
REMARK    4  A    between atoms: C_7  and  C_9
REMARK    5  A    between atoms: C_21  and  C_22
REMARK    6  A    between atoms: C_22  and  O_23
REMARK    7  A    between atoms: O_23  and  C_24
REMARK    8  A    between atoms: C_24  and  C_25
REMARK                            x       y       z     vdW  Elec       q    Type
REMARK                         _______ _______ _______ _____ _____    ______ ____
ROOT
ATOM      1  C   UNL     1      45.128   3.701  12.547  0.00  0.00    +0.000 A 
ATOM      2  N   UNL     1      45.921   3.530  13.618  0.00  0.00    +0.000 NA
ATOM      3  C   UNL     1      46.731   4.556  13.994  0.00  0.00    +0.000 A 
ATOM      4  C   UNL     1      46.790   5.755  13.296  0.00  0.00    +0.000 A 
ATOM      5  C   UNL     1      45.948   5.924  12.207  0.00  0.00    +0.000 A 
ATOM      6  C   UNL     1      45.087   4.887  11.819  0.00  0.00    +0.000 A 
ENDROOT
BRANCH   1   7
ATOM      7  N   UNL     1      44.318   2.610  12.238  0.00  0.00    +0.000 N 
ATOM      8  H   UNL     1      43.858   2.345  13.107  0.00  0.00    +0.000 HD
ATOM      9  H   UNL     1      44.846   1.836  11.855  0.00  0.00    +0.000 HD
ENDBRANCH   1   7
BRANCH   3  10
ATOM     10  C   UNL     1      47.577   4.353  15.224  0.00  0.00    +0.000 C 
BRANCH  10  11
ATOM     11  N   UNL     1      47.708   5.556  16.010  0.00  0.00    +0.000 N 
ATOM     12  C   UNL     1      48.849   5.871  16.700  0.00  0.00    +0.000 C 
ATOM     13  O   UNL     1      49.823   5.120  16.716  0.00  0.00    +0.000 OA
ATOM     14  H   UNL     1      46.849   6.073  16.177  0.00  0.00    +0.000 HD
BRANCH  12  15
ATOM     15  C   UNL     1      48.881   7.182  17.353  0.00  0.00    +0.000 A 
ATOM     16  C   UNL     1      48.975   7.255  18.736  0.00  0.00    +0.000 A 
ATOM     17  S   UNL     1      49.050   8.848  19.339  0.00  0.00    +0.000 S 
ATOM     18  C   UNL     1      48.917   9.503  17.775  0.00  0.00    +0.000 A 
ATOM     19  N   UNL     1      48.894  10.849  17.582  0.00  0.00    +0.000 NA
ATOM     20  C   UNL     1      48.757  11.209  16.350  0.00  0.00    +0.000 A 
ATOM     21  N   UNL     1      48.650  10.345  15.292  0.00  0.00    +0.000 N 
ATOM     22  C   UNL     1      48.719   8.980  15.433  0.00  0.00    +0.000 A 
ATOM     23  O   UNL     1      48.707   8.239  14.455  0.00  0.00    +0.000 OA
ATOM     24  C   UNL     1      48.839   8.519  16.804  0.00  0.00    +0.000 A 
ATOM     25  H   UNL     1      48.564  10.691  14.347  0.00  0.00    +0.000 HD
ENDBRANCH  12  15
ENDBRANCH  10  11
ENDBRANCH   3  10
BRANCH   6  26
ATOM     26  C   UNL     1      44.178   5.087  10.640  0.00  0.00    +0.000 C 
BRANCH  26  27
ATOM     27  O   UNL     1      44.274   4.002   9.713  0.00  0.00    +0.000 OA
BRANCH  27  28
ATOM     28  C   UNL     1      44.868   4.393   8.468  0.00  0.00    +0.000 C 
BRANCH  28  29
ATOM     29  C   UNL     1      45.713   3.281   7.892  0.00  0.00    +0.000 A 
ATOM     30  C   UNL     1      46.556   3.511   6.806  0.00  0.00    +0.000 A 
ATOM     31  C   UNL     1      47.333   2.464   6.321  0.00  0.00    +0.000 A 
ATOM     32  C   UNL     1      47.269   1.225   6.945  0.00  0.00    +0.000 A 
ATOM     33  C   UNL     1      46.427   1.085   8.034  0.00  0.00    +0.000 A 
ATOM     34  N   UNL     1      45.655   2.079   8.523  0.00  0.00    +0.000 NA
ENDBRANCH  28  29
ENDBRANCH  27  28
ENDBRANCH  26  27
ENDBRANCH   6  26
TORSDOF 8
ENDMDL
MODEL 5
REMARK VINA RESULT:    -7.416      2.342      2.900
REMARK INTER + INTRA:         -11.934
REMARK INTER:                 -10.716
REMARK INTRA:                  -1.218
REMARK UNBOUND:                -1.266
REMARK  Name = 
REMARK  8 active torsions:
REMARK  status: ('A' for Active; 'I' for Inactive)
REMARK    1  A    between atoms: N_1  and  C_2
REMARK    2  A    between atoms: C_4  and  C_5
REMARK    3  A    between atoms: C_5  and  N_6
REMARK    4  A    between atoms: C_7  and  C_9
REMARK    5  A    between atoms: C_21  and  C_22
REMARK    6  A    between atoms: C_22  and  O_23
REMARK    7  A    between atoms: O_23  and  C_24
REMARK    8  A    between atoms: C_24  and  C_25
REMARK                            x       y       z     vdW  Elec       q    Type
REMARK                         _______ _______ _______ _____ _____    ______ ____
ROOT
ATOM      1  C   UNL     1      46.569   4.576  13.087  0.00  0.00    +0.000 A 
ATOM      2  N   UNL     1      47.489   5.412  13.599  0.00  0.00    +0.000 NA
ATOM      3  C   UNL     1      47.542   6.685  13.124  0.00  0.00    +0.000 A 
ATOM      4  C   UNL     1      46.708   7.139  12.112  0.00  0.00    +0.000 A 
ATOM      5  C   UNL     1      45.750   6.271  11.610  0.00  0.00    +0.000 A 
ATOM      6  C   UNL     1      45.661   4.962  12.106  0.00  0.00    +0.000 A 
ENDROOT
BRANCH   1   7
ATOM      7  N   UNL     1      46.570   3.297  13.640  0.00  0.00    +0.000 N 
ATOM      8  H   UNL     1      47.321   3.286  14.327  0.00  0.00    +0.000 HD
ATOM      9  H   UNL     1      46.705   2.576  12.942  0.00  0.00    +0.000 HD
ENDBRANCH   1   7
BRANCH   3  10
ATOM     10  C   UNL     1      48.553   7.613  13.746  0.00  0.00    +0.000 C 
BRANCH  10  11
ATOM     11  N   UNL     1      49.485   6.922  14.604  0.00  0.00    +0.000 N 
ATOM     12  C   UNL     1      49.467   7.043  15.969  0.00  0.00    +0.000 C 
ATOM     13  O   UNL     1      48.670   7.784  16.542  0.00  0.00    +0.000 OA
ATOM     14  H   UNL     1      50.273   6.480  14.139  0.00  0.00    +0.000 HD
BRANCH  12  15
ATOM     15  C   UNL     1      50.392   6.186  16.716  0.00  0.00    +0.000 A 
ATOM     16  C   UNL     1      49.888   5.267  17.626  0.00  0.00    +0.000 A 
ATOM     17  S   UNL     1      51.086   4.313  18.376  0.00  0.00    +0.000 S 
ATOM     18  C   UNL     1      52.328   5.124  17.544  0.00  0.00    +0.000 A 
ATOM     19  N   UNL     1      53.633   4.801  17.752  0.00  0.00    +0.000 NA
ATOM     20  C   UNL     1      54.473   5.516  17.080  0.00  0.00    +0.000 A 
ATOM     21  N   UNL     1      54.126   6.517  16.213  0.00  0.00    +0.000 N 
ATOM     22  C   UNL     1      52.821   6.844  15.933  0.00  0.00    +0.000 A 
ATOM     23  O   UNL     1      52.545   7.688  15.086  0.00  0.00    +0.000 OA
ATOM     24  C   UNL     1      51.834   6.094  16.688  0.00  0.00    +0.000 A 
ATOM     25  H   UNL     1      54.831   7.028  15.702  0.00  0.00    +0.000 HD
ENDBRANCH  12  15
ENDBRANCH  10  11
ENDBRANCH   3  10
BRANCH   6  26
ATOM     26  C   UNL     1      44.615   4.034  11.556  0.00  0.00    +0.000 C 
BRANCH  26  27
ATOM     27  O   UNL     1      45.203   2.909  10.898  0.00  0.00    +0.000 OA
BRANCH  27  28
ATOM     28  C   UNL     1      44.532   2.572   9.678  0.00  0.00    +0.000 C 
BRANCH  28  29
ATOM     29  C   UNL     1      45.514   2.391   8.545  0.00  0.00    +0.000 A 
ATOM     30  C   UNL     1      45.868   3.461   7.725  0.00  0.00    +0.000 A 
ATOM     31  C   UNL     1      46.794   3.255   6.707  0.00  0.00    +0.000 A 
ATOM     32  C   UNL     1      47.359   1.997   6.548  0.00  0.00    +0.000 A 
ATOM     33  C   UNL     1      46.976   0.994   7.420  0.00  0.00    +0.000 A 
ATOM     34  N   UNL     1      46.075   1.160   8.412  0.00  0.00    +0.000 NA
ENDBRANCH  28  29
ENDBRANCH  27  28
ENDBRANCH  26  27
ENDBRANCH   6  26
TORSDOF 8
ENDMDL
MODEL 6
REMARK VINA RESULT:    -7.285      4.090      5.255
REMARK INTER + INTRA:         -11.745
REMARK INTER:                 -10.457
REMARK INTRA:                  -1.288
REMARK UNBOUND:                -1.266
REMARK  Name = 
REMARK  8 active torsions:
REMARK  status: ('A' for Active; 'I' for Inactive)
REMARK    1  A    between atoms: N_1  and  C_2
REMARK    2  A    between atoms: C_4  and  C_5
REMARK    3  A    between atoms: C_5  and  N_6
REMARK    4  A    between atoms: C_7  and  C_9
REMARK    5  A    between atoms: C_21  and  C_22
REMARK    6  A    between atoms: C_22  and  O_23
REMARK    7  A    between atoms: O_23  and  C_24
REMARK    8  A    between atoms: C_24  and  C_25
REMARK                            x       y       z     vdW  Elec       q    Type
REMARK                         _______ _______ _______ _____ _____    ______ ____
ROOT
ATOM      1  C   UNL     1      44.437   6.405  11.591  0.00  0.00    +0.000 A 
ATOM      2  N   UNL     1      44.918   7.619  11.907  0.00  0.00    +0.000 NA
ATOM      3  C   UNL     1      46.125   7.695  12.529  0.00  0.00    +0.000 A 
ATOM      4  C   UNL     1      46.859   6.569  12.875  0.00  0.00    +0.000 A 
ATOM      5  C   UNL     1      46.359   5.324  12.521  0.00  0.00    +0.000 A 
ATOM      6  C   UNL     1      45.129   5.226  11.855  0.00  0.00    +0.000 A 
ENDROOT
BRANCH   1   7
ATOM      7  N   UNL     1      43.204   6.415  10.942  0.00  0.00    +0.000 N 
ATOM      8  H   UNL     1      42.763   5.524  11.159  0.00  0.00    +0.000 HD
ATOM      9  H   UNL     1      43.296   6.542   9.942  0.00  0.00    +0.000 HD
ENDBRANCH   1   7
BRANCH   3  10
ATOM     10  C   UNL     1      46.660   9.071  12.833  0.00  0.00    +0.000 C 
BRANCH  10  11
ATOM     11  N   UNL     1      47.839   9.388  12.062  0.00  0.00    +0.000 N 
ATOM     12  C   UNL     1      48.887  10.108  12.573  0.00  0.00    +0.000 C 
ATOM     13  O   UNL     1      48.865  10.559  13.717  0.00  0.00    +0.000 OA
ATOM     14  H   UNL     1      47.778   9.209  11.064  0.00  0.00    +0.000 HD
BRANCH  12  15
ATOM     15  C   UNL     1      50.067  10.248  11.715  0.00  0.00    +0.000 A 
ATOM     16  C   UNL     1      50.511  11.515  11.364  0.00  0.00    +0.000 A 
ATOM     17  S   UNL     1      51.920  11.510  10.405  0.00  0.00    +0.000 S 
ATOM     18  C   UNL     1      51.966   9.811  10.387  0.00  0.00    +0.000 A 
ATOM     19  N   UNL     1      52.937   9.147   9.703  0.00  0.00    +0.000 NA
ATOM     20  C   UNL     1      52.835   7.860   9.747  0.00  0.00    +0.000 A 
ATOM     21  N   UNL     1      51.856   7.178  10.419  0.00  0.00    +0.000 N 
ATOM     22  C   UNL     1      50.886   7.804  11.164  0.00  0.00    +0.000 A 
ATOM     23  O   UNL     1      50.076   7.160  11.823  0.00  0.00    +0.000 OA
ATOM     24  C   UNL     1      50.934   9.254  11.122  0.00  0.00    +0.000 A 
ATOM     25  H   UNL     1      51.843   6.169  10.430  0.00  0.00    +0.000 HD
ENDBRANCH  12  15
ENDBRANCH  10  11
ENDBRANCH   3  10
BRANCH   6  26
ATOM     26  C   UNL     1      44.602   3.872  11.474  0.00  0.00    +0.000 C 
BRANCH  26  27
ATOM     27  O   UNL     1      44.376   3.773  10.066  0.00  0.00    +0.000 OA
BRANCH  27  28
ATOM     28  C   UNL     1      44.477   2.426   9.586  0.00  0.00    +0.000 C 
BRANCH  28  29
ATOM     29  C   UNL     1      45.481   2.320   8.462  0.00  0.00    +0.000 A 
ATOM     30  C   UNL     1      45.722   3.398   7.612  0.00  0.00    +0.000 A 
ATOM     31  C   UNL     1      46.671   3.264   6.604  0.00  0.00    +0.000 A 
ATOM     32  C   UNL     1      47.372   2.071   6.485  0.00  0.00    +0.000 A 
ATOM     33  C   UNL     1      47.093   1.058   7.385  0.00  0.00    +0.000 A 
ATOM     34  N   UNL     1      46.173   1.154   8.368  0.00  0.00    +0.000 NA
ENDBRANCH  28  29
ENDBRANCH  27  28
ENDBRANCH  26  27
ENDBRANCH   6  26
TORSDOF 8
ENDMDL
MODEL 7
REMARK VINA RESULT:    -7.200      2.015      2.351
REMARK INTER + INTRA:         -11.623
REMARK INTER:                 -10.559
REMARK INTRA:                  -1.065
REMARK UNBOUND:                -1.266
REMARK  Name = 
REMARK  8 active torsions:
REMARK  status: ('A' for Active; 'I' for Inactive)
REMARK    1  A    between atoms: N_1  and  C_2
REMARK    2  A    between atoms: C_4  and  C_5
REMARK    3  A    between atoms: C_5  and  N_6
REMARK    4  A    between atoms: C_7  and  C_9
REMARK    5  A    between atoms: C_21  and  C_22
REMARK    6  A    between atoms: C_22  and  O_23
REMARK    7  A    between atoms: O_23  and  C_24
REMARK    8  A    between atoms: C_24  and  C_25
REMARK                            x       y       z     vdW  Elec       q    Type
REMARK                         _______ _______ _______ _____ _____    ______ ____
ROOT
ATOM      1  C   UNL     1      46.241   5.040  13.023  0.00  0.00    +0.000 A 
ATOM      2  N   UNL     1      47.150   5.831  13.618  0.00  0.00    +0.000 NA
ATOM      3  C   UNL     1      47.254   7.122  13.203  0.00  0.00    +0.000 A 
ATOM      4  C   UNL     1      46.483   7.640  12.172  0.00  0.00    +0.000 A 
ATOM      5  C   UNL     1      45.534   6.817  11.584  0.00  0.00    +0.000 A 
ATOM      6  C   UNL     1      45.392   5.490  12.016  0.00  0.00    +0.000 A 
ENDROOT
BRANCH   1   7
ATOM      7  N   UNL     1      46.186   3.738  13.517  0.00  0.00    +0.000 N 
ATOM      8  H   UNL     1      45.314   3.342  13.173  0.00  0.00    +0.000 HD
ATOM      9  H   UNL     1      46.226   3.708  14.528  0.00  0.00    +0.000 HD
ENDBRANCH   1   7
BRANCH   3  10
ATOM     10  C   UNL     1      48.251   7.999  13.917  0.00  0.00    +0.000 C 
BRANCH  10  11
ATOM     11  N   UNL     1      48.047   8.018  15.346  0.00  0.00    +0.000 N 
ATOM     12  C   UNL     1      48.528   9.018  16.150  0.00  0.00    +0.000 C 
ATOM     13  O   UNL     1      49.199   9.945  15.698  0.00  0.00    +0.000 OA
ATOM     14  H   UNL     1      47.684   7.162  15.754  0.00  0.00    +0.000 HD
BRANCH  12  15
ATOM     15  C   UNL     1      48.138   8.970  17.561  0.00  0.00    +0.000 A 
ATOM     16  C   UNL     1      47.756  10.139  18.205  0.00  0.00    +0.000 A 
ATOM     17  S   UNL     1      47.285   9.909  19.828  0.00  0.00    +0.000 S 
ATOM     18  C   UNL     1      47.616   8.243  19.744  0.00  0.00    +0.000 A 
ATOM     19  N   UNL     1      47.444   7.443  20.830  0.00  0.00    +0.000 NA
ATOM     20  C   UNL     1      47.762   6.206  20.637  0.00  0.00    +0.000 A 
ATOM     21  N   UNL     1      48.228   5.697  19.454  0.00  0.00    +0.000 N 
ATOM     22  C   UNL     1      48.370   6.456  18.318  0.00  0.00    +0.000 A 
ATOM     23  O   UNL     1      48.708   5.949  17.253  0.00  0.00    +0.000 OA
ATOM     24  C   UNL     1      48.058   7.863  18.488  0.00  0.00    +0.000 A 
ATOM     25  H   UNL     1      48.442   4.714  19.362  0.00  0.00    +0.000 HD
ENDBRANCH  12  15
ENDBRANCH  10  11
ENDBRANCH   3  10
BRANCH   6  26
ATOM     26  C   UNL     1      44.357   4.612  11.372  0.00  0.00    +0.000 C 
BRANCH  26  27
ATOM     27  O   UNL     1      44.957   3.589  10.574  0.00  0.00    +0.000 OA
BRANCH  27  28
ATOM     28  C   UNL     1      44.481   3.595   9.222  0.00  0.00    +0.000 C 
BRANCH  28  29
ATOM     29  C   UNL     1      45.488   2.974   8.284  0.00  0.00    +0.000 A 
ATOM     30  C   UNL     1      45.930   1.665   8.472  0.00  0.00    +0.000 A 
ATOM     31  C   UNL     1      46.842   1.124   7.571  0.00  0.00    +0.000 A 
ATOM     32  C   UNL     1      47.269   1.890   6.494  0.00  0.00    +0.000 A 
ATOM     33  C   UNL     1      46.762   3.171   6.363  0.00  0.00    +0.000 A 
ATOM     34  N   UNL     1      45.883   3.726   7.224  0.00  0.00    +0.000 NA
ENDBRANCH  28  29
ENDBRANCH  27  28
ENDBRANCH  26  27
ENDBRANCH   6  26
TORSDOF 8
ENDMDL
MODEL 8
REMARK VINA RESULT:    -7.005      3.777      5.108
REMARK INTER + INTRA:         -11.343
REMARK INTER:                 -10.204
REMARK INTRA:                  -1.139
REMARK UNBOUND:                -1.266
REMARK  Name = 
REMARK  8 active torsions:
REMARK  status: ('A' for Active; 'I' for Inactive)
REMARK    1  A    between atoms: N_1  and  C_2
REMARK    2  A    between atoms: C_4  and  C_5
REMARK    3  A    between atoms: C_5  and  N_6
REMARK    4  A    between atoms: C_7  and  C_9
REMARK    5  A    between atoms: C_21  and  C_22
REMARK    6  A    between atoms: C_22  and  O_23
REMARK    7  A    between atoms: O_23  and  C_24
REMARK    8  A    between atoms: C_24  and  C_25
REMARK                            x       y       z     vdW  Elec       q    Type
REMARK                         _______ _______ _______ _____ _____    ______ ____
ROOT
ATOM      1  C   UNL     1      45.435   5.764  11.683  0.00  0.00    +0.000 A 
ATOM      2  N   UNL     1      46.330   6.615  12.214  0.00  0.00    +0.000 NA
ATOM      3  C   UNL     1      47.148   6.161  13.202  0.00  0.00    +0.000 A 
ATOM      4  C   UNL     1      47.070   4.867  13.699  0.00  0.00    +0.000 A 
ATOM      5  C   UNL     1      46.157   3.996  13.125  0.00  0.00    +0.000 A 
ATOM      6  C   UNL     1      45.323   4.437  12.088  0.00  0.00    +0.000 A 
ENDROOT
BRANCH   1   7
ATOM      7  N   UNL     1      44.649   6.303  10.667  0.00  0.00    +0.000 N 
ATOM      8  H   UNL     1      44.529   5.562   9.980  0.00  0.00    +0.000 HD
ATOM      9  H   UNL     1      45.069   7.123  10.248  0.00  0.00    +0.000 HD
ENDBRANCH   1   7
BRANCH   3  10
ATOM     10  C   UNL     1      48.171   7.123  13.748  0.00  0.00    +0.000 C 
BRANCH  10  11
ATOM     11  N   UNL     1      49.413   7.085  13.015  0.00  0.00    +0.000 N 
ATOM     12  C   UNL     1      49.790   8.074  12.143  0.00  0.00    +0.000 C 
ATOM     13  O   UNL     1      49.065   9.040  11.909  0.00  0.00    +0.000 OA
ATOM     14  H   UNL     1      49.915   6.202  13.036  0.00  0.00    +0.000 HD
BRANCH  12  15
ATOM     15  C   UNL     1      51.131   7.962  11.565  0.00  0.00    +0.000 A 
ATOM     16  C   UNL     1      51.297   7.328  10.341  0.00  0.00    +0.000 A 
ATOM     17  S   UNL     1      52.907   7.323   9.780  0.00  0.00    +0.000 S 
ATOM     18  C   UNL     1      53.451   8.133  11.173  0.00  0.00    +0.000 A 
ATOM     19  N   UNL     1      54.769   8.424  11.340  0.00  0.00    +0.000 NA
ATOM     20  C   UNL     1      55.048   9.011  12.456  0.00  0.00    +0.000 A 
ATOM     21  N   UNL     1      54.128   9.342  13.415  0.00  0.00    +0.000 N 
ATOM     22  C   UNL     1      52.781   9.113  13.268  0.00  0.00    +0.000 A 
ATOM     23  O   UNL     1      51.975   9.500  14.108  0.00  0.00    +0.000 OA
ATOM     24  C   UNL     1      52.415   8.423  12.045  0.00  0.00    +0.000 A 
ATOM     25  H   UNL     1      54.408   9.819  14.260  0.00  0.00    +0.000 HD
ENDBRANCH  12  15
ENDBRANCH  10  11
ENDBRANCH   3  10
BRANCH   6  26
ATOM     26  C   UNL     1      44.342   3.481  11.472  0.00  0.00    +0.000 C 
BRANCH  26  27
ATOM     27  O   UNL     1      44.397   3.517  10.044  0.00  0.00    +0.000 OA
BRANCH  27  28
ATOM     28  C   UNL     1      44.561   2.215   9.466  0.00  0.00    +0.000 C 
BRANCH  28  29
ATOM     29  C   UNL     1      45.611   2.226   8.381  0.00  0.00    +0.000 A 
ATOM     30  C   UNL     1      45.884   3.387   7.659  0.00  0.00    +0.000 A 
ATOM     31  C   UNL     1      46.875   3.359   6.683  0.00  0.00    +0.000 A 
ATOM     32  C   UNL     1      47.584   2.185   6.470  0.00  0.00    +0.000 A 
ATOM     33  C   UNL     1      47.272   1.083   7.247  0.00  0.00    +0.000 A 
ATOM     34  N   UNL     1      46.312   1.077   8.195  0.00  0.00    +0.000 NA
ENDBRANCH  28  29
ENDBRANCH  27  28
ENDBRANCH  26  27
ENDBRANCH   6  26
TORSDOF 8
ENDMDL
MODEL 9
REMARK VINA RESULT:    -6.868      1.804      2.238
REMARK INTER + INTRA:         -11.146
REMARK INTER:                  -9.910
REMARK INTRA:                  -1.235
REMARK UNBOUND:                -1.266
REMARK  Name = 
REMARK  8 active torsions:
REMARK  status: ('A' for Active; 'I' for Inactive)
REMARK    1  A    between atoms: N_1  and  C_2
REMARK    2  A    between atoms: C_4  and  C_5
REMARK    3  A    between atoms: C_5  and  N_6
REMARK    4  A    between atoms: C_7  and  C_9
REMARK    5  A    between atoms: C_21  and  C_22
REMARK    6  A    between atoms: C_22  and  O_23
REMARK    7  A    between atoms: O_23  and  C_24
REMARK    8  A    between atoms: C_24  and  C_25
REMARK                            x       y       z     vdW  Elec       q    Type
REMARK                         _______ _______ _______ _____ _____    ______ ____
ROOT
ATOM      1  C   UNL     1      46.152   5.341  13.221  0.00  0.00    +0.000 A 
ATOM      2  N   UNL     1      47.295   5.894  13.663  0.00  0.00    +0.000 NA
ATOM      3  C   UNL     1      47.603   7.155  13.257  0.00  0.00    +0.000 A 
ATOM      4  C   UNL     1      46.800   7.875  12.384  0.00  0.00    +0.000 A 
ATOM      5  C   UNL     1      45.613   7.300  11.956  0.00  0.00    +0.000 A 
ATOM      6  C   UNL     1      45.264   6.010  12.383  0.00  0.00    +0.000 A 
ENDROOT
BRANCH   1   7
ATOM      7  N   UNL     1      45.903   4.055  13.695  0.00  0.00    +0.000 N 
ATOM      8  H   UNL     1      44.922   3.867  13.501  0.00  0.00    +0.000 HD
ATOM      9  H   UNL     1      46.103   3.963  14.684  0.00  0.00    +0.000 HD
ENDBRANCH   1   7
BRANCH   3  10
ATOM     10  C   UNL     1      48.868   7.766  13.802  0.00  0.00    +0.000 C 
BRANCH  10  11
ATOM     11  N   UNL     1      49.471   6.960  14.836  0.00  0.00    +0.000 N 
ATOM     12  C   UNL     1      50.646   7.303  15.452  0.00  0.00    +0.000 C 
ATOM     13  O   UNL     1      51.276   8.309  15.130  0.00  0.00    +0.000 OA
ATOM     14  H   UNL     1      49.079   6.031  14.960  0.00  0.00    +0.000 HD
BRANCH  12  15
ATOM     15  C   UNL     1      51.074   6.454  16.568  0.00  0.00    +0.000 A 
ATOM     16  C   UNL     1      52.362   5.936  16.578  0.00  0.00    +0.000 A 
ATOM     17  S   UNL     1      52.722   5.012  17.964  0.00  0.00    +0.000 S 
ATOM     18  C   UNL     1      51.154   5.233  18.584  0.00  0.00    +0.000 A 
ATOM     19  N   UNL     1      50.784   4.666  19.764  0.00  0.00    +0.000 NA
ATOM     20  C   UNL     1      49.558   4.889  20.102  0.00  0.00    +0.000 A 
ATOM     21  N   UNL     1      48.671   5.633  19.371  0.00  0.00    +0.000 N 
ATOM     22  C   UNL     1      49.013   6.266  18.200  0.00  0.00    +0.000 A 
ATOM     23  O   UNL     1      48.218   6.996  17.616  0.00  0.00    +0.000 OA
ATOM     24  C   UNL     1      50.373   6.021  17.756  0.00  0.00    +0.000 A 
ATOM     25  H   UNL     1      47.728   5.786  19.699  0.00  0.00    +0.000 HD
ENDBRANCH  12  15
ENDBRANCH  10  11
ENDBRANCH   3  10
BRANCH   6  26
ATOM     26  C   UNL     1      43.973   5.401  11.915  0.00  0.00    +0.000 C 
BRANCH  26  27
ATOM     27  O   UNL     1      44.197   4.195  11.180  0.00  0.00    +0.000 OA
BRANCH  27  28
ATOM     28  C   UNL     1      43.935   4.348   9.779  0.00  0.00    +0.000 C 
BRANCH  28  29
ATOM     29  C   UNL     1      44.969   3.626   8.947  0.00  0.00    +0.000 A 
ATOM     30  C   UNL     1      45.138   2.246   9.054  0.00  0.00    +0.000 A 
ATOM     31  C   UNL     1      46.086   1.618   8.252  0.00  0.00    +0.000 A 
ATOM     32  C   UNL     1      46.823   2.376   7.351  0.00  0.00    +0.000 A 
ATOM     33  C   UNL     1      46.576   3.736   7.287  0.00  0.00    +0.000 A 
ATOM     34  N   UNL     1      45.669   4.375   8.056  0.00  0.00    +0.000 NA
ENDBRANCH  28  29
ENDBRANCH  27  28
ENDBRANCH  26  27
ENDBRANCH   6  26
TORSDOF 8
ENDMDL
