MODEL 1
REMARK VINA RESULT:    -8.505      0.000      0.000
REMARK INTER + INTRA:         -13.233
REMARK INTER:                 -12.482
REMARK INTRA:                  -0.751
REMARK UNBOUND:                -0.751
REMARK  Name = 
REMARK  11 active torsions:
REMARK  status: ('A' for Active; 'I' for Inactive)
REMARK    1  A    between atoms: C_1  and  C_2
REMARK    2  A    between atoms: C_2  and  C_3
REMARK    3  A    between atoms: C_2  and  C_4
REMARK    4  A    between atoms: C_2  and  O_5
REMARK    5  A    between atoms: O_5  and  C_6
REMARK    6  A    between atoms: N_8  and  C_9
REMARK    7  A    between atoms: C_9  and  C_10
REMARK    8  A    between atoms: C_13  and  C_14
REMARK    9  A    between atoms: C_14  and  N_15
REMARK   10  A    between atoms: N_15  and  C_16
REMARK   11  A    between atoms: C_19  and  C_20
REMARK                            x       y       z     vdW  Elec       q    Type
REMARK                         _______ _______ _______ _____ _____    ______ ____
ROOT
ATOM      1  C   UNL     1      47.157   6.210  13.429  0.00  0.00    +0.000 A 
ATOM      2  C   UNL     1      46.440   7.020  12.538  0.00  0.00    +0.000 A 
ATOM      3  C   UNL     1      45.328   6.517  11.855  0.00  0.00    +0.000 A 
ATOM      4  C   UNL     1      44.899   5.198  12.062  0.00  0.00    +0.000 A 
ATOM      5  C   UNL     1      45.639   4.379  12.924  0.00  0.00    +0.000 A 
ATOM      6  C   UNL     1      46.749   4.882  13.609  0.00  0.00    +0.000 A 
ENDROOT
BRANCH   1   7
ATOM      7  C   UNL     1      48.349   6.752  14.169  0.00  0.00    +0.000 C 
BRANCH   7  10
ATOM      8  C   UNL     1      49.065   6.358  16.449  0.00  0.00    +0.000 C 
ATOM      9  O   UNL     1      50.091   5.806  16.076  0.00  0.00    +0.000 OA
ATOM     10  N   UNL     1      48.132   6.862  15.588  0.00  0.00    +0.000 N 
ATOM     11  H   UNL     1      47.308   7.302  15.971  0.00  0.00    +0.000 HD
BRANCH   8  12
ATOM     12  O   UNL     1      48.701   6.567  17.740  0.00  0.00    +0.000 OA
BRANCH  12  14
ATOM     13  C   UNL     1      49.252   4.714  19.273  0.00  0.00    +0.000 C 
ATOM     14  C   UNL     1      48.150   5.457  18.505  0.00  0.00    +0.000 C 
ATOM     15  C   UNL     1      47.333   4.514  17.612  0.00  0.00    +0.000 C 
ATOM     16  C   UNL     1      47.195   6.078  19.539  0.00  0.00    +0.000 C 
ENDBRANCH  12  14
ENDBRANCH   8  12
ENDBRANCH   7  10
ENDBRANCH   1   7
BRANCH   4  17
ATOM     17  C   UNL     1      43.655   4.675  11.378  0.00  0.00    +0.000 C 
BRANCH  17  18
ATOM     18  N   UNL     1      43.772   4.822   9.935  0.00  0.00    +0.000 N 
ATOM     19  H   UNL     1      42.872   4.858   9.462  0.00  0.00    +0.000 HD
BRANCH  18  20
ATOM     20  C   UNL     1      44.743   4.129   9.213  0.00  0.00    +0.000 A 
ATOM     21  C   UNL     1      45.666   4.736   8.352  0.00  0.00    +0.000 A 
ATOM     22  C   UNL     1      46.568   3.972   7.593  0.00  0.00    +0.000 A 
ATOM     23  C   UNL     1      46.535   2.575   7.641  0.00  0.00    +0.000 A 
ATOM     24  C   UNL     1      45.594   1.967   8.469  0.00  0.00    +0.000 A 
ATOM     25  F   UNL     1      45.500   0.630   8.549  0.00  0.00    +0.000 F 
ATOM     26  C   UNL     1      44.710   2.728   9.235  0.00  0.00    +0.000 A 
BRANCH  23  27
ATOM     27  C   UNL     1      47.494   1.811   6.801  0.00  0.00    +0.000 C 
ATOM     28  N   UNL     1      48.627   2.447   6.376  0.00  0.00    +0.000 N 
ATOM     29  O   UNL     1      47.286   0.642   6.496  0.00  0.00    +0.000 OA
ATOM     30  H   UNL     1      48.846   3.407   6.614  0.00  0.00    +0.000 HD
ATOM     31  H   UNL     1      49.289   1.923   5.821  0.00  0.00    +0.000 HD
ENDBRANCH  23  27
ENDBRANCH  18  20
ENDBRANCH  17  18
ENDBRANCH   4  17
TORSDOF 8
ENDMDL
MODEL 2
REMARK VINA RESULT:    -8.409      1.120      1.717
REMARK INTER + INTRA:         -13.093
REMARK INTER:                 -12.352
REMARK INTRA:                  -0.741
REMARK UNBOUND:                -0.751
REMARK  Name = 
REMARK  11 active torsions:
REMARK  status: ('A' for Active; 'I' for Inactive)
REMARK    1  A    between atoms: C_1  and  C_2
REMARK    2  A    between atoms: C_2  and  C_3
REMARK    3  A    between atoms: C_2  and  C_4
REMARK    4  A    between atoms: C_2  and  O_5
REMARK    5  A    between atoms: O_5  and  C_6
REMARK    6  A    between atoms: N_8  and  C_9
REMARK    7  A    between atoms: C_9  and  C_10
REMARK    8  A    between atoms: C_13  and  C_14
REMARK    9  A    between atoms: C_14  and  N_15
REMARK   10  A    between atoms: N_15  and  C_16
REMARK   11  A    between atoms: C_19  and  C_20
REMARK                            x       y       z     vdW  Elec       q    Type
REMARK                         _______ _______ _______ _____ _____    ______ ____
ROOT
ATOM      1  C   UNL     1      46.997   6.238  13.381  0.00  0.00    +0.000 A 
ATOM      2  C   UNL     1      46.530   4.922  13.495  0.00  0.00    +0.000 A 
ATOM      3  C   UNL     1      45.373   4.516  12.821  0.00  0.00    +0.000 A 
ATOM      4  C   UNL     1      44.670   5.413  12.005  0.00  0.00    +0.000 A 
ATOM      5  C   UNL     1      45.118   6.738  11.922  0.00  0.00    +0.000 A 
ATOM      6  C   UNL     1      46.276   7.143  12.593  0.00  0.00    +0.000 A 
ENDROOT
BRANCH   1   7
ATOM      7  C   UNL     1      48.245   6.673  14.100  0.00  0.00    +0.000 C 
BRANCH   7  10
ATOM      8  C   UNL     1      48.898   6.206  16.384  0.00  0.00    +0.000 C 
ATOM      9  O   UNL     1      49.823   5.494  16.019  0.00  0.00    +0.000 OA
ATOM     10  N   UNL     1      48.054   6.837  15.517  0.00  0.00    +0.000 N 
ATOM     11  H   UNL     1      47.310   7.408  15.895  0.00  0.00    +0.000 HD
BRANCH   8  12
ATOM     12  O   UNL     1      48.576   6.489  17.672  0.00  0.00    +0.000 OA
BRANCH  12  14
ATOM     13  C   UNL     1      49.140   4.694  19.268  0.00  0.00    +0.000 C 
ATOM     14  C   UNL     1      48.027   5.433  18.510  0.00  0.00    +0.000 C 
ATOM     15  C   UNL     1      47.149   4.473  17.696  0.00  0.00    +0.000 C 
ATOM     16  C   UNL     1      47.133   6.128  19.551  0.00  0.00    +0.000 C 
ENDBRANCH  12  14
ENDBRANCH   8  12
ENDBRANCH   7  10
ENDBRANCH   1   7
BRANCH   4  17
ATOM     17  C   UNL     1      43.460   4.957  11.220  0.00  0.00    +0.000 C 
BRANCH  17  18
ATOM     18  N   UNL     1      43.738   4.993   9.793  0.00  0.00    +0.000 N 
ATOM     19  H   UNL     1      42.945   5.302   9.237  0.00  0.00    +0.000 HD
BRANCH  18  20
ATOM     20  C   UNL     1      44.482   3.989   9.175  0.00  0.00    +0.000 A 
ATOM     21  C   UNL     1      44.386   2.628   9.493  0.00  0.00    +0.000 A 
ATOM     22  C   UNL     1      45.222   1.676   8.888  0.00  0.00    +0.000 A 
ATOM     23  C   UNL     1      46.213   2.070   7.982  0.00  0.00    +0.000 A 
ATOM     24  C   UNL     1      46.336   3.426   7.691  0.00  0.00    +0.000 A 
ATOM     25  F   UNL     1      47.276   3.872   6.842  0.00  0.00    +0.000 F 
ATOM     26  C   UNL     1      45.492   4.369   8.281  0.00  0.00    +0.000 A 
BRANCH  23  27
ATOM     27  C   UNL     1      47.088   1.027   7.386  0.00  0.00    +0.000 C 
ATOM     28  N   UNL     1      46.785  -0.284   7.629  0.00  0.00    +0.000 N 
ATOM     29  O   UNL     1      48.054   1.323   6.692  0.00  0.00    +0.000 OA
ATOM     30  H   UNL     1      45.991  -0.576   8.185  0.00  0.00    +0.000 HD
ATOM     31  H   UNL     1      47.369  -0.994   7.209  0.00  0.00    +0.000 HD
ENDBRANCH  23  27
ENDBRANCH  18  20
ENDBRANCH  17  18
ENDBRANCH   4  17
TORSDOF 8
ENDMDL
MODEL 3
REMARK VINA RESULT:    -7.147      3.239      4.645
REMARK INTER + INTRA:         -11.240
REMARK INTER:                 -10.670
REMARK INTRA:                  -0.570
REMARK UNBOUND:                -0.751
REMARK  Name = 
REMARK  11 active torsions:
REMARK  status: ('A' for Active; 'I' for Inactive)
REMARK    1  A    between atoms: C_1  and  C_2
REMARK    2  A    between atoms: C_2  and  C_3
REMARK    3  A    between atoms: C_2  and  C_4
REMARK    4  A    between atoms: C_2  and  O_5
REMARK    5  A    between atoms: O_5  and  C_6
REMARK    6  A    between atoms: N_8  and  C_9
REMARK    7  A    between atoms: C_9  and  C_10
REMARK    8  A    between atoms: C_13  and  C_14
REMARK    9  A    between atoms: C_14  and  N_15
REMARK   10  A    between atoms: N_15  and  C_16
REMARK   11  A    between atoms: C_19  and  C_20
REMARK                            x       y       z     vdW  Elec       q    Type
REMARK                         _______ _______ _______ _____ _____    ______ ____
ROOT
ATOM      1  C   UNL     1      46.945   7.206  12.860  0.00  0.00    +0.000 A 
ATOM      2  C   UNL     1      47.102   5.824  12.687  0.00  0.00    +0.000 A 
ATOM      3  C   UNL     1      46.030   5.035  12.257  0.00  0.00    +0.000 A 
ATOM      4  C   UNL     1      44.785   5.613  11.974  0.00  0.00    +0.000 A 
ATOM      5  C   UNL     1      44.620   6.989  12.184  0.00  0.00    +0.000 A 
ATOM      6  C   UNL     1      45.692   7.779  12.611  0.00  0.00    +0.000 A 
ENDROOT
BRANCH   1   7
ATOM      7  C   UNL     1      48.099   8.057  13.317  0.00  0.00    +0.000 C 
BRANCH   7  10
ATOM      8  C   UNL     1      49.848   8.522  11.707  0.00  0.00    +0.000 C 
ATOM      9  O   UNL     1      49.289   9.544  11.333  0.00  0.00    +0.000 OA
ATOM     10  N   UNL     1      49.344   7.710  12.682  0.00  0.00    +0.000 N 
ATOM     11  H   UNL     1      49.861   6.880  12.936  0.00  0.00    +0.000 HD
BRANCH   8  12
ATOM     12  O   UNL     1      51.030   8.047  11.239  0.00  0.00    +0.000 OA
BRANCH  12  14
ATOM     13  C   UNL     1      52.245   9.812  12.462  0.00  0.00    +0.000 C 
ATOM     14  C   UNL     1      52.182   8.938  11.202  0.00  0.00    +0.000 C 
ATOM     15  C   UNL     1      52.199   9.777   9.917  0.00  0.00    +0.000 C 
ATOM     16  C   UNL     1      53.426   8.033  11.195  0.00  0.00    +0.000 C 
ENDBRANCH  12  14
ENDBRANCH   8  12
ENDBRANCH   7  10
ENDBRANCH   1   7
BRANCH   4  17
ATOM     17  C   UNL     1      43.646   4.772  11.441  0.00  0.00    +0.000 C 
BRANCH  17  18
ATOM     18  N   UNL     1      43.659   4.765   9.987  0.00  0.00    +0.000 N 
ATOM     19  H   UNL     1      42.735   4.875   9.576  0.00  0.00    +0.000 HD
BRANCH  18  20
ATOM     20  C   UNL     1      44.474   3.885   9.275  0.00  0.00    +0.000 A 
ATOM     21  C   UNL     1      44.613   2.524   9.573  0.00  0.00    +0.000 A 
ATOM     22  C   UNL     1      45.512   1.710   8.865  0.00  0.00    +0.000 A 
ATOM     23  C   UNL     1      46.332   2.251   7.870  0.00  0.00    +0.000 A 
ATOM     24  C   UNL     1      46.223   3.612   7.595  0.00  0.00    +0.000 A 
ATOM     25  F   UNL     1      46.992   4.197   6.662  0.00  0.00    +0.000 F 
ATOM     26  C   UNL     1      45.316   4.416   8.289  0.00  0.00    +0.000 A 
BRANCH  23  27
ATOM     27  C   UNL     1      47.284   1.353   7.166  0.00  0.00    +0.000 C 
ATOM     28  N   UNL     1      48.491   1.866   6.782  0.00  0.00    +0.000 N 
ATOM     29  O   UNL     1      47.005   0.182   6.934  0.00  0.00    +0.000 OA
ATOM     30  H   UNL     1      48.770   2.823   6.963  0.00  0.00    +0.000 HD
ATOM     31  H   UNL     1      49.146   1.251   6.320  0.00  0.00    +0.000 HD
ENDBRANCH  23  27
ENDBRANCH  18  20
ENDBRANCH  17  18
ENDBRANCH   4  17
TORSDOF 8
ENDMDL
MODEL 4
REMARK VINA RESULT:    -6.882      2.875      9.233
REMARK INTER + INTRA:         -10.852
REMARK INTER:                 -10.133
REMARK INTRA:                  -0.719
REMARK UNBOUND:                -0.751
REMARK  Name = 
REMARK  11 active torsions:
REMARK  status: ('A' for Active; 'I' for Inactive)
REMARK    1  A    between atoms: C_1  and  C_2
REMARK    2  A    between atoms: C_2  and  C_3
REMARK    3  A    between atoms: C_2  and  C_4
REMARK    4  A    between atoms: C_2  and  O_5
REMARK    5  A    between atoms: O_5  and  C_6
REMARK    6  A    between atoms: N_8  and  C_9
REMARK    7  A    between atoms: C_9  and  C_10
REMARK    8  A    between atoms: C_13  and  C_14
REMARK    9  A    between atoms: C_14  and  N_15
REMARK   10  A    between atoms: N_15  and  C_16
REMARK   11  A    between atoms: C_19  and  C_20
REMARK                            x       y       z     vdW  Elec       q    Type
REMARK                         _______ _______ _______ _____ _____    ______ ____
ROOT
ATOM      1  C   UNL     1      44.957   5.145  11.163  0.00  0.00    +0.000 A 
ATOM      2  C   UNL     1      45.157   4.692  12.474  0.00  0.00    +0.000 A 
ATOM      3  C   UNL     1      46.192   5.214  13.257  0.00  0.00    +0.000 A 
ATOM      4  C   UNL     1      47.038   6.212  12.752  0.00  0.00    +0.000 A 
ATOM      5  C   UNL     1      46.859   6.636  11.428  0.00  0.00    +0.000 A 
ATOM      6  C   UNL     1      45.823   6.117  10.646  0.00  0.00    +0.000 A 
ENDROOT
BRANCH   1   7
ATOM      7  C   UNL     1      43.840   4.590  10.322  0.00  0.00    +0.000 C 
BRANCH   7  10
ATOM      8  C   UNL     1      44.727   3.044   8.682  0.00  0.00    +0.000 C 
ATOM      9  O   UNL     1      44.844   2.159   9.517  0.00  0.00    +0.000 OA
ATOM     10  N   UNL     1      44.243   4.287   8.974  0.00  0.00    +0.000 N 
ATOM     11  H   UNL     1      44.179   4.968   8.230  0.00  0.00    +0.000 HD
BRANCH   8  12
ATOM     12  O   UNL     1      45.038   2.939   7.365  0.00  0.00    +0.000 OA
BRANCH  12  14
ATOM     13  C   UNL     1      47.137   1.643   7.429  0.00  0.00    +0.000 C 
ATOM     14  C   UNL     1      46.440   2.932   6.969  0.00  0.00    +0.000 C 
ATOM     15  C   UNL     1      47.167   4.189   7.466  0.00  0.00    +0.000 C 
ATOM     16  C   UNL     1      46.455   2.951   5.431  0.00  0.00    +0.000 C 
ENDBRANCH  12  14
ENDBRANCH   8  12
ENDBRANCH   7  10
ENDBRANCH   1   7
BRANCH   4  17
ATOM     17  C   UNL     1      48.112   6.826  13.621  0.00  0.00    +0.000 C 
BRANCH  17  18
ATOM     18  N   UNL     1      47.776   6.670  15.028  0.00  0.00    +0.000 N 
ATOM     19  H   UNL     1      47.302   7.479  15.419  0.00  0.00    +0.000 HD
BRANCH  18  20
ATOM     20  C   UNL     1      48.662   6.069  15.921  0.00  0.00    +0.000 A 
ATOM     21  C   UNL     1      49.962   6.528  16.171  0.00  0.00    +0.000 A 
ATOM     22  C   UNL     1      50.832   5.829  17.023  0.00  0.00    +0.000 A 
ATOM     23  C   UNL     1      50.438   4.623  17.611  0.00  0.00    +0.000 A 
ATOM     24  C   UNL     1      49.159   4.144  17.336  0.00  0.00    +0.000 A 
ATOM     25  F   UNL     1      48.725   2.984  17.856  0.00  0.00    +0.000 F 
ATOM     26  C   UNL     1      48.290   4.849  16.501  0.00  0.00    +0.000 A 
BRANCH  23  27
ATOM     27  C   UNL     1      51.403   3.909  18.487  0.00  0.00    +0.000 C 
ATOM     28  N   UNL     1      51.444   4.247  19.811  0.00  0.00    +0.000 N 
ATOM     29  O   UNL     1      52.143   3.038  18.045  0.00  0.00    +0.000 OA
ATOM     30  H   UNL     1      50.843   4.951  20.222  0.00  0.00    +0.000 HD
ATOM     31  H   UNL     1      52.087   3.749  20.411  0.00  0.00    +0.000 HD
ENDBRANCH  23  27
ENDBRANCH  18  20
ENDBRANCH  17  18
ENDBRANCH   4  17
TORSDOF 8
ENDMDL
MODEL 5
REMARK VINA RESULT:    -6.520      3.227      9.687
REMARK INTER + INTRA:         -10.320
REMARK INTER:                  -9.980
REMARK INTRA:                  -0.340
REMARK UNBOUND:                -0.751
REMARK  Name = 
REMARK  11 active torsions:
REMARK  status: ('A' for Active; 'I' for Inactive)
REMARK    1  A    between atoms: C_1  and  C_2
REMARK    2  A    between atoms: C_2  and  C_3
REMARK    3  A    between atoms: C_2  and  C_4
REMARK    4  A    between atoms: C_2  and  O_5
REMARK    5  A    between atoms: O_5  and  C_6
REMARK    6  A    between atoms: N_8  and  C_9
REMARK    7  A    between atoms: C_9  and  C_10
REMARK    8  A    between atoms: C_13  and  C_14
REMARK    9  A    between atoms: C_14  and  N_15
REMARK   10  A    between atoms: N_15  and  C_16
REMARK   11  A    between atoms: C_19  and  C_20
REMARK                            x       y       z     vdW  Elec       q    Type
REMARK                         _______ _______ _______ _____ _____    ______ ____
ROOT
ATOM      1  C   UNL     1      44.585   4.902  11.139  0.00  0.00    +0.000 A 
ATOM      2  C   UNL     1      45.497   5.948  10.950  0.00  0.00    +0.000 A 
ATOM      3  C   UNL     1      46.471   6.228  11.915  0.00  0.00    +0.000 A 
ATOM      4  C   UNL     1      46.563   5.456  13.082  0.00  0.00    +0.000 A 
ATOM      5  C   UNL     1      45.625   4.434  13.287  0.00  0.00    +0.000 A 
ATOM      6  C   UNL     1      44.655   4.152  12.320  0.00  0.00    +0.000 A 
ENDROOT
BRANCH   1   7
ATOM      7  C   UNL     1      43.543   4.596  10.099  0.00  0.00    +0.000 C 
BRANCH   7  10
ATOM      8  C   UNL     1      44.488   3.141   8.410  0.00  0.00    +0.000 C 
ATOM      9  O   UNL     1      44.397   2.164   9.140  0.00  0.00    +0.000 OA
ATOM     10  N   UNL     1      44.096   4.393   8.785  0.00  0.00    +0.000 N 
ATOM     11  H   UNL     1      44.205   5.152   8.127  0.00  0.00    +0.000 HD
BRANCH   8  12
ATOM     12  O   UNL     1      44.966   3.140   7.139  0.00  0.00    +0.000 OA
BRANCH  12  14
ATOM     13  C   UNL     1      47.124   4.250   7.587  0.00  0.00    +0.000 C 
ATOM     14  C   UNL     1      46.405   3.064   6.928  0.00  0.00    +0.000 C 
ATOM     15  C   UNL     1      46.745   2.940   5.436  0.00  0.00    +0.000 C 
ATOM     16  C   UNL     1      46.877   1.779   7.631  0.00  0.00    +0.000 C 
ENDBRANCH  12  14
ENDBRANCH   8  12
ENDBRANCH   7  10
ENDBRANCH   1   7
BRANCH   4  17
ATOM     17  C   UNL     1      47.658   5.712  14.093  0.00  0.00    +0.000 C 
BRANCH  17  18
ATOM     18  N   UNL     1      47.277   5.190  15.396  0.00  0.00    +0.000 N 
ATOM     19  H   UNL     1      46.385   5.548  15.727  0.00  0.00    +0.000 HD
BRANCH  18  20
ATOM     20  C   UNL     1      48.216   5.032  16.415  0.00  0.00    +0.000 A 
ATOM     21  C   UNL     1      48.387   3.855  17.153  0.00  0.00    +0.000 A 
ATOM     22  C   UNL     1      49.296   3.788  18.221  0.00  0.00    +0.000 A 
ATOM     23  C   UNL     1      50.025   4.917  18.609  0.00  0.00    +0.000 A 
ATOM     24  C   UNL     1      49.831   6.101  17.900  0.00  0.00    +0.000 A 
ATOM     25  F   UNL     1      50.487   7.224  18.231  0.00  0.00    +0.000 F 
ATOM     26  C   UNL     1      48.938   6.160  16.828  0.00  0.00    +0.000 A 
BRANCH  23  27
ATOM     27  C   UNL     1      50.958   4.802  19.760  0.00  0.00    +0.000 C 
ATOM     28  N   UNL     1      52.040   3.977  19.632  0.00  0.00    +0.000 N 
ATOM     29  O   UNL     1      50.773   5.427  20.797  0.00  0.00    +0.000 OA
ATOM     30  H   UNL     1      52.240   3.451  18.790  0.00  0.00    +0.000 HD
ATOM     31  H   UNL     1      52.685   3.912  20.407  0.00  0.00    +0.000 HD
ENDBRANCH  23  27
ENDBRANCH  18  20
ENDBRANCH  17  18
ENDBRANCH   4  17
TORSDOF 8
ENDMDL
MODEL 6
REMARK VINA RESULT:    -6.322      3.859      5.399
REMARK INTER + INTRA:         -10.030
REMARK INTER:                  -9.390
REMARK INTRA:                  -0.640
REMARK UNBOUND:                -0.751
REMARK  Name = 
REMARK  11 active torsions:
REMARK  status: ('A' for Active; 'I' for Inactive)
REMARK    1  A    between atoms: C_1  and  C_2
REMARK    2  A    between atoms: C_2  and  C_3
REMARK    3  A    between atoms: C_2  and  C_4
REMARK    4  A    between atoms: C_2  and  O_5
REMARK    5  A    between atoms: O_5  and  C_6
REMARK    6  A    between atoms: N_8  and  C_9
REMARK    7  A    between atoms: C_9  and  C_10
REMARK    8  A    between atoms: C_13  and  C_14
REMARK    9  A    between atoms: C_14  and  N_15
REMARK   10  A    between atoms: N_15  and  C_16
REMARK   11  A    between atoms: C_19  and  C_20
REMARK                            x       y       z     vdW  Elec       q    Type
REMARK                         _______ _______ _______ _____ _____    ______ ____
ROOT
ATOM      1  C   UNL     1      45.731   6.607  12.630  0.00  0.00    +0.000 A 
ATOM      2  C   UNL     1      46.581   5.577  12.208  0.00  0.00    +0.000 A 
ATOM      3  C   UNL     1      46.081   4.292  11.971  0.00  0.00    +0.000 A 
ATOM      4  C   UNL     1      44.716   4.016  12.133  0.00  0.00    +0.000 A 
ATOM      5  C   UNL     1      43.874   5.038  12.591  0.00  0.00    +0.000 A 
ATOM      6  C   UNL     1      44.373   6.323  12.825  0.00  0.00    +0.000 A 
ENDROOT
BRANCH   1   7
ATOM      7  C   UNL     1      46.266   7.991  12.879  0.00  0.00    +0.000 C 
BRANCH   7  10
ATOM      8  C   UNL     1      45.156   9.894  11.874  0.00  0.00    +0.000 C 
ATOM      9  O   UNL     1      45.919   9.888  10.918  0.00  0.00    +0.000 OA
ATOM     10  N   UNL     1      45.240   9.000  12.902  0.00  0.00    +0.000 N 
ATOM     11  H   UNL     1      44.575   9.070  13.660  0.00  0.00    +0.000 HD
BRANCH   8  12
ATOM     12  O   UNL     1      44.123  10.755  12.059  0.00  0.00    +0.000 OA
BRANCH  12  14
ATOM     13  C   UNL     1      42.547   9.331  10.803  0.00  0.00    +0.000 C 
ATOM     14  C   UNL     1      43.029  10.759  11.098  0.00  0.00    +0.000 C 
ATOM     15  C   UNL     1      43.411  11.514   9.818  0.00  0.00    +0.000 C 
ATOM     16  C   UNL     1      41.869  11.516  11.768  0.00  0.00    +0.000 C 
ENDBRANCH  12  14
ENDBRANCH   8  12
ENDBRANCH   7  10
ENDBRANCH   1   7
BRANCH   4  17
ATOM     17  C   UNL     1      44.162   2.647  11.808  0.00  0.00    +0.000 C 
BRANCH  17  18
ATOM     18  N   UNL     1      43.724   2.593  10.423  0.00  0.00    +0.000 N 
ATOM     19  H   UNL     1      42.893   2.022  10.286  0.00  0.00    +0.000 HD
BRANCH  18  20
ATOM     20  C   UNL     1      44.640   2.485   9.377  0.00  0.00    +0.000 A 
ATOM     21  C   UNL     1      45.254   1.288   8.988  0.00  0.00    +0.000 A 
ATOM     22  C   UNL     1      46.229   1.262   7.978  0.00  0.00    +0.000 A 
ATOM     23  C   UNL     1      46.650   2.445   7.363  0.00  0.00    +0.000 A 
ATOM     24  C   UNL     1      46.068   3.643   7.772  0.00  0.00    +0.000 A 
ATOM     25  F   UNL     1      46.438   4.815   7.233  0.00  0.00    +0.000 F 
ATOM     26  C   UNL     1      45.087   3.664   8.765  0.00  0.00    +0.000 A 
BRANCH  23  27
ATOM     27  C   UNL     1      47.701   2.368   6.315  0.00  0.00    +0.000 C 
ATOM     28  N   UNL     1      47.505   3.059   5.153  0.00  0.00    +0.000 N 
ATOM     29  O   UNL     1      48.722   1.709   6.482  0.00  0.00    +0.000 OA
ATOM     30  H   UNL     1      46.684   3.626   4.976  0.00  0.00    +0.000 HD
ATOM     31  H   UNL     1      48.228   3.022   4.448  0.00  0.00    +0.000 HD
ENDBRANCH  23  27
ENDBRANCH  18  20
ENDBRANCH  17  18
ENDBRANCH   4  17
TORSDOF 8
ENDMDL
MODEL 7
REMARK VINA RESULT:    -6.156      2.662      3.343
REMARK INTER + INTRA:          -9.786
REMARK INTER:                  -9.526
REMARK INTRA:                  -0.260
REMARK UNBOUND:                -0.751
REMARK  Name = 
REMARK  11 active torsions:
REMARK  status: ('A' for Active; 'I' for Inactive)
REMARK    1  A    between atoms: C_1  and  C_2
REMARK    2  A    between atoms: C_2  and  C_3
REMARK    3  A    between atoms: C_2  and  C_4
REMARK    4  A    between atoms: C_2  and  O_5
REMARK    5  A    between atoms: O_5  and  C_6
REMARK    6  A    between atoms: N_8  and  C_9
REMARK    7  A    between atoms: C_9  and  C_10
REMARK    8  A    between atoms: C_13  and  C_14
REMARK    9  A    between atoms: C_14  and  N_15
REMARK   10  A    between atoms: N_15  and  C_16
REMARK   11  A    between atoms: C_19  and  C_20
REMARK                            x       y       z     vdW  Elec       q    Type
REMARK                         _______ _______ _______ _____ _____    ______ ____
ROOT
ATOM      1  C   UNL     1      47.153   8.172  12.577  0.00  0.00    +0.000 A 
ATOM      2  C   UNL     1      47.410   6.796  12.519  0.00  0.00    +0.000 A 
ATOM      3  C   UNL     1      46.409   5.901  12.128  0.00  0.00    +0.000 A 
ATOM      4  C   UNL     1      45.135   6.364  11.771  0.00  0.00    +0.000 A 
ATOM      5  C   UNL     1      44.868   7.737  11.867  0.00  0.00    +0.000 A 
ATOM      6  C   UNL     1      45.870   8.633  12.254  0.00  0.00    +0.000 A 
ENDROOT
BRANCH   1   7
ATOM      7  C   UNL     1      48.230   9.137  12.991  0.00  0.00    +0.000 C 
BRANCH   7  10
ATOM      8  C   UNL     1      49.972   8.388  14.498  0.00  0.00    +0.000 C 
ATOM      9  O   UNL     1      49.365   8.805  15.474  0.00  0.00    +0.000 OA
ATOM     10  N   UNL     1      49.502   8.501  13.221  0.00  0.00    +0.000 N 
ATOM     11  H   UNL     1      50.061   8.134  12.465  0.00  0.00    +0.000 HD
BRANCH   8  12
ATOM     12  O   UNL     1      51.170   7.749  14.522  0.00  0.00    +0.000 OA
BRANCH  12  14
ATOM     13  C   UNL     1      52.320   8.080  16.679  0.00  0.00    +0.000 C 
ATOM     14  C   UNL     1      52.299   8.394  15.176  0.00  0.00    +0.000 C 
ATOM     15  C   UNL     1      52.316   9.904  14.903  0.00  0.00    +0.000 C 
ATOM     16  C   UNL     1      53.566   7.784  14.552  0.00  0.00    +0.000 C 
ENDBRANCH  12  14
ENDBRANCH   8  12
ENDBRANCH   7  10
ENDBRANCH   1   7
BRANCH   4  17
ATOM     17  C   UNL     1      44.073   5.405  11.281  0.00  0.00    +0.000 C 
BRANCH  17  18
ATOM     18  N   UNL     1      44.137   5.275   9.834  0.00  0.00    +0.000 N 
ATOM     19  H   UNL     1      43.235   5.396   9.380  0.00  0.00    +0.000 HD
BRANCH  18  20
ATOM     20  C   UNL     1      44.927   4.298   9.229  0.00  0.00    +0.000 A 
ATOM     21  C   UNL     1      45.988   4.572   8.356  0.00  0.00    +0.000 A 
ATOM     22  C   UNL     1      46.694   3.540   7.718  0.00  0.00    +0.000 A 
ATOM     23  C   UNL     1      46.323   2.204   7.900  0.00  0.00    +0.000 A 
ATOM     24  C   UNL     1      45.245   1.929   8.739  0.00  0.00    +0.000 A 
ATOM     25  F   UNL     1      44.828   0.669   8.944  0.00  0.00    +0.000 F 
ATOM     26  C   UNL     1      44.555   2.956   9.386  0.00  0.00    +0.000 A 
BRANCH  23  27
ATOM     27  C   UNL     1      47.086   1.149   7.185  0.00  0.00    +0.000 C 
ATOM     28  N   UNL     1      46.864  -0.155   7.530  0.00  0.00    +0.000 N 
ATOM     29  O   UNL     1      47.892   1.430   6.304  0.00  0.00    +0.000 OA
ATOM     30  H   UNL     1      46.200  -0.434   8.242  0.00  0.00    +0.000 HD
ATOM     31  H   UNL     1      47.370  -0.874   7.031  0.00  0.00    +0.000 HD
ENDBRANCH  23  27
ENDBRANCH  18  20
ENDBRANCH  17  18
ENDBRANCH   4  17
TORSDOF 8
ENDMDL
MODEL 8
REMARK VINA RESULT:    -5.999      4.925      6.828
REMARK INTER + INTRA:          -9.555
REMARK INTER:                  -9.169
REMARK INTRA:                  -0.386
REMARK UNBOUND:                -0.751
REMARK  Name = 
REMARK  11 active torsions:
REMARK  status: ('A' for Active; 'I' for Inactive)
REMARK    1  A    between atoms: C_1  and  C_2
REMARK    2  A    between atoms: C_2  and  C_3
REMARK    3  A    between atoms: C_2  and  C_4
REMARK    4  A    between atoms: C_2  and  O_5
REMARK    5  A    between atoms: O_5  and  C_6
REMARK    6  A    between atoms: N_8  and  C_9
REMARK    7  A    between atoms: C_9  and  C_10
REMARK    8  A    between atoms: C_13  and  C_14
REMARK    9  A    between atoms: C_14  and  N_15
REMARK   10  A    between atoms: N_15  and  C_16
REMARK   11  A    between atoms: C_19  and  C_20
REMARK                            x       y       z     vdW  Elec       q    Type
REMARK                         _______ _______ _______ _____ _____    ______ ____
ROOT
ATOM      1  C   UNL     1      50.609   8.740  11.421  0.00  0.00    +0.000 A 
ATOM      2  C   UNL     1      49.968   7.614  11.954  0.00  0.00    +0.000 A 
ATOM      3  C   UNL     1      48.616   7.665  12.309  0.00  0.00    +0.000 A 
ATOM      4  C   UNL     1      47.872   8.839  12.121  0.00  0.00    +0.000 A 
ATOM      5  C   UNL     1      48.524   9.975  11.623  0.00  0.00    +0.000 A 
ATOM      6  C   UNL     1      49.875   9.923  11.265  0.00  0.00    +0.000 A 
ENDROOT
BRANCH   1   7
ATOM      7  C   UNL     1      52.061   8.684  11.033  0.00  0.00    +0.000 C 
BRANCH   7  10
ATOM      8  C   UNL     1      52.926   6.785   9.804  0.00  0.00    +0.000 C 
ATOM      9  O   UNL     1      52.803   7.366   8.735  0.00  0.00    +0.000 OA
ATOM     10  N   UNL     1      52.588   7.344  11.003  0.00  0.00    +0.000 N 
ATOM     11  H   UNL     1      52.716   6.800  11.844  0.00  0.00    +0.000 HD
BRANCH   8  12
ATOM     12  O   UNL     1      53.419   5.531   9.973  0.00  0.00    +0.000 OA
BRANCH  12  14
ATOM     13  C   UNL     1      55.186   4.399  11.270  0.00  0.00    +0.000 C 
ATOM     14  C   UNL     1      54.857   5.351  10.111  0.00  0.00    +0.000 C 
ATOM     15  C   UNL     1      55.578   6.699  10.251  0.00  0.00    +0.000 C 
ATOM     16  C   UNL     1      55.336   4.688   8.809  0.00  0.00    +0.000 C 
ENDBRANCH  12  14
ENDBRANCH   8  12
ENDBRANCH   7  10
ENDBRANCH   1   7
BRANCH   4  17
ATOM     17  C   UNL     1      46.393   8.874  12.438  0.00  0.00    +0.000 C 
BRANCH  17  18
ATOM     18  N   UNL     1      46.015   7.708  13.221  0.00  0.00    +0.000 N 
ATOM     19  H   UNL     1      46.657   7.511  13.984  0.00  0.00    +0.000 HD
BRANCH  18  20
ATOM     20  C   UNL     1      45.521   6.556  12.610  0.00  0.00    +0.000 A 
ATOM     21  C   UNL     1      44.453   6.540  11.704  0.00  0.00    +0.000 A 
ATOM     22  C   UNL     1      43.953   5.334  11.186  0.00  0.00    +0.000 A 
ATOM     23  C   UNL     1      44.480   4.107  11.601  0.00  0.00    +0.000 A 
ATOM     24  C   UNL     1      45.518   4.117  12.530  0.00  0.00    +0.000 A 
ATOM     25  F   UNL     1      46.057   2.972  12.981  0.00  0.00    +0.000 F 
ATOM     26  C   UNL     1      46.025   5.317  13.031  0.00  0.00    +0.000 A 
BRANCH  23  27
ATOM     27  C   UNL     1      43.900   2.858  11.041  0.00  0.00    +0.000 C 
ATOM     28  N   UNL     1      44.535   2.271   9.983  0.00  0.00    +0.000 N 
ATOM     29  O   UNL     1      42.884   2.359  11.511  0.00  0.00    +0.000 OA
ATOM     30  H   UNL     1      45.383   2.641   9.570  0.00  0.00    +0.000 HD
ATOM     31  H   UNL     1      44.152   1.412   9.613  0.00  0.00    +0.000 HD
ENDBRANCH  23  27
ENDBRANCH  18  20
ENDBRANCH  17  18
ENDBRANCH   4  17
TORSDOF 8
ENDMDL
MODEL 9
REMARK VINA RESULT:    -5.889      5.083      7.341
REMARK INTER + INTRA:          -9.394
REMARK INTER:                  -8.707
REMARK INTRA:                  -0.687
REMARK UNBOUND:                -0.751
REMARK  Name = 
REMARK  11 active torsions:
REMARK  status: ('A' for Active; 'I' for Inactive)
REMARK    1  A    between atoms: C_1  and  C_2
REMARK    2  A    between atoms: C_2  and  C_3
REMARK    3  A    between atoms: C_2  and  C_4
REMARK    4  A    between atoms: C_2  and  O_5
REMARK    5  A    between atoms: O_5  and  C_6
REMARK    6  A    between atoms: N_8  and  C_9
REMARK    7  A    between atoms: C_9  and  C_10
REMARK    8  A    between atoms: C_13  and  C_14
REMARK    9  A    between atoms: C_14  and  N_15
REMARK   10  A    between atoms: N_15  and  C_16
REMARK   11  A    between atoms: C_19  and  C_20
REMARK                            x       y       z     vdW  Elec       q    Type
REMARK                         _______ _______ _______ _____ _____    ______ ____
ROOT
ATOM      1  C   UNL     1      50.388   9.353  11.196  0.00  0.00    +0.000 A 
ATOM      2  C   UNL     1      49.373  10.317  11.251  0.00  0.00    +0.000 A 
ATOM      3  C   UNL     1      48.121  10.002  11.789  0.00  0.00    +0.000 A 
ATOM      4  C   UNL     1      47.864   8.722  12.300  0.00  0.00    +0.000 A 
ATOM      5  C   UNL     1      48.868   7.749  12.210  0.00  0.00    +0.000 A 
ATOM      6  C   UNL     1      50.121   8.064  11.675  0.00  0.00    +0.000 A 
ENDROOT
BRANCH   1   7
ATOM      7  C   UNL     1      51.737   9.692  10.623  0.00  0.00    +0.000 C 
BRANCH   7  10
ATOM      8  C   UNL     1      53.364   8.581   9.215  0.00  0.00    +0.000 C 
ATOM      9  O   UNL     1      53.499   9.574   8.514  0.00  0.00    +0.000 OA
ATOM     10  N   UNL     1      52.517   8.530  10.284  0.00  0.00    +0.000 N 
ATOM     11  H   UNL     1      52.458   7.672  10.814  0.00  0.00    +0.000 HD
BRANCH   8  12
ATOM     12  O   UNL     1      54.024   7.405   9.059  0.00  0.00    +0.000 OA
BRANCH  12  14
ATOM     13  C   UNL     1      54.721   6.992   6.729  0.00  0.00    +0.000 C 
ATOM     14  C   UNL     1      53.769   6.605   7.869  0.00  0.00    +0.000 C 
ATOM     15  C   UNL     1      52.296   6.690   7.444  0.00  0.00    +0.000 C 
ATOM     16  C   UNL     1      54.068   5.147   8.257  0.00  0.00    +0.000 C 
ENDBRANCH  12  14
ENDBRANCH   8  12
ENDBRANCH   7  10
ENDBRANCH   1   7
BRANCH   4  17
ATOM     17  C   UNL     1      46.534   8.402  12.946  0.00  0.00    +0.000 C 
BRANCH  17  18
ATOM     18  N   UNL     1      46.582   7.094  13.582  0.00  0.00    +0.000 N 
ATOM     19  H   UNL     1      47.503   6.856  13.941  0.00  0.00    +0.000 HD
BRANCH  18  20
ATOM     20  C   UNL     1      45.906   6.001  13.040  0.00  0.00    +0.000 A 
ATOM     21  C   UNL     1      46.284   4.667  13.233  0.00  0.00    +0.000 A 
ATOM     22  C   UNL     1      45.607   3.616  12.593  0.00  0.00    +0.000 A 
ATOM     23  C   UNL     1      44.560   3.880  11.703  0.00  0.00    +0.000 A 
ATOM     24  C   UNL     1      44.205   5.208  11.481  0.00  0.00    +0.000 A 
ATOM     25  F   UNL     1      43.220   5.530  10.627  0.00  0.00    +0.000 F 
ATOM     26  C   UNL     1      44.869   6.250  12.131  0.00  0.00    +0.000 A 
BRANCH  23  27
ATOM     27  C   UNL     1      43.890   2.735  11.033  0.00  0.00    +0.000 C 
ATOM     28  N   UNL     1      44.440   2.252   9.879  0.00  0.00    +0.000 N 
ATOM     29  O   UNL     1      42.875   2.229  11.498  0.00  0.00    +0.000 OA
ATOM     30  H   UNL     1      45.284   2.630   9.466  0.00  0.00    +0.000 HD
ATOM     31  H   UNL     1      43.995   1.462   9.433  0.00  0.00    +0.000 HD
ENDBRANCH  23  27
ENDBRANCH  18  20
ENDBRANCH  17  18
ENDBRANCH   4  17
TORSDOF 8
ENDMDL
