MODEL 1
REMARK VINA RESULT:    -7.756      0.000      0.000
REMARK INTER + INTRA:         -10.482
REMARK INTER:                  -9.796
REMARK INTRA:                  -0.685
REMARK UNBOUND:                -0.685
REMARK  Name = 
REMARK  5 active torsions:
REMARK  status: ('A' for Active; 'I' for Inactive)
REMARK    1  A    between atoms: N_1  and  C_2
REMARK    2  A    between atoms: C_2  and  C_3
REMARK    3  A    between atoms: C_3  and  C_4
REMARK    4  A    between atoms: C_7  and  C_8
REMARK    5  A    between atoms: C_8  and  N_9
REMARK                            x       y       z     vdW  Elec       q    Type
REMARK                         _______ _______ _______ _____ _____    ______ ____
ROOT
ATOM      1  C   UNL     1      45.896   2.531   8.231  0.00  0.00    +0.000 A 
ATOM      2  C   UNL     1      44.979   1.970   9.128  0.00  0.00    +0.000 A 
ATOM      3  C   UNL     1      44.205   2.778   9.964  0.00  0.00    +0.000 A 
ATOM      4  C   UNL     1      44.324   4.172   9.921  0.00  0.00    +0.000 A 
ATOM      5  C   UNL     1      45.251   4.739   9.040  0.00  0.00    +0.000 A 
ATOM      6  C   UNL     1      46.023   3.926   8.206  0.00  0.00    +0.000 A 
ENDROOT
BRANCH   1   7
ATOM      7  C   UNL     1      46.808   1.711   7.339  0.00  0.00    +0.000 C 
BRANCH   7   8
ATOM      8  C   UNL     1      48.035   2.421   6.755  0.00  0.00    +0.000 C 
BRANCH   8   9
ATOM      9  N   UNL     1      48.452   1.765   5.521  0.00  0.00    +0.000 NA
ATOM     10  H   UNL     1      49.307   1.247   5.701  0.00  0.00    +0.000 HD
ATOM     11  H   UNL     1      48.675   2.454   4.811  0.00  0.00    +0.000 HD
ENDBRANCH   8   9
ENDBRANCH   7   8
ENDBRANCH   1   7
BRANCH   4  12
ATOM     12  C   UNL     1      43.464   5.049  10.799  0.00  0.00    +0.000 C 
BRANCH  12  13
ATOM     13  N   UNL     1      44.229   5.978  11.636  0.00  0.00    +0.000 N 
ATOM     14  C   UNL     1      44.331   7.324  11.378  0.00  0.00    +0.000 A 
ATOM     15  C   UNL     1      45.254   7.856  12.246  0.00  0.00    +0.000 A 
ATOM     16  C   UNL     1      45.932   6.761  12.845  0.00  0.00    +0.000 A 
ATOM     17  C   UNL     1      47.130   6.600  13.567  0.00  0.00    +0.000 A 
ATOM     18 CL   UNL     1      48.165   7.962  13.638  0.00  0.00    +0.000 Cl
ATOM     19  C   UNL     1      47.508   5.361  14.076  0.00  0.00    +0.000 A 
ATOM     20  C   UNL     1      46.646   4.277  13.940  0.00  0.00    +0.000 A 
ATOM     21  C   UNL     1      45.460   4.383  13.199  0.00  0.00    +0.000 A 
ATOM     22  C   UNL     1      45.164   5.616  12.588  0.00  0.00    +0.000 A 
ENDBRANCH  12  13
ENDBRANCH   4  12
TORSDOF 5
ENDMDL
MODEL 2
REMARK VINA RESULT:    -6.965      1.340      2.253
REMARK INTER + INTRA:          -9.483
REMARK INTER:                  -8.915
REMARK INTRA:                  -0.569
REMARK UNBOUND:                -0.685
REMARK  Name = 
REMARK  5 active torsions:
REMARK  status: ('A' for Active; 'I' for Inactive)
REMARK    1  A    between atoms: N_1  and  C_2
REMARK    2  A    between atoms: C_2  and  C_3
REMARK    3  A    between atoms: C_3  and  C_4
REMARK    4  A    between atoms: C_7  and  C_8
REMARK    5  A    between atoms: C_8  and  N_9
REMARK                            x       y       z     vdW  Elec       q    Type
REMARK                         _______ _______ _______ _____ _____    ______ ____
ROOT
ATOM      1  C   UNL     1      45.812   3.016   7.782  0.00  0.00    +0.000 A 
ATOM      2  C   UNL     1      45.193   2.364   8.855  0.00  0.00    +0.000 A 
ATOM      3  C   UNL     1      44.886   3.049  10.033  0.00  0.00    +0.000 A 
ATOM      4  C   UNL     1      45.186   4.411  10.166  0.00  0.00    +0.000 A 
ATOM      5  C   UNL     1      45.820   5.064   9.105  0.00  0.00    +0.000 A 
ATOM      6  C   UNL     1      46.125   4.374   7.930  0.00  0.00    +0.000 A 
ENDROOT
BRANCH   1   7
ATOM      7  C   UNL     1      46.225   2.319   6.501  0.00  0.00    +0.000 C 
BRANCH   7   8
ATOM      8  C   UNL     1      47.455   1.406   6.569  0.00  0.00    +0.000 C 
BRANCH   8   9
ATOM      9  N   UNL     1      48.494   1.897   5.670  0.00  0.00    +0.000 NA
ATOM     10  H   UNL     1      49.040   2.601   6.158  0.00  0.00    +0.000 HD
ATOM     11  H   UNL     1      48.079   2.358   4.867  0.00  0.00    +0.000 HD
ENDBRANCH   8   9
ENDBRANCH   7   8
ENDBRANCH   1   7
BRANCH   4  12
ATOM     12  C   UNL     1      44.824   5.162  11.425  0.00  0.00    +0.000 C 
BRANCH  12  13
ATOM     13  N   UNL     1      45.854   5.103  12.465  0.00  0.00    +0.000 N 
ATOM     14  C   UNL     1      45.732   4.358  13.615  0.00  0.00    +0.000 A 
ATOM     15  C   UNL     1      46.787   4.668  14.438  0.00  0.00    +0.000 A 
ATOM     16  C   UNL     1      47.401   5.830  13.899  0.00  0.00    +0.000 A 
ATOM     17  C   UNL     1      48.302   6.800  14.380  0.00  0.00    +0.000 A 
ATOM     18 CL   UNL     1      48.664   6.740  16.051  0.00  0.00    +0.000 Cl
ATOM     19  C   UNL     1      48.762   7.828  13.562  0.00  0.00    +0.000 A 
ATOM     20  C   UNL     1      48.389   7.852  12.222  0.00  0.00    +0.000 A 
ATOM     21  C   UNL     1      47.467   6.928  11.710  0.00  0.00    +0.000 A 
ATOM     22  C   UNL     1      46.920   5.976  12.590  0.00  0.00    +0.000 A 
ENDBRANCH  12  13
ENDBRANCH   4  12
TORSDOF 5
ENDMDL
MODEL 3
REMARK VINA RESULT:    -6.931      2.965      6.754
REMARK INTER + INTRA:          -9.440
REMARK INTER:                  -9.228
REMARK INTRA:                  -0.212
REMARK UNBOUND:                -0.685
REMARK  Name = 
REMARK  5 active torsions:
REMARK  status: ('A' for Active; 'I' for Inactive)
REMARK    1  A    between atoms: N_1  and  C_2
REMARK    2  A    between atoms: C_2  and  C_3
REMARK    3  A    between atoms: C_3  and  C_4
REMARK    4  A    between atoms: C_7  and  C_8
REMARK    5  A    between atoms: C_8  and  N_9
REMARK                            x       y       z     vdW  Elec       q    Type
REMARK                         _______ _______ _______ _____ _____    ______ ____
ROOT
ATOM      1  C   UNL     1      46.813   5.098  14.091  0.00  0.00    +0.000 A 
ATOM      2  C   UNL     1      47.208   6.003  13.098  0.00  0.00    +0.000 A 
ATOM      3  C   UNL     1      46.578   6.022  11.852  0.00  0.00    +0.000 A 
ATOM      4  C   UNL     1      45.530   5.138  11.566  0.00  0.00    +0.000 A 
ATOM      5  C   UNL     1      45.143   4.220  12.547  0.00  0.00    +0.000 A 
ATOM      6  C   UNL     1      45.776   4.204  13.792  0.00  0.00    +0.000 A 
ENDROOT
BRANCH   1   7
ATOM      7  C   UNL     1      47.492   4.984  15.441  0.00  0.00    +0.000 C 
BRANCH   7   8
ATOM      8  C   UNL     1      47.545   3.592  16.081  0.00  0.00    +0.000 C 
BRANCH   8   9
ATOM      9  N   UNL     1      46.750   3.572  17.304  0.00  0.00    +0.000 NA
ATOM     10  H   UNL     1      46.568   2.606  17.559  0.00  0.00    +0.000 HD
ATOM     11  H   UNL     1      45.847   4.005  17.146  0.00  0.00    +0.000 HD
ENDBRANCH   8   9
ENDBRANCH   7   8
ENDBRANCH   1   7
BRANCH   4  12
ATOM     12  C   UNL     1      44.825   5.181  10.232  0.00  0.00    +0.000 C 
BRANCH  12  13
ATOM     13  N   UNL     1      44.826   3.898   9.523  0.00  0.00    +0.000 N 
ATOM     14  C   UNL     1      44.198   2.769   9.993  0.00  0.00    +0.000 A 
ATOM     15  C   UNL     1      44.545   1.718   9.179  0.00  0.00    +0.000 A 
ATOM     16  C   UNL     1      45.629   2.161   8.376  0.00  0.00    +0.000 A 
ATOM     17  C   UNL     1      46.606   1.534   7.580  0.00  0.00    +0.000 A 
ATOM     18 CL   UNL     1      46.691  -0.173   7.683  0.00  0.00    +0.000 Cl
ATOM     19  C   UNL     1      47.536   2.275   6.857  0.00  0.00    +0.000 A 
ATOM     20  C   UNL     1      47.448   3.664   6.855  0.00  0.00    +0.000 A 
ATOM     21  C   UNL     1      46.514   4.331   7.661  0.00  0.00    +0.000 A 
ATOM     22  C   UNL     1      45.668   3.560   8.479  0.00  0.00    +0.000 A 
ENDBRANCH  12  13
ENDBRANCH   4  12
TORSDOF 5
ENDMDL
MODEL 4
REMARK VINA RESULT:    -6.107      1.292      1.893
REMARK INTER + INTRA:          -8.399
REMARK INTER:                  -7.875
REMARK INTRA:                  -0.524
REMARK UNBOUND:                -0.685
REMARK  Name = 
REMARK  5 active torsions:
REMARK  status: ('A' for Active; 'I' for Inactive)
REMARK    1  A    between atoms: N_1  and  C_2
REMARK    2  A    between atoms: C_2  and  C_3
REMARK    3  A    between atoms: C_3  and  C_4
REMARK    4  A    between atoms: C_7  and  C_8
REMARK    5  A    between atoms: C_8  and  N_9
REMARK                            x       y       z     vdW  Elec       q    Type
REMARK                         _______ _______ _______ _____ _____    ______ ____
ROOT
ATOM      1  C   UNL     1      45.434   2.998   8.936  0.00  0.00    +0.000 A 
ATOM      2  C   UNL     1      45.671   4.367   8.760  0.00  0.00    +0.000 A 
ATOM      3  C   UNL     1      45.127   5.309   9.636  0.00  0.00    +0.000 A 
ATOM      4  C   UNL     1      44.335   4.905  10.718  0.00  0.00    +0.000 A 
ATOM      5  C   UNL     1      44.080   3.541  10.890  0.00  0.00    +0.000 A 
ATOM      6  C   UNL     1      44.626   2.603  10.010  0.00  0.00    +0.000 A 
ENDROOT
BRANCH   1   7
ATOM      7  C   UNL     1      45.944   1.930   7.989  0.00  0.00    +0.000 C 
BRANCH   7   8
ATOM      8  C   UNL     1      46.977   2.360   6.942  0.00  0.00    +0.000 C 
BRANCH   8   9
ATOM      9  N   UNL     1      47.957   1.299   6.739  0.00  0.00    +0.000 NA
ATOM     10  H   UNL     1      47.946   1.029   5.761  0.00  0.00    +0.000 HD
ATOM     11  H   UNL     1      47.701   0.475   7.271  0.00  0.00    +0.000 HD
ENDBRANCH   8   9
ENDBRANCH   7   8
ENDBRANCH   1   7
BRANCH   4  12
ATOM     12  C   UNL     1      43.775   5.919  11.687  0.00  0.00    +0.000 C 
BRANCH  12  13
ATOM     13  N   UNL     1      44.684   7.033  11.967  0.00  0.00    +0.000 N 
ATOM     14  C   UNL     1      44.470   8.318  11.528  0.00  0.00    +0.000 A 
ATOM     15  C   UNL     1      45.591   9.059  11.813  0.00  0.00    +0.000 A 
ATOM     16  C   UNL     1      46.612   8.138  12.171  0.00  0.00    +0.000 A 
ATOM     17  C   UNL     1      48.014   8.194  12.287  0.00  0.00    +0.000 A 
ATOM     18 CL   UNL     1      48.768   9.620  11.716  0.00  0.00    +0.000 Cl
ATOM     19  C   UNL     1      48.749   7.093  12.718  0.00  0.00    +0.000 A 
ATOM     20  C   UNL     1      48.079   5.942  13.120  0.00  0.00    +0.000 A 
ATOM     21  C   UNL     1      46.688   5.830  12.988  0.00  0.00    +0.000 A 
ATOM     22  C   UNL     1      45.982   6.912  12.431  0.00  0.00    +0.000 A 
ENDBRANCH  12  13
ENDBRANCH   4  12
TORSDOF 5
ENDMDL
MODEL 5
REMARK VINA RESULT:    -5.212      4.962      7.824
REMARK INTER + INTRA:          -7.269
REMARK INTER:                  -6.809
REMARK INTRA:                  -0.460
REMARK UNBOUND:                -0.685
REMARK  Name = 
REMARK  5 active torsions:
REMARK  status: ('A' for Active; 'I' for Inactive)
REMARK    1  A    between atoms: N_1  and  C_2
REMARK    2  A    between atoms: C_2  and  C_3
REMARK    3  A    between atoms: C_3  and  C_4
REMARK    4  A    between atoms: C_7  and  C_8
REMARK    5  A    between atoms: C_8  and  N_9
REMARK                            x       y       z     vdW  Elec       q    Type
REMARK                         _______ _______ _______ _____ _____    ______ ____
ROOT
ATOM      1  C   UNL     1      51.511   2.527  17.662  0.00  0.00    +0.000 A 
ATOM      2  C   UNL     1      50.500   1.776  17.050  0.00  0.00    +0.000 A 
ATOM      3  C   UNL     1      49.271   2.356  16.726  0.00  0.00    +0.000 A 
ATOM      4  C   UNL     1      49.023   3.707  16.999  0.00  0.00    +0.000 A 
ATOM      5  C   UNL     1      50.023   4.458  17.625  0.00  0.00    +0.000 A 
ATOM      6  C   UNL     1      51.250   3.873  17.949  0.00  0.00    +0.000 A 
ENDROOT
BRANCH   1   7
ATOM      7  C   UNL     1      52.843   1.946  18.094  0.00  0.00    +0.000 C 
BRANCH   7   8
ATOM      8  C   UNL     1      53.263   0.616  17.458  0.00  0.00    +0.000 C 
BRANCH   8   9
ATOM      9  N   UNL     1      53.093  -0.472  18.415  0.00  0.00    +0.000 NA
ATOM     10  H   UNL     1      52.334  -0.235  19.046  0.00  0.00    +0.000 HD
ATOM     11  H   UNL     1      53.925  -0.575  18.986  0.00  0.00    +0.000 HD
ENDBRANCH   8   9
ENDBRANCH   7   8
ENDBRANCH   1   7
BRANCH   4  12
ATOM     12  C   UNL     1      47.709   4.344  16.618  0.00  0.00    +0.000 C 
BRANCH  12  13
ATOM     13  N   UNL     1      47.766   5.113  15.372  0.00  0.00    +0.000 N 
ATOM     14  C   UNL     1      48.239   6.402  15.294  0.00  0.00    +0.000 A 
ATOM     15  C   UNL     1      47.987   6.874  14.029  0.00  0.00    +0.000 A 
ATOM     16  C   UNL     1      47.088   5.958  13.421  0.00  0.00    +0.000 A 
ATOM     17  C   UNL     1      46.236   5.986  12.300  0.00  0.00    +0.000 A 
ATOM     18 CL   UNL     1      46.043   7.502  11.529  0.00  0.00    +0.000 Cl
ATOM     19  C   UNL     1      45.490   4.871  11.929  0.00  0.00    +0.000 A 
ATOM     20  C   UNL     1      45.652   3.679  12.629  0.00  0.00    +0.000 A 
ATOM     21  C   UNL     1      46.462   3.615  13.772  0.00  0.00    +0.000 A 
ATOM     22  C   UNL     1      47.106   4.791  14.200  0.00  0.00    +0.000 A 
ENDBRANCH  12  13
ENDBRANCH   4  12
TORSDOF 5
ENDMDL
MODEL 6
REMARK VINA RESULT:    -5.100      3.375      5.444
REMARK INTER + INTRA:          -7.127
REMARK INTER:                  -6.562
REMARK INTRA:                  -0.566
REMARK UNBOUND:                -0.685
REMARK  Name = 
REMARK  5 active torsions:
REMARK  status: ('A' for Active; 'I' for Inactive)
REMARK    1  A    between atoms: N_1  and  C_2
REMARK    2  A    between atoms: C_2  and  C_3
REMARK    3  A    between atoms: C_3  and  C_4
REMARK    4  A    between atoms: C_7  and  C_8
REMARK    5  A    between atoms: C_8  and  N_9
REMARK                            x       y       z     vdW  Elec       q    Type
REMARK                         _______ _______ _______ _____ _____    ______ ____
ROOT
ATOM      1  C   UNL     1      45.038   5.103  11.842  0.00  0.00    +0.000 A 
ATOM      2  C   UNL     1      45.732   6.117  11.169  0.00  0.00    +0.000 A 
ATOM      3  C   UNL     1      46.894   6.672  11.710  0.00  0.00    +0.000 A 
ATOM      4  C   UNL     1      47.397   6.224  12.938  0.00  0.00    +0.000 A 
ATOM      5  C   UNL     1      46.698   5.225  13.622  0.00  0.00    +0.000 A 
ATOM      6  C   UNL     1      45.537   4.673  13.078  0.00  0.00    +0.000 A 
ENDROOT
BRANCH   1   7
ATOM      7  C   UNL     1      43.741   4.500  11.340  0.00  0.00    +0.000 C 
BRANCH   7   8
ATOM      8  C   UNL     1      43.800   3.064  10.807  0.00  0.00    +0.000 C 
BRANCH   8   9
ATOM      9  N   UNL     1      43.042   2.174  11.680  0.00  0.00    +0.000 NA
ATOM     10  H   UNL     1      43.041   1.243  11.274  0.00  0.00    +0.000 HD
ATOM     11  H   UNL     1      42.073   2.468  11.731  0.00  0.00    +0.000 HD
ENDBRANCH   8   9
ENDBRANCH   7   8
ENDBRANCH   1   7
BRANCH   4  12
ATOM     12  C   UNL     1      48.671   6.799  13.507  0.00  0.00    +0.000 C 
BRANCH  12  13
ATOM     13  N   UNL     1      48.478   7.536  14.759  0.00  0.00    +0.000 N 
ATOM     14  C   UNL     1      48.237   8.889  14.815  0.00  0.00    +0.000 A 
ATOM     15  C   UNL     1      48.284   9.276  16.133  0.00  0.00    +0.000 A 
ATOM     16  C   UNL     1      48.847   8.193  16.859  0.00  0.00    +0.000 A 
ATOM     17  C   UNL     1      49.421   8.036  18.135  0.00  0.00    +0.000 A 
ATOM     18 CL   UNL     1      49.706   9.471  19.024  0.00  0.00    +0.000 Cl
ATOM     19  C   UNL     1      49.855   6.792  18.585  0.00  0.00    +0.000 A 
ATOM     20  C   UNL     1      49.643   5.669  17.792  0.00  0.00    +0.000 A 
ATOM     21  C   UNL     1      49.107   5.784  16.502  0.00  0.00    +0.000 A 
ATOM     22  C   UNL     1      48.794   7.069  16.022  0.00  0.00    +0.000 A 
ENDBRANCH  12  13
ENDBRANCH   4  12
TORSDOF 5
ENDMDL
MODEL 7
REMARK VINA RESULT:    -5.054      4.008      6.217
REMARK INTER + INTRA:          -7.070
REMARK INTER:                  -6.536
REMARK INTRA:                  -0.534
REMARK UNBOUND:                -0.685
REMARK  Name = 
REMARK  5 active torsions:
REMARK  status: ('A' for Active; 'I' for Inactive)
REMARK    1  A    between atoms: N_1  and  C_2
REMARK    2  A    between atoms: C_2  and  C_3
REMARK    3  A    between atoms: C_3  and  C_4
REMARK    4  A    between atoms: C_7  and  C_8
REMARK    5  A    between atoms: C_8  and  N_9
REMARK                            x       y       z     vdW  Elec       q    Type
REMARK                         _______ _______ _______ _____ _____    ______ ____
ROOT
ATOM      1  C   UNL     1      45.484   6.942  12.235  0.00  0.00    +0.000 A 
ATOM      2  C   UNL     1      46.186   5.740  12.389  0.00  0.00    +0.000 A 
ATOM      3  C   UNL     1      47.334   5.674  13.181  0.00  0.00    +0.000 A 
ATOM      4  C   UNL     1      47.809   6.810  13.848  0.00  0.00    +0.000 A 
ATOM      5  C   UNL     1      47.123   8.018  13.685  0.00  0.00    +0.000 A 
ATOM      6  C   UNL     1      45.975   8.079  12.891  0.00  0.00    +0.000 A 
ENDROOT
BRANCH   1   7
ATOM      7  C   UNL     1      44.267   7.096  11.344  0.00  0.00    +0.000 C 
BRANCH   7   8
ATOM      8  C   UNL     1      43.284   5.921  11.296  0.00  0.00    +0.000 C 
BRANCH   8   9
ATOM      9  N   UNL     1      43.436   5.192  10.042  0.00  0.00    +0.000 NA
ATOM     10  H   UNL     1      42.599   5.328   9.483  0.00  0.00    +0.000 HD
ATOM     11  H   UNL     1      43.509   4.196  10.217  0.00  0.00    +0.000 HD
ENDBRANCH   8   9
ENDBRANCH   7   8
ENDBRANCH   1   7
BRANCH   4  12
ATOM     12  C   UNL     1      49.029   6.734  14.733  0.00  0.00    +0.000 C 
BRANCH  12  13
ATOM     13  N   UNL     1      48.718   6.561  16.154  0.00  0.00    +0.000 N 
ATOM     14  C   UNL     1      49.021   7.495  17.118  0.00  0.00    +0.000 A 
ATOM     15  C   UNL     1      48.754   6.941  18.347  0.00  0.00    +0.000 A 
ATOM     16  C   UNL     1      48.560   5.550  18.137  0.00  0.00    +0.000 A 
ATOM     17  C   UNL     1      48.546   4.407  18.959  0.00  0.00    +0.000 A 
ATOM     18 CL   UNL     1      49.039   4.631  20.582  0.00  0.00    +0.000 Cl
ATOM     19  C   UNL     1      48.275   3.145  18.439  0.00  0.00    +0.000 A 
ATOM     20  C   UNL     1      47.930   3.020  17.096  0.00  0.00    +0.000 A 
ATOM     21  C   UNL     1      47.966   4.126  16.234  0.00  0.00    +0.000 A 
ATOM     22  C   UNL     1      48.367   5.368  16.760  0.00  0.00    +0.000 A 
ENDBRANCH  12  13
ENDBRANCH   4  12
TORSDOF 5
ENDMDL
MODEL 8
REMARK VINA RESULT:    -4.891      3.638      5.807
REMARK INTER + INTRA:          -6.863
REMARK INTER:                  -6.389
REMARK INTRA:                  -0.474
REMARK UNBOUND:                -0.685
REMARK  Name = 
REMARK  5 active torsions:
REMARK  status: ('A' for Active; 'I' for Inactive)
REMARK    1  A    between atoms: N_1  and  C_2
REMARK    2  A    between atoms: C_2  and  C_3
REMARK    3  A    between atoms: C_3  and  C_4
REMARK    4  A    between atoms: C_7  and  C_8
REMARK    5  A    between atoms: C_8  and  N_9
REMARK                            x       y       z     vdW  Elec       q    Type
REMARK                         _______ _______ _______ _____ _____    ______ ____
ROOT
ATOM      1  C   UNL     1      44.481   5.392  11.404  0.00  0.00    +0.000 A 
ATOM      2  C   UNL     1      44.213   6.766  11.429  0.00  0.00    +0.000 A 
ATOM      3  C   UNL     1      45.103   7.661  12.027  0.00  0.00    +0.000 A 
ATOM      4  C   UNL     1      46.292   7.205  12.611  0.00  0.00    +0.000 A 
ATOM      5  C   UNL     1      46.557   5.832  12.604  0.00  0.00    +0.000 A 
ATOM      6  C   UNL     1      45.663   4.941  12.006  0.00  0.00    +0.000 A 
ENDROOT
BRANCH   1   7
ATOM      7  C   UNL     1      43.531   4.362  10.825  0.00  0.00    +0.000 C 
BRANCH   7   8
ATOM      8  C   UNL     1      43.958   2.892  10.912  0.00  0.00    +0.000 C 
BRANCH   8   9
ATOM      9  N   UNL     1      43.025   2.148  11.750  0.00  0.00    +0.000 NA
ATOM     10  H   UNL     1      43.095   2.494  12.702  0.00  0.00    +0.000 HD
ATOM     11  H   UNL     1      43.279   1.167  11.778  0.00  0.00    +0.000 HD
ENDBRANCH   8   9
ENDBRANCH   7   8
ENDBRANCH   1   7
BRANCH   4  12
ATOM     12  C   UNL     1      47.272   8.173  13.227  0.00  0.00    +0.000 C 
BRANCH  12  13
ATOM     13  N   UNL     1      48.530   8.291  12.486  0.00  0.00    +0.000 N 
ATOM     14  C   UNL     1      49.629   7.500  12.724  0.00  0.00    +0.000 A 
ATOM     15  C   UNL     1      50.677   7.991  11.982  0.00  0.00    +0.000 A 
ATOM     16  C   UNL     1      50.282   9.272  11.512  0.00  0.00    +0.000 A 
ATOM     17  C   UNL     1      50.948  10.388  10.972  0.00  0.00    +0.000 A 
ATOM     18 CL   UNL     1      52.658  10.349  11.016  0.00  0.00    +0.000 Cl
ATOM     19  C   UNL     1      50.247  11.516  10.552  0.00  0.00    +0.000 A 
ATOM     20  C   UNL     1      48.857  11.507  10.590  0.00  0.00    +0.000 A 
ATOM     21  C   UNL     1      48.154  10.432  11.152  0.00  0.00    +0.000 A 
ATOM     22  C   UNL     1      48.892   9.359  11.685  0.00  0.00    +0.000 A 
ENDBRANCH  12  13
ENDBRANCH   4  12
TORSDOF 5
ENDMDL
MODEL 9
REMARK VINA RESULT:    -4.791      3.230      5.442
REMARK INTER + INTRA:          -6.737
REMARK INTER:                  -6.142
REMARK INTRA:                  -0.594
REMARK UNBOUND:                -0.685
REMARK  Name = 
REMARK  5 active torsions:
REMARK  status: ('A' for Active; 'I' for Inactive)
REMARK    1  A    between atoms: N_1  and  C_2
REMARK    2  A    between atoms: C_2  and  C_3
REMARK    3  A    between atoms: C_3  and  C_4
REMARK    4  A    between atoms: C_7  and  C_8
REMARK    5  A    between atoms: C_8  and  N_9
REMARK                            x       y       z     vdW  Elec       q    Type
REMARK                         _______ _______ _______ _____ _____    ______ ____
ROOT
ATOM      1  C   UNL     1      44.567   5.450  11.412  0.00  0.00    +0.000 A 
ATOM      2  C   UNL     1      44.277   6.817  11.322  0.00  0.00    +0.000 A 
ATOM      3  C   UNL     1      45.007   7.756  12.054  0.00  0.00    +0.000 A 
ATOM      4  C   UNL     1      46.053   7.352  12.894  0.00  0.00    +0.000 A 
ATOM      5  C   UNL     1      46.336   5.987  13.001  0.00  0.00    +0.000 A 
ATOM      6  C   UNL     1      45.603   5.052  12.267  0.00  0.00    +0.000 A 
ENDROOT
BRANCH   1   7
ATOM      7  C   UNL     1      43.778   4.375  10.691  0.00  0.00    +0.000 C 
BRANCH   7   8
ATOM      8  C   UNL     1      44.139   2.918  11.001  0.00  0.00    +0.000 C 
BRANCH   8   9
ATOM      9  N   UNL     1      43.025   2.257  11.673  0.00  0.00    +0.000 NA
ATOM     10  H   UNL     1      42.287   2.938  11.824  0.00  0.00    +0.000 HD
ATOM     11  H   UNL     1      43.309   1.930  12.590  0.00  0.00    +0.000 HD
ENDBRANCH   8   9
ENDBRANCH   7   8
ENDBRANCH   1   7
BRANCH   4  12
ATOM     12  C   UNL     1      46.865   8.368  13.659  0.00  0.00    +0.000 C 
BRANCH  12  13
ATOM     13  N   UNL     1      48.225   7.922  13.972  0.00  0.00    +0.000 N 
ATOM     14  C   UNL     1      48.642   7.582  15.238  0.00  0.00    +0.000 A 
ATOM     15  C   UNL     1      50.001   7.384  15.201  0.00  0.00    +0.000 A 
ATOM     16  C   UNL     1      50.456   7.894  13.956  0.00  0.00    +0.000 A 
ATOM     17  C   UNL     1      51.707   8.259  13.421  0.00  0.00    +0.000 A 
ATOM     18 CL   UNL     1      53.021   8.294  14.516  0.00  0.00    +0.000 Cl
ATOM     19  C   UNL     1      51.831   8.698  12.106  0.00  0.00    +0.000 A 
ATOM     20  C   UNL     1      50.713   8.697  11.278  0.00  0.00    +0.000 A 
ATOM     21  C   UNL     1      49.443   8.374  11.778  0.00  0.00    +0.000 A 
ATOM     22  C   UNL     1      49.324   8.057  13.143  0.00  0.00    +0.000 A 
ENDBRANCH  12  13
ENDBRANCH   4  12
TORSDOF 5
ENDMDL
