MODEL 1
REMARK VINA RESULT:    -9.434      0.000      0.000
REMARK INTER + INTRA:         -14.023
REMARK INTER:                 -12.742
REMARK INTRA:                  -1.280
REMARK UNBOUND:                -1.280
REMARK  Name = 
REMARK  6 active torsions:
REMARK  status: ('A' for Active; 'I' for Inactive)
REMARK    1  A    between atoms: C_2  and  C_4
REMARK    2  A    between atoms: C_7  and  O_8
REMARK    3  A    between atoms: O_8  and  C_9
REMARK    4  A    between atoms: C_9  and  C_10
REMARK    5  A    between atoms: C_10  and  C_13
REMARK    6  A    between atoms: C_17  and  C_18
REMARK                            x       y       z     vdW  Elec       q    Type
REMARK                         _______ _______ _______ _____ _____    ______ ____
ROOT
ATOM      1  C   UNL     1      43.723   4.569  12.527  0.00  0.00    +0.000 C 
ATOM      2  F   UNL     1      42.812   5.279  13.258  0.00  0.00    +0.000 F 
ATOM      3  F   UNL     1      43.568   3.267  12.911  0.00  0.00    +0.000 F 
ENDROOT
BRANCH   1   4
ATOM      4  C   UNL     1      45.143   5.053  12.777  0.00  0.00    +0.000 A 
ATOM      5  C   UNL     1      45.771   5.921  11.875  0.00  0.00    +0.000 A 
ATOM      6  C   UNL     1      47.053   6.403  12.130  0.00  0.00    +0.000 A 
ATOM      7  C   UNL     1      47.709   6.056  13.309  0.00  0.00    +0.000 A 
ATOM      8  C   UNL     1      47.104   5.208  14.252  0.00  0.00    +0.000 A 
ATOM      9  C   UNL     1      45.836   4.679  13.938  0.00  0.00    +0.000 A 
BRANCH   8  10
ATOM     10  C   UNL     1      47.753   4.912  15.544  0.00  0.00    +0.000 A 
ATOM     11  C   UNL     1      47.565   3.671  16.180  0.00  0.00    +0.000 A 
ATOM     12  C   UNL     1      48.179   3.380  17.397  0.00  0.00    +0.000 A 
ATOM     13  C   UNL     1      49.006   4.323  17.989  0.00  0.00    +0.000 A 
ATOM     14  F   UNL     1      49.616   4.008  19.140  0.00  0.00    +0.000 F 
ATOM     15  C   UNL     1      49.211   5.561  17.389  0.00  0.00    +0.000 A 
ATOM     16 CL   UNL     1      50.276   6.716  18.091  0.00  0.00    +0.000 Cl
ATOM     17  C   UNL     1      48.573   5.859  16.185  0.00  0.00    +0.000 A 
ENDBRANCH   8  10
ENDBRANCH   1   4
BRANCH   1  18
ATOM     18  C   UNL     1      43.360   4.689  11.031  0.00  0.00    +0.000 C 
BRANCH  18  19
ATOM     19  O   UNL     1      43.418   3.411  10.378  0.00  0.00    +0.000 OA
BRANCH  19  23
ATOM     20  C   UNL     1      46.426   2.662   7.585  0.00  0.00    +0.000 A 
ATOM     21  C   UNL     1      45.961   3.974   7.723  0.00  0.00    +0.000 A 
ATOM     22  C   UNL     1      44.947   4.264   8.643  0.00  0.00    +0.000 A 
ATOM     23  C   UNL     1      44.395   3.249   9.430  0.00  0.00    +0.000 A 
ATOM     24  C   UNL     1      44.847   1.937   9.267  0.00  0.00    +0.000 A 
ATOM     25  C   UNL     1      45.857   1.640   8.348  0.00  0.00    +0.000 A 
BRANCH  20  27
ATOM     26  N   UNL     1      47.542   3.026   5.453  0.00  0.00    +0.000 N 
ATOM     27  C   UNL     1      47.507   2.321   6.617  0.00  0.00    +0.000 C 
ATOM     28  O   UNL     1      48.344   1.474   6.874  0.00  0.00    +0.000 OA
ATOM     29  H   UNL     1      48.348   2.863   4.859  0.00  0.00    +0.000 HD
ATOM     30  H   UNL     1      47.041   3.896   5.330  0.00  0.00    +0.000 HD
ENDBRANCH  20  27
ENDBRANCH  19  23
ENDBRANCH  18  19
ENDBRANCH   1  18
TORSDOF 6
ENDMDL
MODEL 2
REMARK VINA RESULT:    -9.080      1.162      1.738
REMARK INTER + INTRA:         -13.546
REMARK INTER:                 -12.272
REMARK INTRA:                  -1.274
REMARK UNBOUND:                -1.280
REMARK  Name = 
REMARK  6 active torsions:
REMARK  status: ('A' for Active; 'I' for Inactive)
REMARK    1  A    between atoms: C_2  and  C_4
REMARK    2  A    between atoms: C_7  and  O_8
REMARK    3  A    between atoms: O_8  and  C_9
REMARK    4  A    between atoms: C_9  and  C_10
REMARK    5  A    between atoms: C_10  and  C_13
REMARK    6  A    between atoms: C_17  and  C_18
REMARK                            x       y       z     vdW  Elec       q    Type
REMARK                         _______ _______ _______ _____ _____    ______ ____
ROOT
ATOM      1  C   UNL     1      43.777   4.662  12.336  0.00  0.00    +0.000 C 
ATOM      2  F   UNL     1      42.825   5.431  12.944  0.00  0.00    +0.000 F 
ATOM      3  F   UNL     1      43.693   3.434  12.931  0.00  0.00    +0.000 F 
ENDROOT
BRANCH   1   4
ATOM      4  C   UNL     1      45.167   5.259  12.494  0.00  0.00    +0.000 A 
ATOM      5  C   UNL     1      45.701   6.094  11.505  0.00  0.00    +0.000 A 
ATOM      6  C   UNL     1      46.954   6.681  11.674  0.00  0.00    +0.000 A 
ATOM      7  C   UNL     1      47.672   6.472  12.850  0.00  0.00    +0.000 A 
ATOM      8  C   UNL     1      47.159   5.660  13.876  0.00  0.00    +0.000 A 
ATOM      9  C   UNL     1      45.922   5.024  13.652  0.00  0.00    +0.000 A 
BRANCH   8  10
ATOM     10  C   UNL     1      47.869   5.511  15.161  0.00  0.00    +0.000 A 
ATOM     11  C   UNL     1      48.798   6.477  15.592  0.00  0.00    +0.000 A 
ATOM     12  C   UNL     1      49.469   6.347  16.806  0.00  0.00    +0.000 A 
ATOM     13  C   UNL     1      49.206   5.254  17.619  0.00  0.00    +0.000 A 
ATOM     14  F   UNL     1      49.835   5.168  18.800  0.00  0.00    +0.000 F 
ATOM     15  C   UNL     1      48.298   4.279  17.223  0.00  0.00    +0.000 A 
ATOM     16 CL   UNL     1      47.930   2.947  18.249  0.00  0.00    +0.000 Cl
ATOM     17  C   UNL     1      47.649   4.397  15.994  0.00  0.00    +0.000 A 
ENDBRANCH   8  10
ENDBRANCH   1   4
BRANCH   1  18
ATOM     18  C   UNL     1      43.413   4.512  10.843  0.00  0.00    +0.000 C 
BRANCH  18  19
ATOM     19  O   UNL     1      43.589   3.158  10.397  0.00  0.00    +0.000 OA
BRANCH  19  23
ATOM     20  C   UNL     1      46.377   2.782   7.316  0.00  0.00    +0.000 A 
ATOM     21  C   UNL     1      46.050   1.642   8.057  0.00  0.00    +0.000 A 
ATOM     22  C   UNL     1      45.126   1.729   9.104  0.00  0.00    +0.000 A 
ATOM     23  C   UNL     1      44.522   2.951   9.415  0.00  0.00    +0.000 A 
ATOM     24  C   UNL     1      44.874   4.090   8.685  0.00  0.00    +0.000 A 
ATOM     25  C   UNL     1      45.799   4.011   7.641  0.00  0.00    +0.000 A 
BRANCH  20  27
ATOM     26  N   UNL     1      48.647   2.433   6.510  0.00  0.00    +0.000 N 
ATOM     27  C   UNL     1      47.355   2.722   6.192  0.00  0.00    +0.000 C 
ATOM     28  O   UNL     1      47.005   2.887   5.037  0.00  0.00    +0.000 OA
ATOM     29  H   UNL     1      49.273   2.283   5.727  0.00  0.00    +0.000 HD
ATOM     30  H   UNL     1      48.911   2.035   7.401  0.00  0.00    +0.000 HD
ENDBRANCH  20  27
ENDBRANCH  19  23
ENDBRANCH  18  19
ENDBRANCH   1  18
TORSDOF 6
ENDMDL
MODEL 3
REMARK VINA RESULT:    -8.627      2.546      3.306
REMARK INTER + INTRA:         -12.934
REMARK INTER:                 -11.952
REMARK INTRA:                  -0.982
REMARK UNBOUND:                -1.280
REMARK  Name = 
REMARK  6 active torsions:
REMARK  status: ('A' for Active; 'I' for Inactive)
REMARK    1  A    between atoms: C_2  and  C_4
REMARK    2  A    between atoms: C_7  and  O_8
REMARK    3  A    between atoms: O_8  and  C_9
REMARK    4  A    between atoms: C_9  and  C_10
REMARK    5  A    between atoms: C_10  and  C_13
REMARK    6  A    between atoms: C_17  and  C_18
REMARK                            x       y       z     vdW  Elec       q    Type
REMARK                         _______ _______ _______ _____ _____    ______ ____
ROOT
ATOM      1  C   UNL     1      44.162   3.664  12.465  0.00  0.00    +0.000 C 
ATOM      2  F   UNL     1      43.437   3.625  13.623  0.00  0.00    +0.000 F 
ATOM      3  F   UNL     1      45.215   2.816  12.662  0.00  0.00    +0.000 F 
ENDROOT
BRANCH   1   4
ATOM      4  C   UNL     1      44.639   5.073  12.149  0.00  0.00    +0.000 A 
ATOM      5  C   UNL     1      43.735   6.054  11.722  0.00  0.00    +0.000 A 
ATOM      6  C   UNL     1      44.165   7.357  11.481  0.00  0.00    +0.000 A 
ATOM      7  C   UNL     1      45.496   7.707  11.699  0.00  0.00    +0.000 A 
ATOM      8  C   UNL     1      46.429   6.758  12.151  0.00  0.00    +0.000 A 
ATOM      9  C   UNL     1      45.984   5.432  12.322  0.00  0.00    +0.000 A 
BRANCH   8  10
ATOM     10  C   UNL     1      47.817   7.142  12.474  0.00  0.00    +0.000 A 
ATOM     11  C   UNL     1      48.643   7.749  11.510  0.00  0.00    +0.000 A 
ATOM     12  C   UNL     1      49.952   8.121  11.808  0.00  0.00    +0.000 A 
ATOM     13  C   UNL     1      50.450   7.908  13.085  0.00  0.00    +0.000 A 
ATOM     14  F   UNL     1      51.700   8.307  13.361  0.00  0.00    +0.000 F 
ATOM     15  C   UNL     1      49.662   7.307  14.061  0.00  0.00    +0.000 A 
ATOM     16 CL   UNL     1      50.256   7.086  15.662  0.00  0.00    +0.000 Cl
ATOM     17  C   UNL     1      48.362   6.911  13.752  0.00  0.00    +0.000 A 
ENDBRANCH   8  10
ENDBRANCH   1   4
BRANCH   1  18
ATOM     18  C   UNL     1      43.291   3.111  11.317  0.00  0.00    +0.000 C 
BRANCH  18  19
ATOM     19  O   UNL     1      43.569   3.788  10.080  0.00  0.00    +0.000 OA
BRANCH  19  23
ATOM     20  C   UNL     1      46.649   2.441   7.608  0.00  0.00    +0.000 A 
ATOM     21  C   UNL     1      45.922   1.495   8.338  0.00  0.00    +0.000 A 
ATOM     22  C   UNL     1      44.887   1.908   9.184  0.00  0.00    +0.000 A 
ATOM     23  C   UNL     1      44.571   3.264   9.305  0.00  0.00    +0.000 A 
ATOM     24  C   UNL     1      45.319   4.205   8.593  0.00  0.00    +0.000 A 
ATOM     25  C   UNL     1      46.356   3.800   7.748  0.00  0.00    +0.000 A 
BRANCH  20  27
ATOM     26  N   UNL     1      48.727   2.956   6.451  0.00  0.00    +0.000 N 
ATOM     27  C   UNL     1      47.755   2.035   6.696  0.00  0.00    +0.000 C 
ATOM     28  O   UNL     1      47.806   0.914   6.221  0.00  0.00    +0.000 OA
ATOM     29  H   UNL     1      49.528   2.627   5.924  0.00  0.00    +0.000 HD
ATOM     30  H   UNL     1      48.854   3.778   7.026  0.00  0.00    +0.000 HD
ENDBRANCH  20  27
ENDBRANCH  19  23
ENDBRANCH  18  19
ENDBRANCH   1  18
TORSDOF 6
ENDMDL
MODEL 4
REMARK VINA RESULT:    -8.419      2.955      4.305
REMARK INTER + INTRA:         -12.652
REMARK INTER:                 -11.388
REMARK INTRA:                  -1.264
REMARK UNBOUND:                -1.280
REMARK  Name = 
REMARK  6 active torsions:
REMARK  status: ('A' for Active; 'I' for Inactive)
REMARK    1  A    between atoms: C_2  and  C_4
REMARK    2  A    between atoms: C_7  and  O_8
REMARK    3  A    between atoms: O_8  and  C_9
REMARK    4  A    between atoms: C_9  and  C_10
REMARK    5  A    between atoms: C_10  and  C_13
REMARK    6  A    between atoms: C_17  and  C_18
REMARK                            x       y       z     vdW  Elec       q    Type
REMARK                         _______ _______ _______ _____ _____    ______ ____
ROOT
ATOM      1  C   UNL     1      43.315   5.410  12.128  0.00  0.00    +0.000 C 
ATOM      2  F   UNL     1      42.700   6.630  12.180  0.00  0.00    +0.000 F 
ATOM      3  F   UNL     1      42.577   4.591  12.935  0.00  0.00    +0.000 F 
ENDROOT
BRANCH   1   4
ATOM      4  C   UNL     1      44.761   5.490  12.594  0.00  0.00    +0.000 A 
ATOM      5  C   UNL     1      45.352   4.415  13.270  0.00  0.00    +0.000 A 
ATOM      6  C   UNL     1      46.690   4.469  13.653  0.00  0.00    +0.000 A 
ATOM      7  C   UNL     1      47.466   5.581  13.331  0.00  0.00    +0.000 A 
ATOM      8  C   UNL     1      46.916   6.669  12.631  0.00  0.00    +0.000 A 
ATOM      9  C   UNL     1      45.544   6.619  12.316  0.00  0.00    +0.000 A 
BRANCH   8  10
ATOM     10  C   UNL     1      47.754   7.807  12.204  0.00  0.00    +0.000 A 
ATOM     11  C   UNL     1      47.232   9.114  12.163  0.00  0.00    +0.000 A 
ATOM     12  C   UNL     1      48.017  10.195  11.768  0.00  0.00    +0.000 A 
ATOM     13  C   UNL     1      49.345   9.988  11.424  0.00  0.00    +0.000 A 
ATOM     14  F   UNL     1      50.092  11.047  11.082  0.00  0.00    +0.000 F 
ATOM     15  C   UNL     1      49.891   8.709  11.450  0.00  0.00    +0.000 A 
ATOM     16 CL   UNL     1      51.550   8.451  11.073  0.00  0.00    +0.000 Cl
ATOM     17  C   UNL     1      49.095   7.625  11.818  0.00  0.00    +0.000 A 
ENDBRANCH   8  10
ENDBRANCH   1   4
BRANCH   1  18
ATOM     18  C   UNL     1      43.236   4.878  10.680  0.00  0.00    +0.000 C 
BRANCH  18  19
ATOM     19  O   UNL     1      43.666   3.510  10.605  0.00  0.00    +0.000 OA
BRANCH  19  23
ATOM     20  C   UNL     1      46.365   2.826   7.497  0.00  0.00    +0.000 A 
ATOM     21  C   UNL     1      45.916   1.729   8.239  0.00  0.00    +0.000 A 
ATOM     22  C   UNL     1      45.017   1.918   9.295  0.00  0.00    +0.000 A 
ATOM     23  C   UNL     1      44.560   3.200   9.613  0.00  0.00    +0.000 A 
ATOM     24  C   UNL     1      45.034   4.294   8.883  0.00  0.00    +0.000 A 
ATOM     25  C   UNL     1      45.934   4.112   7.831  0.00  0.00    +0.000 A 
BRANCH  20  27
ATOM     26  N   UNL     1      48.465   1.966   6.617  0.00  0.00    +0.000 N 
ATOM     27  C   UNL     1      47.320   2.659   6.365  0.00  0.00    +0.000 C 
ATOM     28  O   UNL     1      47.068   3.090   5.254  0.00  0.00    +0.000 OA
ATOM     29  H   UNL     1      49.046   1.762   5.812  0.00  0.00    +0.000 HD
ATOM     30  H   UNL     1      48.575   1.378   7.432  0.00  0.00    +0.000 HD
ENDBRANCH  20  27
ENDBRANCH  19  23
ENDBRANCH  18  19
ENDBRANCH   1  18
TORSDOF 6
ENDMDL
MODEL 5
REMARK VINA RESULT:    -7.707      4.695      8.527
REMARK INTER + INTRA:         -11.690
REMARK INTER:                 -10.878
REMARK INTRA:                  -0.813
REMARK UNBOUND:                -1.280
REMARK  Name = 
REMARK  6 active torsions:
REMARK  status: ('A' for Active; 'I' for Inactive)
REMARK    1  A    between atoms: C_2  and  C_4
REMARK    2  A    between atoms: C_7  and  O_8
REMARK    3  A    between atoms: O_8  and  C_9
REMARK    4  A    between atoms: C_9  and  C_10
REMARK    5  A    between atoms: C_10  and  C_13
REMARK    6  A    between atoms: C_17  and  C_18
REMARK                            x       y       z     vdW  Elec       q    Type
REMARK                         _______ _______ _______ _____ _____    ______ ____
ROOT
ATOM      1  C   UNL     1      45.292   6.973  12.253  0.00  0.00    +0.000 C 
ATOM      2  F   UNL     1      44.491   7.439  13.257  0.00  0.00    +0.000 F 
ATOM      3  F   UNL     1      45.285   7.946  11.294  0.00  0.00    +0.000 F 
ENDROOT
BRANCH   1   4
ATOM      4  C   UNL     1      44.788   5.649  11.699  0.00  0.00    +0.000 A 
ATOM      5  C   UNL     1      43.607   5.075  12.187  0.00  0.00    +0.000 A 
ATOM      6  C   UNL     1      43.120   3.888  11.645  0.00  0.00    +0.000 A 
ATOM      7  C   UNL     1      43.785   3.278  10.583  0.00  0.00    +0.000 A 
ATOM      8  C   UNL     1      44.959   3.836  10.049  0.00  0.00    +0.000 A 
ATOM      9  C   UNL     1      45.468   4.999  10.659  0.00  0.00    +0.000 A 
BRANCH   8  10
ATOM     10  C   UNL     1      45.616   3.249   8.864  0.00  0.00    +0.000 A 
ATOM     11  C   UNL     1      46.069   4.064   7.810  0.00  0.00    +0.000 A 
ATOM     12  C   UNL     1      46.696   3.520   6.691  0.00  0.00    +0.000 A 
ATOM     13  C   UNL     1      46.896   2.149   6.618  0.00  0.00    +0.000 A 
ATOM     14  F   UNL     1      47.534   1.650   5.549  0.00  0.00    +0.000 F 
ATOM     15  C   UNL     1      46.457   1.314   7.640  0.00  0.00    +0.000 A 
ATOM     16 CL   UNL     1      46.747  -0.382   7.580  0.00  0.00    +0.000 Cl
ATOM     17  C   UNL     1      45.805   1.859   8.745  0.00  0.00    +0.000 A 
ENDBRANCH   8  10
ENDBRANCH   1   4
BRANCH   1  18
ATOM     18  C   UNL     1      46.730   6.826  12.796  0.00  0.00    +0.000 C 
BRANCH  18  19
ATOM     19  O   UNL     1      46.987   5.482  13.233  0.00  0.00    +0.000 OA
BRANCH  19  23
ATOM     20  C   UNL     1      48.253   4.816  17.153  0.00  0.00    +0.000 A 
ATOM     21  C   UNL     1      48.695   5.970  16.501  0.00  0.00    +0.000 A 
ATOM     22  C   UNL     1      48.299   6.226  15.183  0.00  0.00    +0.000 A 
ATOM     23  C   UNL     1      47.459   5.332  14.511  0.00  0.00    +0.000 A 
ATOM     24  C   UNL     1      47.044   4.167  15.162  0.00  0.00    +0.000 A 
ATOM     25  C   UNL     1      47.438   3.905  16.476  0.00  0.00    +0.000 A 
BRANCH  20  27
ATOM     26  N   UNL     1      48.307   3.297  19.054  0.00  0.00    +0.000 N 
ATOM     27  C   UNL     1      48.654   4.516  18.557  0.00  0.00    +0.000 C 
ATOM     28  O   UNL     1      49.297   5.313  19.217  0.00  0.00    +0.000 OA
ATOM     29  H   UNL     1      48.686   3.065  19.965  0.00  0.00    +0.000 HD
ATOM     30  H   UNL     1      48.019   2.530  18.461  0.00  0.00    +0.000 HD
ENDBRANCH  20  27
ENDBRANCH  19  23
ENDBRANCH  18  19
ENDBRANCH   1  18
TORSDOF 6
ENDMDL
MODEL 6
REMARK VINA RESULT:    -7.654      4.884      8.294
REMARK INTER + INTRA:         -11.619
REMARK INTER:                 -10.303
REMARK INTRA:                  -1.316
REMARK UNBOUND:                -1.280
REMARK  Name = 
REMARK  6 active torsions:
REMARK  status: ('A' for Active; 'I' for Inactive)
REMARK    1  A    between atoms: C_2  and  C_4
REMARK    2  A    between atoms: C_7  and  O_8
REMARK    3  A    between atoms: O_8  and  C_9
REMARK    4  A    between atoms: C_9  and  C_10
REMARK    5  A    between atoms: C_10  and  C_13
REMARK    6  A    between atoms: C_17  and  C_18
REMARK                            x       y       z     vdW  Elec       q    Type
REMARK                         _______ _______ _______ _____ _____    ______ ____
ROOT
ATOM      1  C   UNL     1      48.660   8.466  12.311  0.00  0.00    +0.000 C 
ATOM      2  F   UNL     1      48.743   9.638  13.008  0.00  0.00    +0.000 F 
ATOM      3  F   UNL     1      49.341   8.681  11.146  0.00  0.00    +0.000 F 
ENDROOT
BRANCH   1   4
ATOM      4  C   UNL     1      47.215   8.074  12.041  0.00  0.00    +0.000 A 
ATOM      5  C   UNL     1      46.180   9.004  12.205  0.00  0.00    +0.000 A 
ATOM      6  C   UNL     1      44.863   8.659  11.910  0.00  0.00    +0.000 A 
ATOM      7  C   UNL     1      44.567   7.393  11.409  0.00  0.00    +0.000 A 
ATOM      8  C   UNL     1      45.580   6.440  11.205  0.00  0.00    +0.000 A 
ATOM      9  C   UNL     1      46.893   6.791  11.577  0.00  0.00    +0.000 A 
BRANCH   8  10
ATOM     10  C   UNL     1      45.288   5.132  10.587  0.00  0.00    +0.000 A 
ATOM     11  C   UNL     1      44.622   4.123  11.308  0.00  0.00    +0.000 A 
ATOM     12  C   UNL     1      44.336   2.888  10.731  0.00  0.00    +0.000 A 
ATOM     13  C   UNL     1      44.697   2.648   9.413  0.00  0.00    +0.000 A 
ATOM     14  F   UNL     1      44.379   1.466   8.866  0.00  0.00    +0.000 F 
ATOM     15  C   UNL     1      45.359   3.622   8.673  0.00  0.00    +0.000 A 
ATOM     16 CL   UNL     1      45.765   3.350   7.022  0.00  0.00    +0.000 Cl
ATOM     17  C   UNL     1      45.669   4.847   9.262  0.00  0.00    +0.000 A 
ENDBRANCH   8  10
ENDBRANCH   1   4
BRANCH   1  18
ATOM     18  C   UNL     1      49.385   7.362  13.110  0.00  0.00    +0.000 C 
BRANCH  18  19
ATOM     19  O   UNL     1      49.410   7.666  14.514  0.00  0.00    +0.000 OA
BRANCH  19  23
ATOM     20  C   UNL     1      48.160   4.535  16.972  0.00  0.00    +0.000 A 
ATOM     21  C   UNL     1      49.269   5.288  17.369  0.00  0.00    +0.000 A 
ATOM     22  C   UNL     1      49.724   6.341  16.568  0.00  0.00    +0.000 A 
ATOM     23  C   UNL     1      49.074   6.650  15.369  0.00  0.00    +0.000 A 
ATOM     24  C   UNL     1      47.983   5.875  14.967  0.00  0.00    +0.000 A 
ATOM     25  C   UNL     1      47.525   4.820  15.760  0.00  0.00    +0.000 A 
BRANCH  20  27
ATOM     26  N   UNL     1      48.326   3.128  18.951  0.00  0.00    +0.000 N 
ATOM     27  C   UNL     1      47.648   3.409  17.804  0.00  0.00    +0.000 C 
ATOM     28  O   UNL     1      46.645   2.793  17.490  0.00  0.00    +0.000 OA
ATOM     29  H   UNL     1      47.900   2.439  19.561  0.00  0.00    +0.000 HD
ATOM     30  H   UNL     1      48.982   3.775  19.366  0.00  0.00    +0.000 HD
ENDBRANCH  20  27
ENDBRANCH  19  23
ENDBRANCH  18  19
ENDBRANCH   1  18
TORSDOF 6
ENDMDL
MODEL 7
REMARK VINA RESULT:    -7.317      5.058      8.022
REMARK INTER + INTRA:         -11.163
REMARK INTER:                 -10.183
REMARK INTRA:                  -0.980
REMARK UNBOUND:                -1.280
REMARK  Name = 
REMARK  6 active torsions:
REMARK  status: ('A' for Active; 'I' for Inactive)
REMARK    1  A    between atoms: C_2  and  C_4
REMARK    2  A    between atoms: C_7  and  O_8
REMARK    3  A    between atoms: O_8  and  C_9
REMARK    4  A    between atoms: C_9  and  C_10
REMARK    5  A    between atoms: C_10  and  C_13
REMARK    6  A    between atoms: C_17  and  C_18
REMARK                            x       y       z     vdW  Elec       q    Type
REMARK                         _______ _______ _______ _____ _____    ______ ____
ROOT
ATOM      1  C   UNL     1      45.222   7.367  11.980  0.00  0.00    +0.000 C 
ATOM      2  F   UNL     1      44.650   7.699  13.175  0.00  0.00    +0.000 F 
ATOM      3  F   UNL     1      44.884   8.371  11.117  0.00  0.00    +0.000 F 
ENDROOT
BRANCH   1   4
ATOM      4  C   UNL     1      44.731   6.018  11.477  0.00  0.00    +0.000 A 
ATOM      5  C   UNL     1      43.530   5.474  11.951  0.00  0.00    +0.000 A 
ATOM      6  C   UNL     1      43.056   4.262  11.454  0.00  0.00    +0.000 A 
ATOM      7  C   UNL     1      43.754   3.597  10.448  0.00  0.00    +0.000 A 
ATOM      8  C   UNL     1      44.949   4.123   9.928  0.00  0.00    +0.000 A 
ATOM      9  C   UNL     1      45.443   5.314  10.496  0.00  0.00    +0.000 A 
BRANCH   8  10
ATOM     10  C   UNL     1      45.644   3.474   8.798  0.00  0.00    +0.000 A 
ATOM     11  C   UNL     1      46.193   4.237   7.752  0.00  0.00    +0.000 A 
ATOM     12  C   UNL     1      46.856   3.634   6.685  0.00  0.00    +0.000 A 
ATOM     13  C   UNL     1      46.995   2.254   6.658  0.00  0.00    +0.000 A 
ATOM     14  F   UNL     1      47.669   1.697   5.641  0.00  0.00    +0.000 F 
ATOM     15  C   UNL     1      46.462   1.469   7.674  0.00  0.00    +0.000 A 
ATOM     16 CL   UNL     1      46.675  -0.239   7.674  0.00  0.00    +0.000 Cl
ATOM     17  C   UNL     1      45.774   2.074   8.726  0.00  0.00    +0.000 A 
ENDBRANCH   8  10
ENDBRANCH   1   4
BRANCH   1  18
ATOM     18  C   UNL     1      46.757   7.359  12.152  0.00  0.00    +0.000 C 
BRANCH  18  19
ATOM     19  O   UNL     1      47.305   8.677  11.986  0.00  0.00    +0.000 OA
BRANCH  19  23
ATOM     20  C   UNL     1      51.397   8.646  11.170  0.00  0.00    +0.000 A 
ATOM     21  C   UNL     1      50.728   9.873  11.156  0.00  0.00    +0.000 A 
ATOM     22  C   UNL     1      49.353   9.924  11.417  0.00  0.00    +0.000 A 
ATOM     23  C   UNL     1      48.642   8.753  11.694  0.00  0.00    +0.000 A 
ATOM     24  C   UNL     1      49.315   7.528  11.679  0.00  0.00    +0.000 A 
ATOM     25  C   UNL     1      50.685   7.470  11.416  0.00  0.00    +0.000 A 
BRANCH  20  27
ATOM     26  N   UNL     1      53.415   7.314  10.887  0.00  0.00    +0.000 N 
ATOM     27  C   UNL     1      52.860   8.557  10.900  0.00  0.00    +0.000 C 
ATOM     28  O   UNL     1      53.523   9.552  10.662  0.00  0.00    +0.000 OA
ATOM     29  H   UNL     1      54.382   7.262  10.588  0.00  0.00    +0.000 HD
ATOM     30  H   UNL     1      52.858   6.472  10.813  0.00  0.00    +0.000 HD
ENDBRANCH  20  27
ENDBRANCH  19  23
ENDBRANCH  18  19
ENDBRANCH   1  18
TORSDOF 6
ENDMDL
MODEL 8
REMARK VINA RESULT:    -7.226      4.769      8.268
REMARK INTER + INTRA:         -11.041
REMARK INTER:                  -9.737
REMARK INTRA:                  -1.304
REMARK UNBOUND:                -1.280
REMARK  Name = 
REMARK  6 active torsions:
REMARK  status: ('A' for Active; 'I' for Inactive)
REMARK    1  A    between atoms: C_2  and  C_4
REMARK    2  A    between atoms: C_7  and  O_8
REMARK    3  A    between atoms: O_8  and  C_9
REMARK    4  A    between atoms: C_9  and  C_10
REMARK    5  A    between atoms: C_10  and  C_13
REMARK    6  A    between atoms: C_17  and  C_18
REMARK                            x       y       z     vdW  Elec       q    Type
REMARK                         _______ _______ _______ _____ _____    ______ ____
ROOT
ATOM      1  C   UNL     1      48.955   8.622  12.535  0.00  0.00    +0.000 C 
ATOM      2  F   UNL     1      49.400   9.785  11.972  0.00  0.00    +0.000 F 
ATOM      3  F   UNL     1      49.738   7.634  12.006  0.00  0.00    +0.000 F 
ENDROOT
BRANCH   1   4
ATOM      4  C   UNL     1      47.484   8.380  12.235  0.00  0.00    +0.000 A 
ATOM      5  C   UNL     1      46.547   9.412  12.376  0.00  0.00    +0.000 A 
ATOM      6  C   UNL     1      45.208   9.203  12.054  0.00  0.00    +0.000 A 
ATOM      7  C   UNL     1      44.794   7.973  11.548  0.00  0.00    +0.000 A 
ATOM      8  C   UNL     1      45.707   6.920  11.368  0.00  0.00    +0.000 A 
ATOM      9  C   UNL     1      47.041   7.135  11.766  0.00  0.00    +0.000 A 
BRANCH   8  10
ATOM     10  C   UNL     1      45.295   5.646  10.746  0.00  0.00    +0.000 A 
ATOM     11  C   UNL     1      45.702   5.313   9.441  0.00  0.00    +0.000 A 
ATOM     12  C   UNL     1      45.323   4.111   8.848  0.00  0.00    +0.000 A 
ATOM     13  C   UNL     1      44.543   3.212   9.560  0.00  0.00    +0.000 A 
ATOM     14  F   UNL     1      44.221   2.045   8.985  0.00  0.00    +0.000 F 
ATOM     15  C   UNL     1      44.120   3.511  10.851  0.00  0.00    +0.000 A 
ATOM     16 CL   UNL     1      43.194   2.379  11.760  0.00  0.00    +0.000 Cl
ATOM     17  C   UNL     1      44.477   4.727  11.431  0.00  0.00    +0.000 A 
ENDBRANCH   8  10
ENDBRANCH   1   4
BRANCH   1  18
ATOM     18  C   UNL     1      49.200   8.684  14.058  0.00  0.00    +0.000 C 
BRANCH  18  19
ATOM     19  O   UNL     1      49.972   7.559  14.507  0.00  0.00    +0.000 OA
BRANCH  19  23
ATOM     20  C   UNL     1      48.168   4.665  16.912  0.00  0.00    +0.000 A 
ATOM     21  C   UNL     1      47.548   5.006  15.706  0.00  0.00    +0.000 A 
ATOM     22  C   UNL     1      48.117   5.978  14.876  0.00  0.00    +0.000 A 
ATOM     23  C   UNL     1      49.308   6.612  15.243  0.00  0.00    +0.000 A 
ATOM     24  C   UNL     1      49.907   6.284  16.462  0.00  0.00    +0.000 A 
ATOM     25  C   UNL     1      49.342   5.317  17.297  0.00  0.00    +0.000 A 
BRANCH  20  27
ATOM     26  N   UNL     1      48.122   3.534  19.067  0.00  0.00    +0.000 N 
ATOM     27  C   UNL     1      47.589   3.633  17.817  0.00  0.00    +0.000 C 
ATOM     28  O   UNL     1      46.655   2.934  17.467  0.00  0.00    +0.000 OA
ATOM     29  H   UNL     1      47.642   2.910  19.706  0.00  0.00    +0.000 HD
ATOM     30  H   UNL     1      48.699   4.260  19.469  0.00  0.00    +0.000 HD
ENDBRANCH  20  27
ENDBRANCH  19  23
ENDBRANCH  18  19
ENDBRANCH   1  18
TORSDOF 6
ENDMDL
MODEL 9
REMARK VINA RESULT:    -6.531      4.766      8.069
REMARK INTER + INTRA:         -10.102
REMARK INTER:                  -7.947
REMARK INTRA:                  -2.155
REMARK UNBOUND:                -1.280
REMARK  Name = 
REMARK  6 active torsions:
REMARK  status: ('A' for Active; 'I' for Inactive)
REMARK    1  A    between atoms: C_2  and  C_4
REMARK    2  A    between atoms: C_7  and  O_8
REMARK    3  A    between atoms: O_8  and  C_9
REMARK    4  A    between atoms: C_9  and  C_10
REMARK    5  A    between atoms: C_10  and  C_13
REMARK    6  A    between atoms: C_17  and  C_18
REMARK                            x       y       z     vdW  Elec       q    Type
REMARK                         _______ _______ _______ _____ _____    ______ ____
ROOT
ATOM      1  C   UNL     1      49.014   9.812  15.632  0.00  0.00    +0.000 C 
ATOM      2  F   UNL     1      47.870   9.726  16.374  0.00  0.00    +0.000 F 
ATOM      3  F   UNL     1      49.277  11.147  15.514  0.00  0.00    +0.000 F 
ENDROOT
BRANCH   1   4
ATOM      4  C   UNL     1      48.849   9.158  14.268  0.00  0.00    +0.000 A 
ATOM      5  C   UNL     1      49.625   9.573  13.179  0.00  0.00    +0.000 A 
ATOM      6  C   UNL     1      49.509   8.941  11.943  0.00  0.00    +0.000 A 
ATOM      7  C   UNL     1      48.643   7.859  11.790  0.00  0.00    +0.000 A 
ATOM      8  C   UNL     1      47.865   7.397  12.865  0.00  0.00    +0.000 A 
ATOM      9  C   UNL     1      47.951   8.097  14.084  0.00  0.00    +0.000 A 
BRANCH   8  10
ATOM     10  C   UNL     1      47.017   6.195  12.735  0.00  0.00    +0.000 A 
ATOM     11  C   UNL     1      47.181   5.098  13.601  0.00  0.00    +0.000 A 
ATOM     12  C   UNL     1      46.381   3.962  13.491  0.00  0.00    +0.000 A 
ATOM     13  C   UNL     1      45.390   3.914  12.521  0.00  0.00    +0.000 A 
ATOM     14  F   UNL     1      44.608   2.827  12.456  0.00  0.00    +0.000 F 
ATOM     15  C   UNL     1      45.204   4.980  11.647  0.00  0.00    +0.000 A 
ATOM     16 CL   UNL     1      43.943   4.949  10.475  0.00  0.00    +0.000 Cl
ATOM     17  C   UNL     1      46.024   6.103  11.742  0.00  0.00    +0.000 A 
ENDBRANCH   8  10
ENDBRANCH   1   4
BRANCH   1  18
ATOM     18  C   UNL     1      50.165   9.149  16.419  0.00  0.00    +0.000 C 
BRANCH  18  19
ATOM     19  O   UNL     1      49.687   8.543  17.630  0.00  0.00    +0.000 OA
BRANCH  19  23
ATOM     20  C   UNL     1      48.417   4.601  17.118  0.00  0.00    +0.000 A 
ATOM     21  C   UNL     1      47.685   5.428  17.975  0.00  0.00    +0.000 A 
ATOM     22  C   UNL     1      48.083   6.754  18.180  0.00  0.00    +0.000 A 
ATOM     23  C   UNL     1      49.211   7.261  17.529  0.00  0.00    +0.000 A 
ATOM     24  C   UNL     1      49.953   6.420  16.695  0.00  0.00    +0.000 A 
ATOM     25  C   UNL     1      49.563   5.095  16.489  0.00  0.00    +0.000 A 
BRANCH  20  27
ATOM     26  N   UNL     1      47.014   2.684  17.647  0.00  0.00    +0.000 N 
ATOM     27  C   UNL     1      48.018   3.186  16.876  0.00  0.00    +0.000 C 
ATOM     28  O   UNL     1      48.541   2.520  16.001  0.00  0.00    +0.000 OA
ATOM     29  H   UNL     1      46.677   1.763  17.393  0.00  0.00    +0.000 HD
ATOM     30  H   UNL     1      46.392   3.276  18.181  0.00  0.00    +0.000 HD
ENDBRANCH  20  27
ENDBRANCH  19  23
ENDBRANCH  18  19
ENDBRANCH   1  18
TORSDOF 6
ENDMDL
