MODEL 1
REMARK VINA RESULT:    -8.396      0.000      0.000
REMARK INTER + INTRA:         -10.430
REMARK INTER:                  -9.868
REMARK INTRA:                  -0.562
REMARK UNBOUND:                -0.562
REMARK  Name = 
REMARK  3 active torsions:
REMARK  status: ('A' for Active; 'I' for Inactive)
REMARK    1  A    between atoms: C_2  and  C_4
REMARK    2  A    between atoms: N_8  and  C_9
REMARK    3  A    between atoms: C_9  and  C_10
REMARK                            x       y       z     vdW  Elec       q    Type
REMARK                         _______ _______ _______ _____ _____    ______ ____
ROOT
ATOM      1  C   UNL     1      46.616   2.692   7.518  0.00  0.00    +0.000 A 
ATOM      2  C   UNL     1      46.292   4.036   7.684  0.00  0.00    +0.000 A 
ATOM      3  C   UNL     1      45.357   4.398   8.658  0.00  0.00    +0.000 A 
ATOM      4  C   UNL     1      44.746   3.410   9.428  0.00  0.00    +0.000 A 
ATOM      5  N   UNL     1      43.744   3.685  10.360  0.00  0.00    +0.000 N 
ATOM      6  N   UNL     1      45.033   2.102   9.253  0.00  0.00    +0.000 NA
ATOM      7  C   UNL     1      45.954   1.770   8.313  0.00  0.00    +0.000 A 
ATOM      8  H   UNL     1      43.525   2.781  10.779  0.00  0.00    +0.000 HD
ENDROOT
BRANCH   1  10
ATOM      9  N   UNL     1      47.745   2.961   5.381  0.00  0.00    +0.000 N 
ATOM     10  C   UNL     1      47.591   2.213   6.514  0.00  0.00    +0.000 C 
ATOM     11  O   UNL     1      48.258   1.204   6.704  0.00  0.00    +0.000 OA
ATOM     12  H   UNL     1      48.484   2.676   4.753  0.00  0.00    +0.000 HD
ATOM     13  H   UNL     1      47.405   3.909   5.300  0.00  0.00    +0.000 HD
ENDBRANCH   1  10
BRANCH   5  14
ATOM     14  C   UNL     1      43.797   4.818  11.307  0.00  0.00    +0.000 C 
ATOM     15  C   UNL     1      42.451   5.178  11.927  0.00  0.00    +0.000 C 
ATOM     16  C   UNL     1      43.133   6.153  11.029  0.00  0.00    +0.000 C 
BRANCH  14  17
ATOM     17  C   UNL     1      45.027   4.816  12.206  0.00  0.00    +0.000 A 
ATOM     18  C   UNL     1      45.796   5.966  12.439  0.00  0.00    +0.000 A 
ATOM     19  C   UNL     1      46.909   5.924  13.278  0.00  0.00    +0.000 A 
ATOM     20  C   UNL     1      47.234   4.719  13.875  0.00  0.00    +0.000 A 
ATOM     21  N   UNL     1      46.536   3.582  13.689  0.00  0.00    +0.000 NA
ATOM     22  C   UNL     1      45.458   3.663  12.870  0.00  0.00    +0.000 A 
ENDBRANCH  14  17
ENDBRANCH   5  14
TORSDOF 3
ENDMDL
MODEL 2
REMARK VINA RESULT:    -6.237      3.309      6.133
REMARK INTER + INTRA:          -7.893
REMARK INTER:                  -7.604
REMARK INTRA:                  -0.289
REMARK UNBOUND:                -0.562
REMARK  Name = 
REMARK  3 active torsions:
REMARK  status: ('A' for Active; 'I' for Inactive)
REMARK    1  A    between atoms: C_2  and  C_4
REMARK    2  A    between atoms: N_8  and  C_9
REMARK    3  A    between atoms: C_9  and  C_10
REMARK                            x       y       z     vdW  Elec       q    Type
REMARK                         _______ _______ _______ _____ _____    ______ ____
ROOT
ATOM      1  C   UNL     1      48.352   6.858  13.515  0.00  0.00    +0.000 A 
ATOM      2  C   UNL     1      47.587   5.791  13.980  0.00  0.00    +0.000 A 
ATOM      3  C   UNL     1      46.445   5.410  13.271  0.00  0.00    +0.000 A 
ATOM      4  C   UNL     1      46.077   6.114  12.126  0.00  0.00    +0.000 A 
ATOM      5  N   UNL     1      44.907   5.846  11.413  0.00  0.00    +0.000 N 
ATOM      6  N   UNL     1      46.797   7.168  11.684  0.00  0.00    +0.000 NA
ATOM      7  C   UNL     1      47.912   7.515  12.378  0.00  0.00    +0.000 A 
ATOM      8  H   UNL     1      44.932   6.492  10.623  0.00  0.00    +0.000 HD
ENDROOT
BRANCH   1  10
ATOM      9  N   UNL     1      50.641   7.673  13.413  0.00  0.00    +0.000 N 
ATOM     10  C   UNL     1      49.575   7.335  14.198  0.00  0.00    +0.000 C 
ATOM     11  O   UNL     1      49.619   7.455  15.415  0.00  0.00    +0.000 OA
ATOM     12  H   UNL     1      51.431   8.091  13.887  0.00  0.00    +0.000 HD
ATOM     13  H   UNL     1      50.563   7.822  12.417  0.00  0.00    +0.000 HD
ENDBRANCH   1  10
BRANCH   5  14
ATOM     14  C   UNL     1      44.440   4.481  11.092  0.00  0.00    +0.000 C 
ATOM     15  C   UNL     1      42.952   4.257  11.336  0.00  0.00    +0.000 C 
ATOM     16  C   UNL     1      43.952   3.510  12.150  0.00  0.00    +0.000 C 
BRANCH  14  17
ATOM     17  C   UNL     1      45.060   3.895   9.830  0.00  0.00    +0.000 A 
ATOM     18  C   UNL     1      45.120   2.516   9.587  0.00  0.00    +0.000 A 
ATOM     19  C   UNL     1      45.687   2.020   8.412  0.00  0.00    +0.000 A 
ATOM     20  C   UNL     1      46.187   2.926   7.494  0.00  0.00    +0.000 A 
ATOM     21  N   UNL     1      46.159   4.260   7.671  0.00  0.00    +0.000 NA
ATOM     22  C   UNL     1      45.596   4.704   8.823  0.00  0.00    +0.000 A 
ENDBRANCH  14  17
ENDBRANCH   5  14
TORSDOF 3
ENDMDL
MODEL 3
REMARK VINA RESULT:    -6.071      3.047      6.288
REMARK INTER + INTRA:          -7.698
REMARK INTER:                  -8.129
REMARK INTRA:                   0.432
REMARK UNBOUND:                -0.562
REMARK  Name = 
REMARK  3 active torsions:
REMARK  status: ('A' for Active; 'I' for Inactive)
REMARK    1  A    between atoms: C_2  and  C_4
REMARK    2  A    between atoms: N_8  and  C_9
REMARK    3  A    between atoms: C_9  and  C_10
REMARK                            x       y       z     vdW  Elec       q    Type
REMARK                         _______ _______ _______ _____ _____    ______ ____
ROOT
ATOM      1  C   UNL     1      47.894   5.944  14.528  0.00  0.00    +0.000 A 
ATOM      2  C   UNL     1      47.625   6.118  13.173  0.00  0.00    +0.000 A 
ATOM      3  C   UNL     1      46.832   5.179  12.507  0.00  0.00    +0.000 A 
ATOM      4  C   UNL     1      46.344   4.074  13.202  0.00  0.00    +0.000 A 
ATOM      5  N   UNL     1      45.616   3.052  12.589  0.00  0.00    +0.000 N 
ATOM      6  N   UNL     1      46.623   3.882  14.509  0.00  0.00    +0.000 NA
ATOM      7  C   UNL     1      47.383   4.812  15.143  0.00  0.00    +0.000 A 
ATOM      8  H   UNL     1      45.374   2.415  13.347  0.00  0.00    +0.000 HD
ENDROOT
BRANCH   1  10
ATOM      9  N   UNL     1      48.119   8.016  15.781  0.00  0.00    +0.000 N 
ATOM     10  C   UNL     1      48.723   6.882  15.316  0.00  0.00    +0.000 C 
ATOM     11  O   UNL     1      49.896   6.638  15.569  0.00  0.00    +0.000 OA
ATOM     12  H   UNL     1      48.670   8.595  16.399  0.00  0.00    +0.000 HD
ATOM     13  H   UNL     1      47.116   8.131  15.806  0.00  0.00    +0.000 HD
ENDBRANCH   1  10
BRANCH   5  14
ATOM     14  C   UNL     1      44.539   3.293  11.606  0.00  0.00    +0.000 C 
ATOM     15  C   UNL     1      43.468   4.269  12.079  0.00  0.00    +0.000 C 
ATOM     16  C   UNL     1      43.107   2.845  11.829  0.00  0.00    +0.000 C 
BRANCH  14  17
ATOM     17  C   UNL     1      45.027   3.400  10.167  0.00  0.00    +0.000 A 
ATOM     18  C   UNL     1      45.238   2.277   9.353  0.00  0.00    +0.000 A 
ATOM     19  C   UNL     1      45.675   2.419   8.036  0.00  0.00    +0.000 A 
ATOM     20  C   UNL     1      45.893   3.697   7.553  0.00  0.00    +0.000 A 
ATOM     21  N   UNL     1      45.709   4.812   8.285  0.00  0.00    +0.000 NA
ATOM     22  C   UNL     1      45.280   4.634   9.559  0.00  0.00    +0.000 A 
ENDBRANCH  14  17
ENDBRANCH   5  14
TORSDOF 3
ENDMDL
MODEL 4
REMARK VINA RESULT:    -5.723      1.387      2.523
REMARK INTER + INTRA:          -7.288
REMARK INTER:                  -7.605
REMARK INTRA:                   0.317
REMARK UNBOUND:                -0.562
REMARK  Name = 
REMARK  3 active torsions:
REMARK  status: ('A' for Active; 'I' for Inactive)
REMARK    1  A    between atoms: C_2  and  C_4
REMARK    2  A    between atoms: N_8  and  C_9
REMARK    3  A    between atoms: C_9  and  C_10
REMARK                            x       y       z     vdW  Elec       q    Type
REMARK                         _______ _______ _______ _____ _____    ______ ____
ROOT
ATOM      1  C   UNL     1      46.445   2.781   7.478  0.00  0.00    +0.000 A 
ATOM      2  C   UNL     1      46.375   4.059   8.027  0.00  0.00    +0.000 A 
ATOM      3  C   UNL     1      45.521   4.291   9.109  0.00  0.00    +0.000 A 
ATOM      4  C   UNL     1      44.739   3.250   9.606  0.00  0.00    +0.000 A 
ATOM      5  N   UNL     1      43.804   3.424  10.628  0.00  0.00    +0.000 N 
ATOM      6  N   UNL     1      44.779   2.015   9.061  0.00  0.00    +0.000 NA
ATOM      7  C   UNL     1      45.624   1.804   8.020  0.00  0.00    +0.000 A 
ATOM      8  H   UNL     1      43.422   2.493  10.791  0.00  0.00    +0.000 HD
ENDROOT
BRANCH   1  10
ATOM      9  N   UNL     1      47.239   3.237   5.225  0.00  0.00    +0.000 N 
ATOM     10  C   UNL     1      47.315   2.439   6.332  0.00  0.00    +0.000 C 
ATOM     11  O   UNL     1      48.098   1.499   6.383  0.00  0.00    +0.000 OA
ATOM     12  H   UNL     1      47.909   3.051   4.492  0.00  0.00    +0.000 HD
ATOM     13  H   UNL     1      46.800   4.147   5.235  0.00  0.00    +0.000 HD
ENDBRANCH   1  10
BRANCH   5  14
ATOM     14  C   UNL     1      44.065   4.216  11.848  0.00  0.00    +0.000 C 
ATOM     15  C   UNL     1      45.088   3.592  12.791  0.00  0.00    +0.000 C 
ATOM     16  C   UNL     1      43.673   3.743  13.235  0.00  0.00    +0.000 C 
BRANCH  14  17
ATOM     17  C   UNL     1      44.129   5.719  11.609  0.00  0.00    +0.000 A 
ATOM     18  C   UNL     1      45.307   6.462  11.770  0.00  0.00    +0.000 A 
ATOM     19  C   UNL     1      45.326   7.836  11.530  0.00  0.00    +0.000 A 
ATOM     20  C   UNL     1      44.151   8.446  11.128  0.00  0.00    +0.000 A 
ATOM     21  N   UNL     1      42.989   7.787  10.957  0.00  0.00    +0.000 NA
ATOM     22  C   UNL     1      43.011   6.453  11.196  0.00  0.00    +0.000 A 
ENDBRANCH  14  17
ENDBRANCH   5  14
TORSDOF 3
ENDMDL
MODEL 5
REMARK VINA RESULT:    -5.472      3.302      5.119
REMARK INTER + INTRA:          -6.994
REMARK INTER:                  -6.979
REMARK INTRA:                  -0.015
REMARK UNBOUND:                -0.562
REMARK  Name = 
REMARK  3 active torsions:
REMARK  status: ('A' for Active; 'I' for Inactive)
REMARK    1  A    between atoms: C_2  and  C_4
REMARK    2  A    between atoms: N_8  and  C_9
REMARK    3  A    between atoms: C_9  and  C_10
REMARK                            x       y       z     vdW  Elec       q    Type
REMARK                         _______ _______ _______ _____ _____    ______ ____
ROOT
ATOM      1  C   UNL     1      44.459   4.204  11.519  0.00  0.00    +0.000 A 
ATOM      2  C   UNL     1      45.368   4.958  10.782  0.00  0.00    +0.000 A 
ATOM      3  C   UNL     1      45.827   6.172  11.300  0.00  0.00    +0.000 A 
ATOM      4  C   UNL     1      45.353   6.618  12.533  0.00  0.00    +0.000 A 
ATOM      5  N   UNL     1      45.701   7.857  13.077  0.00  0.00    +0.000 N 
ATOM      6  N   UNL     1      44.450   5.907  13.241  0.00  0.00    +0.000 NA
ATOM      7  C   UNL     1      44.026   4.723  12.728  0.00  0.00    +0.000 A 
ATOM      8  H   UNL     1      45.232   7.882  13.983  0.00  0.00    +0.000 HD
ENDROOT
BRANCH   1  10
ATOM      9  N   UNL     1      44.515   2.330   9.970  0.00  0.00    +0.000 N 
ATOM     10  C   UNL     1      43.916   2.909  11.052  0.00  0.00    +0.000 C 
ATOM     11  O   UNL     1      42.986   2.362  11.632  0.00  0.00    +0.000 OA
ATOM     12  H   UNL     1      44.198   1.402   9.726  0.00  0.00    +0.000 HD
ATOM     13  H   UNL     1      45.420   2.619   9.625  0.00  0.00    +0.000 HD
ENDBRANCH   1  10
BRANCH   5  14
ATOM     14  C   UNL     1      47.077   8.396  13.068  0.00  0.00    +0.000 C 
ATOM     15  C   UNL     1      47.184   9.827  12.554  0.00  0.00    +0.000 C 
ATOM     16  C   UNL     1      47.824   8.720  11.789  0.00  0.00    +0.000 C 
BRANCH  14  17
ATOM     17  C   UNL     1      47.903   8.004  14.286  0.00  0.00    +0.000 A 
ATOM     18  C   UNL     1      48.204   8.904  15.319  0.00  0.00    +0.000 A 
ATOM     19  C   UNL     1      48.955   8.502  16.423  0.00  0.00    +0.000 A 
ATOM     20  C   UNL     1      49.394   7.191  16.474  0.00  0.00    +0.000 A 
ATOM     21  N   UNL     1      49.139   6.281  15.514  0.00  0.00    +0.000 NA
ATOM     22  C   UNL     1      48.402   6.709  14.458  0.00  0.00    +0.000 A 
ENDBRANCH  14  17
ENDBRANCH   5  14
TORSDOF 3
ENDMDL
