MODEL 1
REMARK VINA RESULT:    -7.726      0.000      0.000
REMARK INTER + INTRA:         -11.415
REMARK INTER:                 -10.436
REMARK INTRA:                  -0.979
REMARK UNBOUND:                -0.979
REMARK  Name = 
REMARK  7 active torsions:
REMARK  status: ('A' for Active; 'I' for Inactive)
REMARK    1  A    between atoms: C_1  and  C_2
REMARK    2  A    between atoms: C_5  and  C_6
REMARK    3  A    between atoms: N_8  and  C_9
REMARK    4  A    between atoms: C_9  and  C_10
REMARK    5  A    between atoms: C_13  and  C_14
REMARK    6  A    between atoms: C_14  and  N_15
REMARK    7  A    between atoms: C_16  and  C_18
REMARK                            x       y       z     vdW  Elec       q    Type
REMARK                         _______ _______ _______ _____ _____    ______ ____
ROOT
ATOM      1  C   UNL     1      44.946   6.261  11.358  0.00  0.00    +0.000 A 
ATOM      2  C   UNL     1      44.599   7.567  11.734  0.00  0.00    +0.000 A 
ATOM      3  C   UNL     1      45.430   8.314  12.578  0.00  0.00    +0.000 A 
ATOM      4  C   UNL     1      46.638   7.782  13.047  0.00  0.00    +0.000 A 
ATOM      5  C   UNL     1      46.983   6.476  12.673  0.00  0.00    +0.000 A 
ATOM      6  C   UNL     1      46.154   5.729  11.827  0.00  0.00    +0.000 A 
ENDROOT
BRANCH   1   7
ATOM      7  C   UNL     1      44.045   5.454  10.457  0.00  0.00    +0.000 C 
BRANCH   7  10
ATOM      8  C   UNL     1      44.841   3.329   9.492  0.00  0.00    +0.000 C 
ATOM      9  O   UNL     1      44.231   2.674  10.329  0.00  0.00    +0.000 OA
ATOM     10  N   UNL     1      44.796   4.706   9.480  0.00  0.00    +0.000 N 
ATOM     11  H   UNL     1      45.357   5.210   8.802  0.00  0.00    +0.000 HD
BRANCH   8  16
ATOM     12  C   UNL     1      47.864   2.250   5.293  0.00  0.00    +0.000 C 
ATOM     13  C   UNL     1      47.047   2.185   6.535  0.00  0.00    +0.000 A 
ATOM     14  N   UNL     1      46.816   1.092   7.229  0.00  0.00    +0.000 NA
ATOM     15  C   UNL     1      46.022   1.396   8.324  0.00  0.00    +0.000 A 
ATOM     16  C   UNL     1      45.660   2.724   8.454  0.00  0.00    +0.000 A 
ATOM     17  S   UNL     1      46.331   3.618   7.154  0.00  0.00    +0.000 S 
ENDBRANCH   8  16
ENDBRANCH   7  10
ENDBRANCH   1   7
BRANCH   4  18
ATOM     18  C   UNL     1      47.544   8.580  13.951  0.00  0.00    +0.000 C 
BRANCH  18  19
ATOM     19  N   UNL     1      47.932   7.831  15.121  0.00  0.00    +0.000 N 
ATOM     20  C   UNL     1      49.190   7.292  15.232  0.00  0.00    +0.000 C 
ATOM     21  O   UNL     1      50.050   7.463  14.372  0.00  0.00    +0.000 OA
ATOM     22  H   UNL     1      47.187   7.482  15.714  0.00  0.00    +0.000 HD
BRANCH  20  23
ATOM     23  C   UNL     1      49.479   6.545  16.463  0.00  0.00    +0.000 A 
ATOM     24  C   UNL     1      50.466   6.996  17.331  0.00  0.00    +0.000 A 
ATOM     25  S   UNL     1      50.634   6.043  18.734  0.00  0.00    +0.000 S 
ATOM     26  C   UNL     1      49.431   4.961  18.209  0.00  0.00    +0.000 A 
ATOM     27  N   UNL     1      49.094   3.873  18.953  0.00  0.00    +0.000 NA
ATOM     28  C   UNL     1      48.188   3.122  18.420  0.00  0.00    +0.000 A 
ATOM     29  N   UNL     1      47.587   3.362  17.212  0.00  0.00    +0.000 N 
ATOM     30  C   UNL     1      47.873   4.463  16.441  0.00  0.00    +0.000 A 
ATOM     31  O   UNL     1      47.284   4.672  15.385  0.00  0.00    +0.000 OA
ATOM     32  C   UNL     1      48.895   5.334  16.989  0.00  0.00    +0.000 A 
ATOM     33  H   UNL     1      46.878   2.739  16.854  0.00  0.00    +0.000 HD
ENDBRANCH  20  23
ENDBRANCH  18  19
ENDBRANCH   4  18
TORSDOF 6
ENDMDL
MODEL 2
REMARK VINA RESULT:    -7.277      2.176      2.477
REMARK INTER + INTRA:         -10.809
REMARK INTER:                 -10.036
REMARK INTRA:                  -0.773
REMARK UNBOUND:                -0.979
REMARK  Name = 
REMARK  7 active torsions:
REMARK  status: ('A' for Active; 'I' for Inactive)
REMARK    1  A    between atoms: C_1  and  C_2
REMARK    2  A    between atoms: C_5  and  C_6
REMARK    3  A    between atoms: N_8  and  C_9
REMARK    4  A    between atoms: C_9  and  C_10
REMARK    5  A    between atoms: C_13  and  C_14
REMARK    6  A    between atoms: C_14  and  N_15
REMARK    7  A    between atoms: C_16  and  C_18
REMARK                            x       y       z     vdW  Elec       q    Type
REMARK                         _______ _______ _______ _____ _____    ______ ____
ROOT
ATOM      1  C   UNL     1      45.905   4.947  12.877  0.00  0.00    +0.000 A 
ATOM      2  C   UNL     1      46.325   6.232  12.505  0.00  0.00    +0.000 A 
ATOM      3  C   UNL     1      47.233   6.947  13.296  0.00  0.00    +0.000 A 
ATOM      4  C   UNL     1      47.760   6.384  14.466  0.00  0.00    +0.000 A 
ATOM      5  C   UNL     1      47.338   5.101  14.839  0.00  0.00    +0.000 A 
ATOM      6  C   UNL     1      46.432   4.384  14.047  0.00  0.00    +0.000 A 
ENDROOT
BRANCH   1   7
ATOM      7  C   UNL     1      44.919   4.183  12.029  0.00  0.00    +0.000 C 
BRANCH   7  10
ATOM      8  C   UNL     1      44.870   2.865   9.944  0.00  0.00    +0.000 C 
ATOM      9  O   UNL     1      43.771   2.398  10.218  0.00  0.00    +0.000 OA
ATOM     10  N   UNL     1      45.503   3.759  10.781  0.00  0.00    +0.000 N 
ATOM     11  H   UNL     1      46.434   4.081  10.541  0.00  0.00    +0.000 HD
BRANCH   8  16
ATOM     12  C   UNL     1      47.413   2.789   5.312  0.00  0.00    +0.000 C 
ATOM     13  C   UNL     1      46.771   2.443   6.609  0.00  0.00    +0.000 A 
ATOM     14  N   UNL     1      46.726   1.236   7.130  0.00  0.00    +0.000 NA
ATOM     15  C   UNL     1      46.056   1.278   8.342  0.00  0.00    +0.000 A 
ATOM     16  C   UNL     1      45.599   2.522   8.735  0.00  0.00    +0.000 A 
ATOM     17  S   UNL     1      46.018   3.676   7.537  0.00  0.00    +0.000 S 
ENDBRANCH   8  16
ENDBRANCH   7  10
ENDBRANCH   1   7
BRANCH   4  18
ATOM     18  C   UNL     1      48.744   7.142  15.322  0.00  0.00    +0.000 C 
BRANCH  18  19
ATOM     19  N   UNL     1      49.792   6.287  15.821  0.00  0.00    +0.000 N 
ATOM     20  C   UNL     1      49.869   5.963  17.153  0.00  0.00    +0.000 C 
ATOM     21  O   UNL     1      49.028   6.342  17.965  0.00  0.00    +0.000 OA
ATOM     22  H   UNL     1      50.609   6.165  15.232  0.00  0.00    +0.000 HD
BRANCH  20  23
ATOM     23  C   UNL     1      50.979   5.088  17.555  0.00  0.00    +0.000 A 
ATOM     24  C   UNL     1      52.145   5.642  18.068  0.00  0.00    +0.000 A 
ATOM     25  S   UNL     1      53.306   4.483  18.533  0.00  0.00    +0.000 S 
ATOM     26  C   UNL     1      52.315   3.201  18.015  0.00  0.00    +0.000 A 
ATOM     27  N   UNL     1      52.733   1.910  18.109  0.00  0.00    +0.000 NA
ATOM     28  C   UNL     1      51.893   1.043  17.651  0.00  0.00    +0.000 A 
ATOM     29  N   UNL     1      50.671   1.350  17.110  0.00  0.00    +0.000 N 
ATOM     30  C   UNL     1      50.194   2.635  17.023  0.00  0.00    +0.000 A 
ATOM     31  O   UNL     1      49.077   2.872  16.576  0.00  0.00    +0.000 OA
ATOM     32  C   UNL     1      51.107   3.651  17.513  0.00  0.00    +0.000 A 
ATOM     33  H   UNL     1      50.056   0.622  16.777  0.00  0.00    +0.000 HD
ENDBRANCH  20  23
ENDBRANCH  18  19
ENDBRANCH   4  18
TORSDOF 6
ENDMDL
MODEL 3
REMARK VINA RESULT:    -7.136      2.098      2.189
REMARK INTER + INTRA:         -10.619
REMARK INTER:                  -9.852
REMARK INTRA:                  -0.766
REMARK UNBOUND:                -0.979
REMARK  Name = 
REMARK  7 active torsions:
REMARK  status: ('A' for Active; 'I' for Inactive)
REMARK    1  A    between atoms: C_1  and  C_2
REMARK    2  A    between atoms: C_5  and  C_6
REMARK    3  A    between atoms: N_8  and  C_9
REMARK    4  A    between atoms: C_9  and  C_10
REMARK    5  A    between atoms: C_13  and  C_14
REMARK    6  A    between atoms: C_14  and  N_15
REMARK    7  A    between atoms: C_16  and  C_18
REMARK                            x       y       z     vdW  Elec       q    Type
REMARK                         _______ _______ _______ _____ _____    ______ ____
ROOT
ATOM      1  C   UNL     1      45.238   6.721  11.875  0.00  0.00    +0.000 A 
ATOM      2  C   UNL     1      44.973   8.078  12.110  0.00  0.00    +0.000 A 
ATOM      3  C   UNL     1      45.878   8.871  12.827  0.00  0.00    +0.000 A 
ATOM      4  C   UNL     1      47.080   8.332  13.304  0.00  0.00    +0.000 A 
ATOM      5  C   UNL     1      47.343   6.976  13.070  0.00  0.00    +0.000 A 
ATOM      6  C   UNL     1      46.441   6.183  12.352  0.00  0.00    +0.000 A 
ENDROOT
BRANCH   1   7
ATOM      7  C   UNL     1      44.257   5.866  11.112  0.00  0.00    +0.000 C 
BRANCH   7  10
ATOM      8  C   UNL     1      44.696   3.719   9.980  0.00  0.00    +0.000 C 
ATOM      9  O   UNL     1      43.925   3.124  10.723  0.00  0.00    +0.000 OA
ATOM     10  N   UNL     1      44.912   5.075  10.100  0.00  0.00    +0.000 N 
ATOM     11  H   UNL     1      45.597   5.518   9.498  0.00  0.00    +0.000 HD
BRANCH   8  16
ATOM     12  C   UNL     1      47.607   2.447   5.756  0.00  0.00    +0.000 C 
ATOM     13  C   UNL     1      46.778   2.433   6.992  0.00  0.00    +0.000 A 
ATOM     14  N   UNL     1      46.415   1.350   7.644  0.00  0.00    +0.000 NA
ATOM     15  C   UNL     1      45.653   1.705   8.747  0.00  0.00    +0.000 A 
ATOM     16  C   UNL     1      45.447   3.060   8.924  0.00  0.00    +0.000 A 
ATOM     17  S   UNL     1      46.229   3.916   7.660  0.00  0.00    +0.000 S 
ENDBRANCH   8  16
ENDBRANCH   7  10
ENDBRANCH   1   7
BRANCH   4  18
ATOM     18  C   UNL     1      48.066   9.179  14.070  0.00  0.00    +0.000 C 
BRANCH  18  19
ATOM     19  N   UNL     1      47.789   9.178  15.485  0.00  0.00    +0.000 N 
ATOM     20  C   UNL     1      48.574   8.468  16.360  0.00  0.00    +0.000 C 
ATOM     21  O   UNL     1      49.567   7.848  15.988  0.00  0.00    +0.000 OA
ATOM     22  H   UNL     1      46.863   9.474  15.776  0.00  0.00    +0.000 HD
BRANCH  20  23
ATOM     23  C   UNL     1      48.201   8.532  17.780  0.00  0.00    +0.000 A 
ATOM     24  C   UNL     1      48.071   9.766  18.405  0.00  0.00    +0.000 A 
ATOM     25  S   UNL     1      47.582   9.660  20.035  0.00  0.00    +0.000 S 
ATOM     26  C   UNL     1      47.579   7.959  19.980  0.00  0.00    +0.000 A 
ATOM     27  N   UNL     1      47.267   7.223  21.081  0.00  0.00    +0.000 NA
ATOM     28  C   UNL     1      47.335   5.946  20.905  0.00  0.00    +0.000 A 
ATOM     29  N   UNL     1      47.683   5.338  19.728  0.00  0.00    +0.000 N 
ATOM     30  C   UNL     1      47.976   6.038  18.583  0.00  0.00    +0.000 A 
ATOM     31  O   UNL     1      48.240   5.462  17.532  0.00  0.00    +0.000 OA
ATOM     32  C   UNL     1      47.927   7.480  18.730  0.00  0.00    +0.000 A 
ATOM     33  H   UNL     1      47.709   4.331  19.653  0.00  0.00    +0.000 HD
ENDBRANCH  20  23
ENDBRANCH  18  19
ENDBRANCH   4  18
TORSDOF 6
ENDMDL
MODEL 4
REMARK VINA RESULT:    -6.922      2.976      8.813
REMARK INTER + INTRA:         -10.329
REMARK INTER:                  -9.384
REMARK INTRA:                  -0.946
REMARK UNBOUND:                -0.979
REMARK  Name = 
REMARK  7 active torsions:
REMARK  status: ('A' for Active; 'I' for Inactive)
REMARK    1  A    between atoms: C_1  and  C_2
REMARK    2  A    between atoms: C_5  and  C_6
REMARK    3  A    between atoms: N_8  and  C_9
REMARK    4  A    between atoms: C_9  and  C_10
REMARK    5  A    between atoms: C_13  and  C_14
REMARK    6  A    between atoms: C_14  and  N_15
REMARK    7  A    between atoms: C_16  and  C_18
REMARK                            x       y       z     vdW  Elec       q    Type
REMARK                         _______ _______ _______ _____ _____    ______ ____
ROOT
ATOM      1  C   UNL     1      50.048   7.075  15.553  0.00  0.00    +0.000 A 
ATOM      2  C   UNL     1      50.486   7.820  14.448  0.00  0.00    +0.000 A 
ATOM      3  C   UNL     1      49.659   8.004  13.334  0.00  0.00    +0.000 A 
ATOM      4  C   UNL     1      48.365   7.468  13.307  0.00  0.00    +0.000 A 
ATOM      5  C   UNL     1      47.928   6.721  14.410  0.00  0.00    +0.000 A 
ATOM      6  C   UNL     1      48.754   6.539  15.525  0.00  0.00    +0.000 A 
ENDROOT
BRANCH   1   7
ATOM      7  C   UNL     1      50.945   6.869  16.748  0.00  0.00    +0.000 C 
BRANCH   7  10
ATOM      8  C   UNL     1      50.831   4.606  17.721  0.00  0.00    +0.000 C 
ATOM      9  O   UNL     1      49.900   4.922  18.450  0.00  0.00    +0.000 OA
ATOM     10  N   UNL     1      51.400   5.504  16.845  0.00  0.00    +0.000 N 
ATOM     11  H   UNL     1      52.202   5.215  16.297  0.00  0.00    +0.000 HD
BRANCH   8  16
ATOM     12  C   UNL     1      53.913   0.335  18.158  0.00  0.00    +0.000 C 
ATOM     13  C   UNL     1      52.801   1.288  17.895  0.00  0.00    +0.000 A 
ATOM     14  N   UNL     1      51.631   0.962  17.392  0.00  0.00    +0.000 NA
ATOM     15  C   UNL     1      50.839   2.095  17.285  0.00  0.00    +0.000 A 
ATOM     16  C   UNL     1      51.416   3.275  17.714  0.00  0.00    +0.000 A 
ATOM     17  S   UNL     1      53.009   2.953  18.262  0.00  0.00    +0.000 S 
ENDBRANCH   8  16
ENDBRANCH   7  10
ENDBRANCH   1   7
BRANCH   4  18
ATOM     18  C   UNL     1      47.462   7.666  12.114  0.00  0.00    +0.000 C 
BRANCH  18  19
ATOM     19  N   UNL     1      46.794   6.445  11.738  0.00  0.00    +0.000 N 
ATOM     20  C   UNL     1      45.425   6.345  11.775  0.00  0.00    +0.000 C 
ATOM     21  O   UNL     1      44.711   7.297  12.080  0.00  0.00    +0.000 OA
ATOM     22  H   UNL     1      47.353   5.599  11.717  0.00  0.00    +0.000 HD
BRANCH  20  23
ATOM     23  C   UNL     1      44.847   5.055  11.374  0.00  0.00    +0.000 A 
ATOM     24  C   UNL     1      44.058   4.343  12.269  0.00  0.00    +0.000 A 
ATOM     25  S   UNL     1      43.426   2.897  11.624  0.00  0.00    +0.000 S 
ATOM     26  C   UNL     1      44.229   3.142  10.143  0.00  0.00    +0.000 A 
ATOM     27  N   UNL     1      44.128   2.236   9.134  0.00  0.00    +0.000 NA
ATOM     28  C   UNL     1      44.813   2.534   8.080  0.00  0.00    +0.000 A 
ATOM     29  N   UNL     1      45.586   3.657   7.944  0.00  0.00    +0.000 N 
ATOM     30  C   UNL     1      45.693   4.614   8.924  0.00  0.00    +0.000 A 
ATOM     31  O   UNL     1      46.358   5.631   8.752  0.00  0.00    +0.000 OA
ATOM     32  C   UNL     1      44.952   4.321  10.136  0.00  0.00    +0.000 A 
ATOM     33  H   UNL     1      46.092   3.836   7.088  0.00  0.00    +0.000 HD
ENDBRANCH  20  23
ENDBRANCH  18  19
ENDBRANCH   4  18
TORSDOF 6
ENDMDL
MODEL 5
REMARK VINA RESULT:    -6.793      4.790      7.725
REMARK INTER + INTRA:         -10.155
REMARK INTER:                  -9.284
REMARK INTRA:                  -0.870
REMARK UNBOUND:                -0.979
REMARK  Name = 
REMARK  7 active torsions:
REMARK  status: ('A' for Active; 'I' for Inactive)
REMARK    1  A    between atoms: C_1  and  C_2
REMARK    2  A    between atoms: C_5  and  C_6
REMARK    3  A    between atoms: N_8  and  C_9
REMARK    4  A    between atoms: C_9  and  C_10
REMARK    5  A    between atoms: C_13  and  C_14
REMARK    6  A    between atoms: C_14  and  N_15
REMARK    7  A    between atoms: C_16  and  C_18
REMARK                            x       y       z     vdW  Elec       q    Type
REMARK                         _______ _______ _______ _____ _____    ______ ____
ROOT
ATOM      1  C   UNL     1      50.510   8.959  11.376  0.00  0.00    +0.000 A 
ATOM      2  C   UNL     1      50.052   7.647  11.568  0.00  0.00    +0.000 A 
ATOM      3  C   UNL     1      48.743   7.401  11.999  0.00  0.00    +0.000 A 
ATOM      4  C   UNL     1      47.853   8.459  12.225  0.00  0.00    +0.000 A 
ATOM      5  C   UNL     1      48.312   9.770  12.035  0.00  0.00    +0.000 A 
ATOM      6  C   UNL     1      49.620  10.017  11.602  0.00  0.00    +0.000 A 
ENDROOT
BRANCH   1   7
ATOM      7  C   UNL     1      51.925   9.222  10.923  0.00  0.00    +0.000 C 
BRANCH   7  10
ATOM      8  C   UNL     1      52.765   8.640   8.678  0.00  0.00    +0.000 C 
ATOM      9  O   UNL     1      52.789   9.816   8.338  0.00  0.00    +0.000 OA
ATOM     10  N   UNL     1      52.358   8.261   9.939  0.00  0.00    +0.000 N 
ATOM     11  H   UNL     1      52.304   7.273  10.162  0.00  0.00    +0.000 HD
BRANCH   8  16
ATOM     12  C   UNL     1      54.243   4.060   6.494  0.00  0.00    +0.000 C 
ATOM     13  C   UNL     1      53.832   5.467   6.752  0.00  0.00    +0.000 A 
ATOM     14  N   UNL     1      53.667   6.386   5.827  0.00  0.00    +0.000 NA
ATOM     15  C   UNL     1      53.281   7.578   6.420  0.00  0.00    +0.000 A 
ATOM     16  C   UNL     1      53.151   7.551   7.796  0.00  0.00    +0.000 A 
ATOM     17  S   UNL     1      53.535   5.979   8.364  0.00  0.00    +0.000 S 
ENDBRANCH   8  16
ENDBRANCH   7  10
ENDBRANCH   1   7
BRANCH   4  18
ATOM     18  C   UNL     1      46.438   8.206  12.682  0.00  0.00    +0.000 C 
BRANCH  18  19
ATOM     19  N   UNL     1      46.014   6.858  12.394  0.00  0.00    +0.000 N 
ATOM     20  C   UNL     1      44.859   6.612  11.693  0.00  0.00    +0.000 C 
ATOM     21  O   UNL     1      44.167   7.521  11.240  0.00  0.00    +0.000 OA
ATOM     22  H   UNL     1      46.426   6.115  12.949  0.00  0.00    +0.000 HD
BRANCH  20  23
ATOM     23  C   UNL     1      44.518   5.203  11.458  0.00  0.00    +0.000 A 
ATOM     24  C   UNL     1      43.805   4.494  12.418  0.00  0.00    +0.000 A 
ATOM     25  S   UNL     1      43.450   2.890  11.961  0.00  0.00    +0.000 S 
ATOM     26  C   UNL     1      44.283   3.067  10.488  0.00  0.00    +0.000 A 
ATOM     27  N   UNL     1      44.384   2.031   9.613  0.00  0.00    +0.000 NA
ATOM     28  C   UNL     1      45.069   2.296   8.550  0.00  0.00    +0.000 A 
ATOM     29  N   UNL     1      45.658   3.504   8.283  0.00  0.00    +0.000 N 
ATOM     30  C   UNL     1      45.557   4.587   9.122  0.00  0.00    +0.000 A 
ATOM     31  O   UNL     1      46.058   5.669   8.831  0.00  0.00    +0.000 OA
ATOM     32  C   UNL     1      44.807   4.338  10.338  0.00  0.00    +0.000 A 
ATOM     33  H   UNL     1      46.174   3.649   7.427  0.00  0.00    +0.000 HD
ENDBRANCH  20  23
ENDBRANCH  18  19
ENDBRANCH   4  18
TORSDOF 6
ENDMDL
MODEL 6
REMARK VINA RESULT:    -6.541      3.477      5.334
REMARK INTER + INTRA:          -9.815
REMARK INTER:                  -9.074
REMARK INTRA:                  -0.741
REMARK UNBOUND:                -0.979
REMARK  Name = 
REMARK  7 active torsions:
REMARK  status: ('A' for Active; 'I' for Inactive)
REMARK    1  A    between atoms: C_1  and  C_2
REMARK    2  A    between atoms: C_5  and  C_6
REMARK    3  A    between atoms: N_8  and  C_9
REMARK    4  A    between atoms: C_9  and  C_10
REMARK    5  A    between atoms: C_13  and  C_14
REMARK    6  A    between atoms: C_14  and  N_15
REMARK    7  A    between atoms: C_16  and  C_18
REMARK                            x       y       z     vdW  Elec       q    Type
REMARK                         _______ _______ _______ _____ _____    ______ ____
ROOT
ATOM      1  C   UNL     1      47.775   6.001  14.766  0.00  0.00    +0.000 A 
ATOM      2  C   UNL     1      48.633   6.353  15.817  0.00  0.00    +0.000 A 
ATOM      3  C   UNL     1      48.852   5.477  16.888  0.00  0.00    +0.000 A 
ATOM      4  C   UNL     1      48.235   4.220  16.922  0.00  0.00    +0.000 A 
ATOM      5  C   UNL     1      47.374   3.871  15.872  0.00  0.00    +0.000 A 
ATOM      6  C   UNL     1      47.158   4.744  14.800  0.00  0.00    +0.000 A 
ENDROOT
BRANCH   1   7
ATOM      7  C   UNL     1      47.533   6.951  13.619  0.00  0.00    +0.000 C 
BRANCH   7  10
ATOM      8  C   UNL     1      45.823   6.127  12.044  0.00  0.00    +0.000 C 
ATOM      9  O   UNL     1      44.918   6.617  12.707  0.00  0.00    +0.000 OA
ATOM     10  N   UNL     1      47.143   6.251  12.420  0.00  0.00    +0.000 N 
ATOM     11  H   UNL     1      47.856   5.786  11.870  0.00  0.00    +0.000 HD
BRANCH   8  16
ATOM     12  C   UNL     1      44.469   2.606   8.343  0.00  0.00    +0.000 C 
ATOM     13  C   UNL     1      44.992   3.781   9.090  0.00  0.00    +0.000 A 
ATOM     14  N   UNL     1      45.610   4.806   8.546  0.00  0.00    +0.000 NA
ATOM     15  C   UNL     1      45.957   5.717   9.532  0.00  0.00    +0.000 A 
ATOM     16  C   UNL     1      45.593   5.375  10.821  0.00  0.00    +0.000 A 
ATOM     17  S   UNL     1      44.797   3.856  10.794  0.00  0.00    +0.000 S 
ENDBRANCH   8  16
ENDBRANCH   7  10
ENDBRANCH   1   7
BRANCH   4  18
ATOM     18  C   UNL     1      48.468   3.266  18.066  0.00  0.00    +0.000 C 
BRANCH  18  19
ATOM     19  N   UNL     1      49.868   2.966  18.239  0.00  0.00    +0.000 N 
ATOM     20  C   UNL     1      50.541   2.179  17.336  0.00  0.00    +0.000 C 
ATOM     21  O   UNL     1      49.999   1.741  16.324  0.00  0.00    +0.000 OA
ATOM     22  H   UNL     1      50.261   3.110  19.163  0.00  0.00    +0.000 HD
BRANCH  20  23
ATOM     23  C   UNL     1      51.963   1.933  17.609  0.00  0.00    +0.000 A 
ATOM     24  C   UNL     1      52.428   0.630  17.733  0.00  0.00    +0.000 A 
ATOM     25  S   UNL     1      54.110   0.525  17.995  0.00  0.00    +0.000 S 
ATOM     26  C   UNL     1      54.269   2.219  18.007  0.00  0.00    +0.000 A 
ATOM     27  N   UNL     1      55.478   2.807  18.215  0.00  0.00    +0.000 NA
ATOM     28  C   UNL     1      55.447   4.098  18.228  0.00  0.00    +0.000 A 
ATOM     29  N   UNL     1      54.318   4.854  18.049  0.00  0.00    +0.000 N 
ATOM     30  C   UNL     1      53.082   4.305  17.806  0.00  0.00    +0.000 A 
ATOM     31  O   UNL     1      52.099   5.011  17.605  0.00  0.00    +0.000 OA
ATOM     32  C   UNL     1      53.059   2.854  17.794  0.00  0.00    +0.000 A 
ATOM     33  H   UNL     1      54.363   5.862  18.063  0.00  0.00    +0.000 HD
ENDBRANCH  20  23
ENDBRANCH  18  19
ENDBRANCH   4  18
TORSDOF 6
ENDMDL
MODEL 7
REMARK VINA RESULT:    -6.458      4.430      6.845
REMARK INTER + INTRA:          -9.702
REMARK INTER:                  -8.845
REMARK INTRA:                  -0.858
REMARK UNBOUND:                -0.979
REMARK  Name = 
REMARK  7 active torsions:
REMARK  status: ('A' for Active; 'I' for Inactive)
REMARK    1  A    between atoms: C_1  and  C_2
REMARK    2  A    between atoms: C_5  and  C_6
REMARK    3  A    between atoms: N_8  and  C_9
REMARK    4  A    between atoms: C_9  and  C_10
REMARK    5  A    between atoms: C_13  and  C_14
REMARK    6  A    between atoms: C_14  and  N_15
REMARK    7  A    between atoms: C_16  and  C_18
REMARK                            x       y       z     vdW  Elec       q    Type
REMARK                         _______ _______ _______ _____ _____    ______ ____
ROOT
ATOM      1  C   UNL     1      44.899   9.369  11.775  0.00  0.00    +0.000 A 
ATOM      2  C   UNL     1      46.124   9.304  12.454  0.00  0.00    +0.000 A 
ATOM      3  C   UNL     1      46.671   8.070  12.828  0.00  0.00    +0.000 A 
ATOM      4  C   UNL     1      46.018   6.872  12.511  0.00  0.00    +0.000 A 
ATOM      5  C   UNL     1      44.792   6.939  11.835  0.00  0.00    +0.000 A 
ATOM      6  C   UNL     1      44.246   8.171  11.458  0.00  0.00    +0.000 A 
ENDROOT
BRANCH   1   7
ATOM      7  C   UNL     1      44.306  10.700  11.383  0.00  0.00    +0.000 C 
BRANCH   7  10
ATOM      8  C   UNL     1      41.894  10.844  10.887  0.00  0.00    +0.000 C 
ATOM      9  O   UNL     1      42.097  10.763   9.681  0.00  0.00    +0.000 OA
ATOM     10  N   UNL     1      42.929  10.814  11.796  0.00  0.00    +0.000 N 
ATOM     11  H   UNL     1      42.721  10.936  12.781  0.00  0.00    +0.000 HD
BRANCH   8  16
ATOM     12  C   UNL     1      36.714  10.871  11.931  0.00  0.00    +0.000 C 
ATOM     13  C   UNL     1      38.194  11.018  11.979  0.00  0.00    +0.000 A 
ATOM     14  N   UNL     1      38.870  11.515  12.990  0.00  0.00    +0.000 NA
ATOM     15  C   UNL     1      40.225  11.500  12.697  0.00  0.00    +0.000 A 
ATOM     16  C   UNL     1      40.566  10.984  11.460  0.00  0.00    +0.000 A 
ATOM     17  S   UNL     1      39.138  10.511  10.637  0.00  0.00    +0.000 S 
ENDBRANCH   8  16
ENDBRANCH   7  10
ENDBRANCH   1   7
BRANCH   4  18
ATOM     18  C   UNL     1      46.602   5.537  12.902  0.00  0.00    +0.000 C 
BRANCH  18  19
ATOM     19  N   UNL     1      47.077   5.537  14.264  0.00  0.00    +0.000 N 
ATOM     20  C   UNL     1      47.364   4.362  14.915  0.00  0.00    +0.000 C 
ATOM     21  O   UNL     1      47.278   3.271  14.356  0.00  0.00    +0.000 OA
ATOM     22  H   UNL     1      46.927   6.381  14.806  0.00  0.00    +0.000 HD
BRANCH  20  23
ATOM     23  C   UNL     1      47.837   4.476  16.300  0.00  0.00    +0.000 A 
ATOM     24  C   UNL     1      47.280   3.674  17.289  0.00  0.00    +0.000 A 
ATOM     25  S   UNL     1      47.982   3.896  18.827  0.00  0.00    +0.000 S 
ATOM     26  C   UNL     1      49.019   5.111  18.239  0.00  0.00    +0.000 A 
ATOM     27  N   UNL     1      49.887   5.753  19.067  0.00  0.00    +0.000 NA
ATOM     28  C   UNL     1      50.590   6.671  18.493  0.00  0.00    +0.000 A 
ATOM     29  N   UNL     1      50.507   7.003  17.166  0.00  0.00    +0.000 N 
ATOM     30  C   UNL     1      49.669   6.362  16.287  0.00  0.00    +0.000 A 
ATOM     31  O   UNL     1      49.652   6.653  15.095  0.00  0.00    +0.000 OA
ATOM     32  C   UNL     1      48.845   5.328  16.884  0.00  0.00    +0.000 A 
ATOM     33  H   UNL     1      51.093   7.728  16.777  0.00  0.00    +0.000 HD
ENDBRANCH  20  23
ENDBRANCH  18  19
ENDBRANCH   4  18
TORSDOF 6
ENDMDL
MODEL 8
REMARK VINA RESULT:    -6.254      2.774      4.013
REMARK INTER + INTRA:          -9.427
REMARK INTER:                  -8.586
REMARK INTRA:                  -0.840
REMARK UNBOUND:                -0.979
REMARK  Name = 
REMARK  7 active torsions:
REMARK  status: ('A' for Active; 'I' for Inactive)
REMARK    1  A    between atoms: C_1  and  C_2
REMARK    2  A    between atoms: C_5  and  C_6
REMARK    3  A    between atoms: N_8  and  C_9
REMARK    4  A    between atoms: C_9  and  C_10
REMARK    5  A    between atoms: C_13  and  C_14
REMARK    6  A    between atoms: C_14  and  N_15
REMARK    7  A    between atoms: C_16  and  C_18
REMARK                            x       y       z     vdW  Elec       q    Type
REMARK                         _______ _______ _______ _____ _____    ______ ____
ROOT
ATOM      1  C   UNL     1      47.759   7.916  13.390  0.00  0.00    +0.000 A 
ATOM      2  C   UNL     1      48.133   6.712  14.003  0.00  0.00    +0.000 A 
ATOM      3  C   UNL     1      48.634   6.699  15.311  0.00  0.00    +0.000 A 
ATOM      4  C   UNL     1      48.749   7.887  16.045  0.00  0.00    +0.000 A 
ATOM      5  C   UNL     1      48.377   9.090  15.430  0.00  0.00    +0.000 A 
ATOM      6  C   UNL     1      47.874   9.104  14.124  0.00  0.00    +0.000 A 
ENDROOT
BRANCH   1   7
ATOM      7  C   UNL     1      47.231   7.929  11.977  0.00  0.00    +0.000 C 
BRANCH   7  10
ATOM      8  C   UNL     1      45.361   6.455  11.334  0.00  0.00    +0.000 C 
ATOM      9  O   UNL     1      44.557   7.376  11.406  0.00  0.00    +0.000 OA
ATOM     10  N   UNL     1      46.701   6.644  11.593  0.00  0.00    +0.000 N 
ATOM     11  H   UNL     1      47.323   5.844  11.572  0.00  0.00    +0.000 HD
BRANCH   8  16
ATOM     12  C   UNL     1      44.471   1.803   8.989  0.00  0.00    +0.000 C 
ATOM     13  C   UNL     1      44.551   2.946   9.939  0.00  0.00    +0.000 A 
ATOM     14  N   UNL     1      44.099   2.933  11.174  0.00  0.00    +0.000 NA
ATOM     15  C   UNL     1      44.341   4.160  11.770  0.00  0.00    +0.000 A 
ATOM     16  C   UNL     1      44.982   5.097  10.980  0.00  0.00    +0.000 A 
ATOM     17  S   UNL     1      45.282   4.415   9.435  0.00  0.00    +0.000 S 
ENDBRANCH   8  16
ENDBRANCH   7  10
ENDBRANCH   1   7
BRANCH   4  18
ATOM     18  C   UNL     1      49.279   7.884  17.457  0.00  0.00    +0.000 C 
BRANCH  18  19
ATOM     19  N   UNL     1      50.295   6.879  17.648  0.00  0.00    +0.000 N 
ATOM     20  C   UNL     1      50.064   5.776  18.433  0.00  0.00    +0.000 C 
ATOM     21  O   UNL     1      48.975   5.572  18.963  0.00  0.00    +0.000 OA
ATOM     22  H   UNL     1      51.250   7.139  17.425  0.00  0.00    +0.000 HD
BRANCH  20  23
ATOM     23  C   UNL     1      51.168   4.816  18.561  0.00  0.00    +0.000 A 
ATOM     24  C   UNL     1      52.326   5.181  19.237  0.00  0.00    +0.000 A 
ATOM     25  S   UNL     1      53.482   3.932  19.339  0.00  0.00    +0.000 S 
ATOM     26  C   UNL     1      52.499   2.875  18.437  0.00  0.00    +0.000 A 
ATOM     27  N   UNL     1      52.918   1.616  18.135  0.00  0.00    +0.000 NA
ATOM     28  C   UNL     1      52.086   0.935  17.420  0.00  0.00    +0.000 A 
ATOM     29  N   UNL     1      50.872   1.398  16.983  0.00  0.00    +0.000 N 
ATOM     30  C   UNL     1      50.395   2.649  17.289  0.00  0.00    +0.000 A 
ATOM     31  O   UNL     1      49.283   3.016  16.920  0.00  0.00    +0.000 OA
ATOM     32  C   UNL     1      51.299   3.461  18.081  0.00  0.00    +0.000 A 
ATOM     33  H   UNL     1      50.262   0.810  16.433  0.00  0.00    +0.000 HD
ENDBRANCH  20  23
ENDBRANCH  18  19
ENDBRANCH   4  18
TORSDOF 6
ENDMDL
MODEL 9
REMARK VINA RESULT:    -6.127      2.350      2.959
REMARK INTER + INTRA:          -9.255
REMARK INTER:                  -8.265
REMARK INTRA:                  -0.990
REMARK UNBOUND:                -0.979
REMARK  Name = 
REMARK  7 active torsions:
REMARK  status: ('A' for Active; 'I' for Inactive)
REMARK    1  A    between atoms: C_1  and  C_2
REMARK    2  A    between atoms: C_5  and  C_6
REMARK    3  A    between atoms: N_8  and  C_9
REMARK    4  A    between atoms: C_9  and  C_10
REMARK    5  A    between atoms: C_13  and  C_14
REMARK    6  A    between atoms: C_14  and  N_15
REMARK    7  A    between atoms: C_16  and  C_18
REMARK                            x       y       z     vdW  Elec       q    Type
REMARK                         _______ _______ _______ _____ _____    ______ ____
ROOT
ATOM      1  C   UNL     1      45.302   5.310  12.568  0.00  0.00    +0.000 A 
ATOM      2  C   UNL     1      44.899   6.634  12.344  0.00  0.00    +0.000 A 
ATOM      3  C   UNL     1      45.639   7.705  12.860  0.00  0.00    +0.000 A 
ATOM      4  C   UNL     1      46.811   7.479  13.592  0.00  0.00    +0.000 A 
ATOM      5  C   UNL     1      47.212   6.155  13.818  0.00  0.00    +0.000 A 
ATOM      6  C   UNL     1      46.475   5.083  13.300  0.00  0.00    +0.000 A 
ENDROOT
BRANCH   1   7
ATOM      7  C   UNL     1      44.498   4.157  12.020  0.00  0.00    +0.000 C 
BRANCH   7  10
ATOM      8  C   UNL     1      44.838   3.751   9.611  0.00  0.00    +0.000 C 
ATOM      9  O   UNL     1      43.955   4.545   9.312  0.00  0.00    +0.000 OA
ATOM     10  N   UNL     1      45.174   3.506  10.925  0.00  0.00    +0.000 N 
ATOM     11  H   UNL     1      45.876   2.803  11.129  0.00  0.00    +0.000 HD
BRANCH   8  16
ATOM     12  C   UNL     1      47.808   2.110   5.560  0.00  0.00    +0.000 C 
ATOM     13  C   UNL     1      46.954   2.205   6.774  0.00  0.00    +0.000 A 
ATOM     14  N   UNL     1      46.558   1.182   7.499  0.00  0.00    +0.000 NA
ATOM     15  C   UNL     1      45.781   1.633   8.555  0.00  0.00    +0.000 A 
ATOM     16  C   UNL     1      45.597   3.001   8.625  0.00  0.00    +0.000 A 
ATOM     17  S   UNL     1      46.421   3.744   7.317  0.00  0.00    +0.000 S 
ENDBRANCH   8  16
ENDBRANCH   7  10
ENDBRANCH   1   7
BRANCH   4  18
ATOM     18  C   UNL     1      47.620   8.625  14.146  0.00  0.00    +0.000 C 
BRANCH  18  19
ATOM     19  N   UNL     1      48.039   8.381  15.504  0.00  0.00    +0.000 N 
ATOM     20  C   UNL     1      49.355   8.505  15.873  0.00  0.00    +0.000 C 
ATOM     21  O   UNL     1      50.220   8.875  15.083  0.00  0.00    +0.000 OA
ATOM     22  H   UNL     1      47.404   7.855  16.096  0.00  0.00    +0.000 HD
BRANCH  20  23
ATOM     23  C   UNL     1      49.673   8.229  17.280  0.00  0.00    +0.000 A 
ATOM     24  C   UNL     1      50.600   7.244  17.600  0.00  0.00    +0.000 A 
ATOM     25  S   UNL     1      50.889   7.093  19.273  0.00  0.00    +0.000 S 
ATOM     26  C   UNL     1      49.746   8.300  19.636  0.00  0.00    +0.000 A 
ATOM     27  N   UNL     1      49.481   8.649  20.924  0.00  0.00    +0.000 NA
ATOM     28  C   UNL     1      48.571   9.557  21.053  0.00  0.00    +0.000 A 
ATOM     29  N   UNL     1      47.905  10.148  20.012  0.00  0.00    +0.000 N 
ATOM     30  C   UNL     1      48.161   9.849  18.695  0.00  0.00    +0.000 A 
ATOM     31  O   UNL     1      47.579  10.430  17.784  0.00  0.00    +0.000 OA
ATOM     32  C   UNL     1      49.168   8.825  18.494  0.00  0.00    +0.000 A 
ATOM     33  H   UNL     1      47.208  10.859  20.180  0.00  0.00    +0.000 HD
ENDBRANCH  20  23
ENDBRANCH  18  19
ENDBRANCH   4  18
TORSDOF 6
ENDMDL
