MODEL 1
REMARK VINA RESULT:    -8.622      0.000      0.000
REMARK INTER + INTRA:         -11.995
REMARK INTER:                 -11.142
REMARK INTRA:                  -0.853
REMARK UNBOUND:                -0.853
REMARK  Name = 
REMARK  5 active torsions:
REMARK  status: ('A' for Active; 'I' for Inactive)
REMARK    1  A    between atoms: C_2  and  C_18
REMARK    2  A    between atoms: N_3  and  C_4
REMARK    3  A    between atoms: C_4  and  C_5
REMARK    4  A    between atoms: C_8  and  C_9
REMARK    5  A    between atoms: C_9  and  C_10
REMARK                            x       y       z     vdW  Elec       q    Type
REMARK                         _______ _______ _______ _____ _____    ______ ____
ROOT
ATOM      1  O   UNL     1      48.676   7.088  12.748  0.00  0.00    +0.000 OA
ATOM      2  C   UNL     1      47.948   6.805  13.695  0.00  0.00    +0.000 C 
ATOM      3  N   UNL     1      46.582   6.877  13.620  0.00  0.00    +0.000 N 
ATOM      4  H   UNL     1      46.034   6.775  14.466  0.00  0.00    +0.000 HD
ENDROOT
BRANCH   2   5
ATOM      5  C   UNL     1      48.499   6.325  14.970  0.00  0.00    +0.000 A 
ATOM      6  C   UNL     1      49.532   7.020  15.587  0.00  0.00    +0.000 A 
ATOM      7  S   UNL     1      50.043   6.321  17.056  0.00  0.00    +0.000 S 
ATOM      8  C   UNL     1      48.872   5.091  16.944  0.00  0.00    +0.000 A 
ATOM      9  N   UNL     1      48.740   4.159  17.925  0.00  0.00    +0.000 NA
ATOM     10  C   UNL     1      47.782   3.314  17.734  0.00  0.00    +0.000 A 
ATOM     11  N   UNL     1      46.957   3.305  16.641  0.00  0.00    +0.000 N 
ATOM     12  C   UNL     1      47.113   4.168  15.584  0.00  0.00    +0.000 A 
ATOM     13  O   UNL     1      46.463   4.029  14.554  0.00  0.00    +0.000 OA
ATOM     14  C   UNL     1      48.129   5.186  15.781  0.00  0.00    +0.000 A 
ATOM     15  H   UNL     1      46.253   2.590  16.530  0.00  0.00    +0.000 HD
ENDBRANCH   2   5
BRANCH   3  16
ATOM     16  C   UNL     1      45.882   7.384  12.468  0.00  0.00    +0.000 C 
BRANCH  16  17
ATOM     17  C   UNL     1      45.569   6.291  11.487  0.00  0.00    +0.000 A 
ATOM     18  C   UNL     1      44.724   5.233  11.824  0.00  0.00    +0.000 A 
ATOM     19  C   UNL     1      44.412   4.264  10.872  0.00  0.00    +0.000 A 
ATOM     20  C   UNL     1      44.975   4.361   9.601  0.00  0.00    +0.000 A 
ATOM     21  N   UNL     1      45.836   5.355   9.264  0.00  0.00    +0.000 NA
ATOM     22  C   UNL     1      46.113   6.286  10.208  0.00  0.00    +0.000 A 
BRANCH  20  23
ATOM     23  C   UNL     1      44.576   3.390   8.511  0.00  0.00    +0.000 C 
BRANCH  23  24
ATOM     24  C   UNL     1      45.761   2.696   7.876  0.00  0.00    +0.000 A 
ATOM     25  C   UNL     1      46.510   3.340   6.884  0.00  0.00    +0.000 A 
ATOM     26  C   UNL     1      47.556   2.656   6.287  0.00  0.00    +0.000 A 
ATOM     27  N   UNL     1      47.915   1.397   6.617  0.00  0.00    +0.000 NA
ATOM     28  C   UNL     1      47.193   0.799   7.588  0.00  0.00    +0.000 A 
ATOM     29  C   UNL     1      46.124   1.397   8.240  0.00  0.00    +0.000 A 
ENDBRANCH  23  24
ENDBRANCH  20  23
ENDBRANCH  16  17
ENDBRANCH   3  16
TORSDOF 5
ENDMDL
MODEL 2
REMARK VINA RESULT:    -8.431      1.831      2.519
REMARK INTER + INTRA:         -11.748
REMARK INTER:                 -10.945
REMARK INTRA:                  -0.803
REMARK UNBOUND:                -0.853
REMARK  Name = 
REMARK  5 active torsions:
REMARK  status: ('A' for Active; 'I' for Inactive)
REMARK    1  A    between atoms: C_2  and  C_18
REMARK    2  A    between atoms: N_3  and  C_4
REMARK    3  A    between atoms: C_4  and  C_5
REMARK    4  A    between atoms: C_8  and  C_9
REMARK    5  A    between atoms: C_9  and  C_10
REMARK                            x       y       z     vdW  Elec       q    Type
REMARK                         _______ _______ _______ _____ _____    ______ ____
ROOT
ATOM      1  O   UNL     1      47.390   3.940  13.813  0.00  0.00    +0.000 OA
ATOM      2  C   UNL     1      47.126   5.139  13.860  0.00  0.00    +0.000 C 
ATOM      3  N   UNL     1      45.859   5.620  13.664  0.00  0.00    +0.000 N 
ATOM      4  H   UNL     1      45.718   6.619  13.567  0.00  0.00    +0.000 HD
ENDROOT
BRANCH   2   5
ATOM      5  C   UNL     1      48.156   6.140  14.172  0.00  0.00    +0.000 A 
ATOM      6  C   UNL     1      48.649   6.965  13.170  0.00  0.00    +0.000 A 
ATOM      7  S   UNL     1      49.833   8.066  13.713  0.00  0.00    +0.000 S 
ATOM      8  C   UNL     1      49.695   7.511  15.316  0.00  0.00    +0.000 A 
ATOM      9  N   UNL     1      50.422   8.074  16.318  0.00  0.00    +0.000 NA
ATOM     10  C   UNL     1      50.184   7.587  17.490  0.00  0.00    +0.000 A 
ATOM     11  N   UNL     1      49.300   6.574  17.748  0.00  0.00    +0.000 N 
ATOM     12  C   UNL     1      48.615   5.914  16.758  0.00  0.00    +0.000 A 
ATOM     13  O   UNL     1      47.957   4.910  17.007  0.00  0.00    +0.000 OA
ATOM     14  C   UNL     1      48.790   6.471  15.429  0.00  0.00    +0.000 A 
ATOM     15  H   UNL     1      49.191   6.209  18.683  0.00  0.00    +0.000 HD
ENDBRANCH   2   5
BRANCH   3  16
ATOM     16  C   UNL     1      44.747   4.784  13.291  0.00  0.00    +0.000 C 
BRANCH  16  17
ATOM     17  C   UNL     1      44.696   4.565  11.806  0.00  0.00    +0.000 A 
ATOM     18  C   UNL     1      45.403   5.386  10.926  0.00  0.00    +0.000 A 
ATOM     19  C   UNL     1      45.376   5.121   9.558  0.00  0.00    +0.000 A 
ATOM     20  C   UNL     1      44.617   4.049   9.093  0.00  0.00    +0.000 A 
ATOM     21  N   UNL     1      43.884   3.265   9.925  0.00  0.00    +0.000 NA
ATOM     22  C   UNL     1      43.938   3.542  11.249  0.00  0.00    +0.000 A 
BRANCH  20  23
ATOM     23  C   UNL     1      44.649   3.667   7.629  0.00  0.00    +0.000 C 
BRANCH  23  24
ATOM     24  C   UNL     1      45.870   2.854   7.258  0.00  0.00    +0.000 A 
ATOM     25  C   UNL     1      46.688   3.250   6.192  0.00  0.00    +0.000 A 
ATOM     26  C   UNL     1      47.767   2.453   5.847  0.00  0.00    +0.000 A 
ATOM     27  N   UNL     1      48.097   1.314   6.492  0.00  0.00    +0.000 NA
ATOM     28  C   UNL     1      47.309   0.959   7.529  0.00  0.00    +0.000 A 
ATOM     29  C   UNL     1      46.202   1.684   7.947  0.00  0.00    +0.000 A 
ENDBRANCH  23  24
ENDBRANCH  20  23
ENDBRANCH  16  17
ENDBRANCH   3  16
TORSDOF 5
ENDMDL
MODEL 3
REMARK VINA RESULT:    -8.369      1.491      2.069
REMARK INTER + INTRA:         -11.668
REMARK INTER:                 -10.872
REMARK INTRA:                  -0.796
REMARK UNBOUND:                -0.853
REMARK  Name = 
REMARK  5 active torsions:
REMARK  status: ('A' for Active; 'I' for Inactive)
REMARK    1  A    between atoms: C_2  and  C_18
REMARK    2  A    between atoms: N_3  and  C_4
REMARK    3  A    between atoms: C_4  and  C_5
REMARK    4  A    between atoms: C_8  and  C_9
REMARK    5  A    between atoms: C_9  and  C_10
REMARK                            x       y       z     vdW  Elec       q    Type
REMARK                         _______ _______ _______ _____ _____    ______ ____
ROOT
ATOM      1  O   UNL     1      48.511   6.317  13.795  0.00  0.00    +0.000 OA
ATOM      2  C   UNL     1      47.583   5.803  14.414  0.00  0.00    +0.000 C 
ATOM      3  N   UNL     1      46.283   5.884  13.990  0.00  0.00    +0.000 N 
ATOM      4  H   UNL     1      45.541   5.573  14.607  0.00  0.00    +0.000 HD
ENDROOT
BRANCH   2   5
ATOM      5  C   UNL     1      47.816   5.024  15.639  0.00  0.00    +0.000 A 
ATOM      6  C   UNL     1      47.454   3.685  15.689  0.00  0.00    +0.000 A 
ATOM      7  S   UNL     1      47.800   2.940  17.184  0.00  0.00    +0.000 S 
ATOM      8  C   UNL     1      48.487   4.370  17.801  0.00  0.00    +0.000 A 
ATOM      9  N   UNL     1      49.027   4.406  19.049  0.00  0.00    +0.000 NA
ATOM     10  C   UNL     1      49.554   5.540  19.371  0.00  0.00    +0.000 A 
ATOM     11  N   UNL     1      49.574   6.646  18.565  0.00  0.00    +0.000 N 
ATOM     12  C   UNL     1      48.961   6.684  17.337  0.00  0.00    +0.000 A 
ATOM     13  O   UNL     1      48.859   7.735  16.714  0.00  0.00    +0.000 OA
ATOM     14  C   UNL     1      48.416   5.413  16.896  0.00  0.00    +0.000 A 
ATOM     15  H   UNL     1      49.966   7.518  18.893  0.00  0.00    +0.000 HD
ENDBRANCH   2   5
BRANCH   3  16
ATOM     16  C   UNL     1      45.874   6.657  12.847  0.00  0.00    +0.000 C 
BRANCH  16  17
ATOM     17  C   UNL     1      45.607   5.783  11.656  0.00  0.00    +0.000 A 
ATOM     18  C   UNL     1      44.894   4.589  11.777  0.00  0.00    +0.000 A 
ATOM     19  C   UNL     1      44.617   3.828  10.642  0.00  0.00    +0.000 A 
ATOM     20  C   UNL     1      45.083   4.267   9.405  0.00  0.00    +0.000 A 
ATOM     21  N   UNL     1      45.818   5.401   9.269  0.00  0.00    +0.000 NA
ATOM     22  C   UNL     1      46.063   6.123  10.388  0.00  0.00    +0.000 A 
BRANCH  20  23
ATOM     23  C   UNL     1      44.711   3.526   8.140  0.00  0.00    +0.000 C 
BRANCH  23  24
ATOM     24  C   UNL     1      45.878   2.782   7.527  0.00  0.00    +0.000 A 
ATOM     25  C   UNL     1      46.551   3.311   6.419  0.00  0.00    +0.000 A 
ATOM     26  C   UNL     1      47.581   2.578   5.851  0.00  0.00    +0.000 A 
ATOM     27  N   UNL     1      47.995   1.380   6.314  0.00  0.00    +0.000 NA
ATOM     28  C   UNL     1      47.346   0.896   7.395  0.00  0.00    +0.000 A 
ATOM     29  C   UNL     1      46.299   1.549   8.029  0.00  0.00    +0.000 A 
ENDBRANCH  23  24
ENDBRANCH  20  23
ENDBRANCH  16  17
ENDBRANCH   3  16
TORSDOF 5
ENDMDL
MODEL 4
REMARK VINA RESULT:    -8.257      1.863      3.382
REMARK INTER + INTRA:         -11.523
REMARK INTER:                 -10.876
REMARK INTRA:                  -0.647
REMARK UNBOUND:                -0.853
REMARK  Name = 
REMARK  5 active torsions:
REMARK  status: ('A' for Active; 'I' for Inactive)
REMARK    1  A    between atoms: C_2  and  C_18
REMARK    2  A    between atoms: N_3  and  C_4
REMARK    3  A    between atoms: C_4  and  C_5
REMARK    4  A    between atoms: C_8  and  C_9
REMARK    5  A    between atoms: C_9  and  C_10
REMARK                            x       y       z     vdW  Elec       q    Type
REMARK                         _______ _______ _______ _____ _____    ______ ____
ROOT
ATOM      1  O   UNL     1      47.053   3.739  14.207  0.00  0.00    +0.000 OA
ATOM      2  C   UNL     1      46.912   4.956  14.118  0.00  0.00    +0.000 C 
ATOM      3  N   UNL     1      45.726   5.532  13.744  0.00  0.00    +0.000 N 
ATOM      4  H   UNL     1      45.701   6.525  13.544  0.00  0.00    +0.000 HD
ENDROOT
BRANCH   2   5
ATOM      5  C   UNL     1      48.003   5.882  14.451  0.00  0.00    +0.000 A 
ATOM      6  C   UNL     1      48.548   5.882  15.729  0.00  0.00    +0.000 A 
ATOM      7  S   UNL     1      49.804   7.018  15.934  0.00  0.00    +0.000 S 
ATOM      8  C   UNL     1      49.695   7.517  14.311  0.00  0.00    +0.000 A 
ATOM      9  N   UNL     1      50.538   8.458  13.809  0.00  0.00    +0.000 NA
ATOM     10  C   UNL     1      50.375   8.707  12.553  0.00  0.00    +0.000 A 
ATOM     11  N   UNL     1      49.433   8.113  11.757  0.00  0.00    +0.000 N 
ATOM     12  C   UNL     1      48.502   7.228  12.240  0.00  0.00    +0.000 A 
ATOM     13  O   UNL     1      47.574   6.840  11.538  0.00  0.00    +0.000 OA
ATOM     14  C   UNL     1      48.687   6.857  13.631  0.00  0.00    +0.000 A 
ATOM     15  H   UNL     1      49.328   8.384  10.789  0.00  0.00    +0.000 HD
ENDBRANCH   2   5
BRANCH   3  16
ATOM     16  C   UNL     1      44.578   4.772  13.327  0.00  0.00    +0.000 C 
BRANCH  16  17
ATOM     17  C   UNL     1      44.568   4.556  11.841  0.00  0.00    +0.000 A 
ATOM     18  C   UNL     1      45.312   5.369  10.984  0.00  0.00    +0.000 A 
ATOM     19  C   UNL     1      45.323   5.108   9.615  0.00  0.00    +0.000 A 
ATOM     20  C   UNL     1      44.566   4.046   9.125  0.00  0.00    +0.000 A 
ATOM     21  N   UNL     1      43.798   3.270   9.933  0.00  0.00    +0.000 NA
ATOM     22  C   UNL     1      43.815   3.544  11.259  0.00  0.00    +0.000 A 
BRANCH  20  23
ATOM     23  C   UNL     1      44.637   3.666   7.662  0.00  0.00    +0.000 C 
BRANCH  23  24
ATOM     24  C   UNL     1      45.858   2.837   7.327  0.00  0.00    +0.000 A 
ATOM     25  C   UNL     1      46.080   1.612   7.968  0.00  0.00    +0.000 A 
ATOM     26  C   UNL     1      47.235   0.905   7.675  0.00  0.00    +0.000 A 
ATOM     27  N   UNL     1      48.162   1.316   6.785  0.00  0.00    +0.000 NA
ATOM     28  C   UNL     1      47.921   2.489   6.163  0.00  0.00    +0.000 A 
ATOM     29  C   UNL     1      46.800   3.274   6.393  0.00  0.00    +0.000 A 
ENDBRANCH  23  24
ENDBRANCH  20  23
ENDBRANCH  16  17
ENDBRANCH   3  16
TORSDOF 5
ENDMDL
MODEL 5
REMARK VINA RESULT:    -7.874      2.165      2.831
REMARK INTER + INTRA:         -11.029
REMARK INTER:                 -10.145
REMARK INTRA:                  -0.884
REMARK UNBOUND:                -0.853
REMARK  Name = 
REMARK  5 active torsions:
REMARK  status: ('A' for Active; 'I' for Inactive)
REMARK    1  A    between atoms: C_2  and  C_18
REMARK    2  A    between atoms: N_3  and  C_4
REMARK    3  A    between atoms: C_4  and  C_5
REMARK    4  A    between atoms: C_8  and  C_9
REMARK    5  A    between atoms: C_9  and  C_10
REMARK                            x       y       z     vdW  Elec       q    Type
REMARK                         _______ _______ _______ _____ _____    ______ ____
ROOT
ATOM      1  O   UNL     1      46.444   8.695  13.266  0.00  0.00    +0.000 OA
ATOM      2  C   UNL     1      47.274   7.803  13.418  0.00  0.00    +0.000 C 
ATOM      3  N   UNL     1      46.938   6.475  13.389  0.00  0.00    +0.000 N 
ATOM      4  H   UNL     1      47.627   5.784  13.664  0.00  0.00    +0.000 HD
ENDROOT
BRANCH   2   5
ATOM      5  C   UNL     1      48.701   8.104  13.601  0.00  0.00    +0.000 A 
ATOM      6  C   UNL     1      49.315   9.065  12.809  0.00  0.00    +0.000 A 
ATOM      7  S   UNL     1      50.969   9.284  13.162  0.00  0.00    +0.000 S 
ATOM      8  C   UNL     1      50.912   8.137  14.417  0.00  0.00    +0.000 A 
ATOM      9  N   UNL     1      52.010   7.870  15.173  0.00  0.00    +0.000 NA
ATOM     10  C   UNL     1      51.813   7.014  16.120  0.00  0.00    +0.000 A 
ATOM     11  N   UNL     1      50.621   6.386  16.366  0.00  0.00    +0.000 N 
ATOM     12  C   UNL     1      49.513   6.555  15.573  0.00  0.00    +0.000 A 
ATOM     13  O   UNL     1      48.516   5.858  15.725  0.00  0.00    +0.000 OA
ATOM     14  C   UNL     1      49.659   7.562  14.539  0.00  0.00    +0.000 A 
ATOM     15  H   UNL     1      50.543   5.693  17.097  0.00  0.00    +0.000 HD
ENDBRANCH   2   5
BRANCH   3  16
ATOM     16  C   UNL     1      45.581   6.007  13.279  0.00  0.00    +0.000 C 
BRANCH  16  17
ATOM     17  C   UNL     1      45.301   5.437  11.919  0.00  0.00    +0.000 A 
ATOM     18  C   UNL     1      45.915   5.951  10.776  0.00  0.00    +0.000 A 
ATOM     19  C   UNL     1      45.674   5.363   9.535  0.00  0.00    +0.000 A 
ATOM     20  C   UNL     1      44.800   4.281   9.460  0.00  0.00    +0.000 A 
ATOM     21  N   UNL     1      44.155   3.793  10.551  0.00  0.00    +0.000 NA
ATOM     22  C   UNL     1      44.416   4.380  11.743  0.00  0.00    +0.000 A 
BRANCH  20  23
ATOM     23  C   UNL     1      44.597   3.550   8.150  0.00  0.00    +0.000 C 
BRANCH  23  24
ATOM     24  C   UNL     1      45.814   2.760   7.721  0.00  0.00    +0.000 A 
ATOM     25  C   UNL     1      46.758   3.327   6.857  0.00  0.00    +0.000 A 
ATOM     26  C   UNL     1      47.832   2.556   6.443  0.00  0.00    +0.000 A 
ATOM     27  N   UNL     1      48.039   1.282   6.838  0.00  0.00    +0.000 NA
ATOM     28  C   UNL     1      47.129   0.759   7.686  0.00  0.00    +0.000 A 
ATOM     29  C   UNL     1      46.017   1.446   8.152  0.00  0.00    +0.000 A 
ENDBRANCH  23  24
ENDBRANCH  20  23
ENDBRANCH  16  17
ENDBRANCH   3  16
TORSDOF 5
ENDMDL
MODEL 6
REMARK VINA RESULT:    -7.548      2.639      4.167
REMARK INTER + INTRA:         -10.608
REMARK INTER:                  -9.514
REMARK INTRA:                  -1.094
REMARK UNBOUND:                -0.853
REMARK  Name = 
REMARK  5 active torsions:
REMARK  status: ('A' for Active; 'I' for Inactive)
REMARK    1  A    between atoms: C_2  and  C_18
REMARK    2  A    between atoms: N_3  and  C_4
REMARK    3  A    between atoms: C_4  and  C_5
REMARK    4  A    between atoms: C_8  and  C_9
REMARK    5  A    between atoms: C_9  and  C_10
REMARK                            x       y       z     vdW  Elec       q    Type
REMARK                         _______ _______ _______ _____ _____    ______ ____
ROOT
ATOM      1  O   UNL     1      48.630   6.458  15.732  0.00  0.00    +0.000 OA
ATOM      2  C   UNL     1      48.222   7.154  14.806  0.00  0.00    +0.000 C 
ATOM      3  N   UNL     1      47.224   6.742  13.962  0.00  0.00    +0.000 N 
ATOM      4  H   UNL     1      47.025   7.286  13.130  0.00  0.00    +0.000 HD
ENDROOT
BRANCH   2   5
ATOM      5  C   UNL     1      48.754   8.503  14.568  0.00  0.00    +0.000 A 
ATOM      6  C   UNL     1      48.689   9.462  15.570  0.00  0.00    +0.000 A 
ATOM      7  S   UNL     1      49.355  10.966  15.119  0.00  0.00    +0.000 S 
ATOM      8  C   UNL     1      49.794  10.376  13.585  0.00  0.00    +0.000 A 
ATOM      9  N   UNL     1      50.456  11.162  12.694  0.00  0.00    +0.000 NA
ATOM     10  C   UNL     1      50.768  10.572  11.589  0.00  0.00    +0.000 A 
ATOM     11  N   UNL     1      50.461   9.273  11.285  0.00  0.00    +0.000 N 
ATOM     12  C   UNL     1      49.715   8.472  12.114  0.00  0.00    +0.000 A 
ATOM     13  O   UNL     1      49.322   7.371  11.742  0.00  0.00    +0.000 OA
ATOM     14  C   UNL     1      49.401   9.062  13.402  0.00  0.00    +0.000 A 
ATOM     15  H   UNL     1      50.696   8.883  10.384  0.00  0.00    +0.000 HD
ENDBRANCH   2   5
BRANCH   3  16
ATOM     16  C   UNL     1      46.637   5.429  14.018  0.00  0.00    +0.000 C 
BRANCH  16  17
ATOM     17  C   UNL     1      46.075   5.019  12.687  0.00  0.00    +0.000 A 
ATOM     18  C   UNL     1      46.053   5.900  11.605  0.00  0.00    +0.000 A 
ATOM     19  C   UNL     1      45.574   5.469  10.369  0.00  0.00    +0.000 A 
ATOM     20  C   UNL     1      45.102   4.164  10.246  0.00  0.00    +0.000 A 
ATOM     21  N   UNL     1      45.071   3.303  11.296  0.00  0.00    +0.000 NA
ATOM     22  C   UNL     1      45.550   3.748  12.481  0.00  0.00    +0.000 A 
BRANCH  20  23
ATOM     23  C   UNL     1      44.676   3.629   8.897  0.00  0.00    +0.000 C 
BRANCH  23  24
ATOM     24  C   UNL     1      45.764   2.839   8.204  0.00  0.00    +0.000 A 
ATOM     25  C   UNL     1      46.672   3.480   7.352  0.00  0.00    +0.000 A 
ATOM     26  C   UNL     1      47.623   2.717   6.694  0.00  0.00    +0.000 A 
ATOM     27  N   UNL     1      47.744   1.380   6.837  0.00  0.00    +0.000 NA
ATOM     28  C   UNL     1      46.873   0.783   7.677  0.00  0.00    +0.000 A 
ATOM     29  C   UNL     1      45.881   1.457   8.375  0.00  0.00    +0.000 A 
ENDBRANCH  23  24
ENDBRANCH  20  23
ENDBRANCH  16  17
ENDBRANCH   3  16
TORSDOF 5
ENDMDL
MODEL 7
REMARK VINA RESULT:    -7.525      1.408      2.171
REMARK INTER + INTRA:         -10.578
REMARK INTER:                  -9.680
REMARK INTRA:                  -0.899
REMARK UNBOUND:                -0.853
REMARK  Name = 
REMARK  5 active torsions:
REMARK  status: ('A' for Active; 'I' for Inactive)
REMARK    1  A    between atoms: C_2  and  C_18
REMARK    2  A    between atoms: N_3  and  C_4
REMARK    3  A    between atoms: C_4  and  C_5
REMARK    4  A    between atoms: C_8  and  C_9
REMARK    5  A    between atoms: C_9  and  C_10
REMARK                            x       y       z     vdW  Elec       q    Type
REMARK                         _______ _______ _______ _____ _____    ______ ____
ROOT
ATOM      1  O   UNL     1      50.095   7.445  14.429  0.00  0.00    +0.000 OA
ATOM      2  C   UNL     1      49.152   7.110  15.141  0.00  0.00    +0.000 C 
ATOM      3  N   UNL     1      47.847   7.277  14.759  0.00  0.00    +0.000 N 
ATOM      4  H   UNL     1      47.110   7.122  15.436  0.00  0.00    +0.000 HD
ENDROOT
BRANCH   2   5
ATOM      5  C   UNL     1      49.366   6.464  16.443  0.00  0.00    +0.000 A 
ATOM      6  C   UNL     1      50.183   7.065  17.392  0.00  0.00    +0.000 A 
ATOM      7  S   UNL     1      50.313   6.177  18.842  0.00  0.00    +0.000 S 
ATOM      8  C   UNL     1      49.246   4.980  18.271  0.00  0.00    +0.000 A 
ATOM      9  N   UNL     1      48.888   3.928  19.055  0.00  0.00    +0.000 NA
ATOM     10  C   UNL     1      48.037   3.123  18.514  0.00  0.00    +0.000 A 
ATOM     11  N   UNL     1      47.526   3.263  17.252  0.00  0.00    +0.000 N 
ATOM     12  C   UNL     1      47.928   4.255  16.392  0.00  0.00    +0.000 A 
ATOM     13  O   UNL     1      47.572   4.257  15.218  0.00  0.00    +0.000 OA
ATOM     14  C   UNL     1      48.829   5.231  16.976  0.00  0.00    +0.000 A 
ATOM     15  H   UNL     1      46.894   2.573  16.870  0.00  0.00    +0.000 HD
ENDBRANCH   2   5
BRANCH   3  16
ATOM     16  C   UNL     1      47.461   7.946  13.544  0.00  0.00    +0.000 C 
BRANCH  16  17
ATOM     17  C   UNL     1      46.465   7.141  12.762  0.00  0.00    +0.000 A 
ATOM     18  C   UNL     1      45.337   7.735  12.193  0.00  0.00    +0.000 A 
ATOM     19  C   UNL     1      44.460   6.967  11.428  0.00  0.00    +0.000 A 
ATOM     20  C   UNL     1      44.718   5.608  11.267  0.00  0.00    +0.000 A 
ATOM     21  N   UNL     1      45.783   4.998  11.850  0.00  0.00    +0.000 NA
ATOM     22  C   UNL     1      46.620   5.772  12.580  0.00  0.00    +0.000 A 
BRANCH  20  23
ATOM     23  C   UNL     1      43.849   4.766  10.357  0.00  0.00    +0.000 C 
BRANCH  23  24
ATOM     24  C   UNL     1      44.651   3.879   9.431  0.00  0.00    +0.000 A 
ATOM     25  C   UNL     1      44.627   2.488   9.584  0.00  0.00    +0.000 A 
ATOM     26  C   UNL     1      45.414   1.710   8.751  0.00  0.00    +0.000 A 
ATOM     27  N   UNL     1      46.201   2.212   7.776  0.00  0.00    +0.000 NA
ATOM     28  C   UNL     1      46.197   3.554   7.631  0.00  0.00    +0.000 A 
ATOM     29  C   UNL     1      45.450   4.418   8.418  0.00  0.00    +0.000 A 
ENDBRANCH  23  24
ENDBRANCH  20  23
ENDBRANCH  16  17
ENDBRANCH   3  16
TORSDOF 5
ENDMDL
MODEL 8
REMARK VINA RESULT:    -6.867      3.831      7.585
REMARK INTER + INTRA:          -9.728
REMARK INTER:                  -8.771
REMARK INTRA:                  -0.957
REMARK UNBOUND:                -0.853
REMARK  Name = 
REMARK  5 active torsions:
REMARK  status: ('A' for Active; 'I' for Inactive)
REMARK    1  A    between atoms: C_2  and  C_18
REMARK    2  A    between atoms: N_3  and  C_4
REMARK    3  A    between atoms: C_4  and  C_5
REMARK    4  A    between atoms: C_8  and  C_9
REMARK    5  A    between atoms: C_9  and  C_10
REMARK                            x       y       z     vdW  Elec       q    Type
REMARK                         _______ _______ _______ _____ _____    ______ ____
ROOT
ATOM      1  O   UNL     1      47.798   7.032  11.844  0.00  0.00    +0.000 OA
ATOM      2  C   UNL     1      46.786   7.246  12.507  0.00  0.00    +0.000 C 
ATOM      3  N   UNL     1      46.767   8.126  13.556  0.00  0.00    +0.000 N 
ATOM      4  H   UNL     1      45.954   8.159  14.160  0.00  0.00    +0.000 HD
ENDROOT
BRANCH   2   5
ATOM      5  C   UNL     1      45.507   6.597  12.186  0.00  0.00    +0.000 A 
ATOM      6  C   UNL     1      44.469   7.339  11.637  0.00  0.00    +0.000 A 
ATOM      7  S   UNL     1      43.064   6.423  11.328  0.00  0.00    +0.000 S 
ATOM      8  C   UNL     1      43.808   4.993  11.873  0.00  0.00    +0.000 A 
ATOM      9  N   UNL     1      43.150   3.803  11.836  0.00  0.00    +0.000 NA
ATOM     10  C   UNL     1      43.849   2.793  12.236  0.00  0.00    +0.000 A 
ATOM     11  N   UNL     1      45.139   2.869  12.687  0.00  0.00    +0.000 N 
ATOM     12  C   UNL     1      45.809   4.058  12.829  0.00  0.00    +0.000 A 
ATOM     13  O   UNL     1      46.901   4.106  13.386  0.00  0.00    +0.000 OA
ATOM     14  C   UNL     1      45.096   5.217  12.325  0.00  0.00    +0.000 A 
ATOM     15  H   UNL     1      45.617   2.046  13.027  0.00  0.00    +0.000 HD
ENDBRANCH   2   5
BRANCH   3  16
ATOM     16  C   UNL     1      47.944   8.799  14.041  0.00  0.00    +0.000 C 
BRANCH  16  17
ATOM     17  C   UNL     1      48.586   8.046  15.170  0.00  0.00    +0.000 A 
ATOM     18  C   UNL     1      48.221   8.277  16.497  0.00  0.00    +0.000 A 
ATOM     19  C   UNL     1      48.798   7.522  17.517  0.00  0.00    +0.000 A 
ATOM     20  C   UNL     1      49.753   6.563  17.188  0.00  0.00    +0.000 A 
ATOM     21  N   UNL     1      50.158   6.352  15.909  0.00  0.00    +0.000 NA
ATOM     22  C   UNL     1      49.573   7.095  14.940  0.00  0.00    +0.000 A 
BRANCH  20  23
ATOM     23  C   UNL     1      50.322   5.652  18.254  0.00  0.00    +0.000 C 
BRANCH  23  24
ATOM     24  C   UNL     1      50.418   4.209  17.809  0.00  0.00    +0.000 A 
ATOM     25  C   UNL     1      49.274   3.522  17.385  0.00  0.00    +0.000 A 
ATOM     26  C   UNL     1      49.390   2.186  17.034  0.00  0.00    +0.000 A 
ATOM     27  N   UNL     1      50.552   1.501  17.058  0.00  0.00    +0.000 NA
ATOM     28  C   UNL     1      51.647   2.186  17.451  0.00  0.00    +0.000 A 
ATOM     29  C   UNL     1      51.633   3.521  17.829  0.00  0.00    +0.000 A 
ENDBRANCH  23  24
ENDBRANCH  20  23
ENDBRANCH  16  17
ENDBRANCH   3  16
TORSDOF 5
ENDMDL
MODEL 9
REMARK VINA RESULT:    -6.558      2.863      8.411
REMARK INTER + INTRA:          -9.328
REMARK INTER:                  -8.288
REMARK INTRA:                  -1.040
REMARK UNBOUND:                -0.853
REMARK  Name = 
REMARK  5 active torsions:
REMARK  status: ('A' for Active; 'I' for Inactive)
REMARK    1  A    between atoms: C_2  and  C_18
REMARK    2  A    between atoms: N_3  and  C_4
REMARK    3  A    between atoms: C_4  and  C_5
REMARK    4  A    between atoms: C_8  and  C_9
REMARK    5  A    between atoms: C_9  and  C_10
REMARK                            x       y       z     vdW  Elec       q    Type
REMARK                         _______ _______ _______ _____ _____    ______ ____
ROOT
ATOM      1  O   UNL     1      44.835   7.513  11.918  0.00  0.00    +0.000 OA
ATOM      2  C   UNL     1      45.540   6.524  11.731  0.00  0.00    +0.000 C 
ATOM      3  N   UNL     1      46.908   6.579  11.774  0.00  0.00    +0.000 N 
ATOM      4  H   UNL     1      47.446   5.775  11.471  0.00  0.00    +0.000 HD
ENDROOT
BRANCH   2   5
ATOM      5  C   UNL     1      44.955   5.198  11.489  0.00  0.00    +0.000 A 
ATOM      6  C   UNL     1      44.243   4.559  12.495  0.00  0.00    +0.000 A 
ATOM      7  S   UNL     1      43.634   3.033  12.037  0.00  0.00    +0.000 S 
ATOM      8  C   UNL     1      44.261   3.193  10.462  0.00  0.00    +0.000 A 
ATOM      9  N   UNL     1      44.054   2.230   9.525  0.00  0.00    +0.000 NA
ATOM     10  C   UNL     1      44.544   2.502   8.362  0.00  0.00    +0.000 A 
ATOM     11  N   UNL     1      45.239   3.642   8.057  0.00  0.00    +0.000 N 
ATOM     12  C   UNL     1      45.551   4.596   8.993  0.00  0.00    +0.000 A 
ATOM     13  O   UNL     1      46.311   5.521   8.723  0.00  0.00    +0.000 OA
ATOM     14  C   UNL     1      44.961   4.375  10.300  0.00  0.00    +0.000 A 
ATOM     15  H   UNL     1      45.635   3.776   7.137  0.00  0.00    +0.000 HD
ENDBRANCH   2   5
BRANCH   3  16
ATOM     16  C   UNL     1      47.643   7.806  11.940  0.00  0.00    +0.000 C 
BRANCH  16  17
ATOM     17  C   UNL     1      48.270   7.895  13.301  0.00  0.00    +0.000 A 
ATOM     18  C   UNL     1      47.912   8.899  14.202  0.00  0.00    +0.000 A 
ATOM     19  C   UNL     1      48.475   8.921  15.477  0.00  0.00    +0.000 A 
ATOM     20  C   UNL     1      49.408   7.945  15.819  0.00  0.00    +0.000 A 
ATOM     21  N   UNL     1      49.807   6.985  14.944  0.00  0.00    +0.000 NA
ATOM     22  C   UNL     1      49.236   6.986  13.716  0.00  0.00    +0.000 A 
BRANCH  20  23
ATOM     23  C   UNL     1      49.959   7.872  17.226  0.00  0.00    +0.000 C 
BRANCH  23  24
ATOM     24  C   UNL     1      49.559   6.606  17.952  0.00  0.00    +0.000 A 
ATOM     25  C   UNL     1      50.533   5.778  18.522  0.00  0.00    +0.000 A 
ATOM     26  C   UNL     1      50.135   4.600  19.133  0.00  0.00    +0.000 A 
ATOM     27  N   UNL     1      48.849   4.203  19.231  0.00  0.00    +0.000 NA
ATOM     28  C   UNL     1      47.922   5.023  18.693  0.00  0.00    +0.000 A 
ATOM     29  C   UNL     1      48.220   6.218  18.054  0.00  0.00    +0.000 A 
ENDBRANCH  23  24
ENDBRANCH  20  23
ENDBRANCH  16  17
ENDBRANCH   3  16
TORSDOF 5
ENDMDL
