MODEL 1
REMARK VINA RESULT:    -8.353      0.000      0.000
REMARK INTER + INTRA:         -13.741
REMARK INTER:                 -12.260
REMARK INTRA:                  -1.481
REMARK UNBOUND:                -1.481
REMARK  Name = 
REMARK  9 active torsions:
REMARK  status: ('A' for Active; 'I' for Inactive)
REMARK    1  A    between atoms: C_1  and  O_2
REMARK    2  A    between atoms: O_2  and  C_3
REMARK    3  A    between atoms: C_10  and  C_11
REMARK    4  A    between atoms: N_13  and  C_14
REMARK    5  A    between atoms: C_14  and  C_15
REMARK    6  A    between atoms: C_18  and  C_19
REMARK    7  A    between atoms: C_19  and  O_20
REMARK    8  A    between atoms: O_20  and  C_21
REMARK    9  A    between atoms: C_21  and  C_22
REMARK                            x       y       z     vdW  Elec       q    Type
REMARK                         _______ _______ _______ _____ _____    ______ ____
ROOT
ATOM      1  C   UNL     1      46.624   7.809  12.974  0.00  0.00    +0.000 C 
ENDROOT
BRANCH   1   2
ATOM      2  C   UNL     1      45.846   6.719  12.273  0.00  0.00    +0.000 A 
ATOM      3  C   UNL     1      44.741   6.119  12.894  0.00  0.00    +0.000 A 
ATOM      4  C   UNL     1      44.030   5.093  12.258  0.00  0.00    +0.000 A 
ATOM      5  C   UNL     1      44.416   4.630  10.992  0.00  0.00    +0.000 A 
ATOM      6  C   UNL     1      45.522   5.227  10.373  0.00  0.00    +0.000 A 
ATOM      7  C   UNL     1      46.228   6.259  11.006  0.00  0.00    +0.000 A 
BRANCH   5   8
ATOM      8  C   UNL     1      43.673   3.501  10.319  0.00  0.00    +0.000 C 
BRANCH   8   9
ATOM      9  O   UNL     1      44.242   3.263   9.036  0.00  0.00    +0.000 OA
BRANCH   9  10
ATOM     10  C   UNL     1      45.082   2.108   9.027  0.00  0.00    +0.000 C 
BRANCH  10  11
ATOM     11  C   UNL     1      46.033   2.179   7.866  0.00  0.00    +0.000 A 
ATOM     12  C   UNL     1      46.101   3.295   7.025  0.00  0.00    +0.000 A 
ATOM     13  C   UNL     1      47.013   3.321   5.976  0.00  0.00    +0.000 A 
ATOM     14  C   UNL     1      47.848   2.231   5.807  0.00  0.00    +0.000 A 
ATOM     15  N   UNL     1      47.833   1.143   6.608  0.00  0.00    +0.000 NA
ATOM     16  C   UNL     1      46.930   1.145   7.616  0.00  0.00    +0.000 A 
ENDBRANCH  10  11
ENDBRANCH   9  10
ENDBRANCH   8   9
ENDBRANCH   5   8
ENDBRANCH   1   2
BRANCH   1  19
ATOM     17  C   UNL     1      48.482   6.828  14.283  0.00  0.00    +0.000 C 
ATOM     18  O   UNL     1      49.208   6.773  13.291  0.00  0.00    +0.000 OA
ATOM     19  N   UNL     1      47.211   7.326  14.205  0.00  0.00    +0.000 N 
ATOM     20  H   UNL     1      46.640   7.380  15.035  0.00  0.00    +0.000 HD
BRANCH  17  28
ATOM     21  C   UNL     1      47.462   4.261  16.337  0.00  0.00    +0.000 A 
ATOM     22  N   UNL     1      47.310   3.308  17.278  0.00  0.00    +0.000 NA
ATOM     23  C   UNL     1      48.149   3.313  18.316  0.00  0.00    +0.000 A 
ATOM     24  N   UNL     1      49.130   4.181  18.550  0.00  0.00    +0.000 NA
ATOM     25  C   UNL     1      49.251   5.111  17.586  0.00  0.00    +0.000 A 
ATOM     26  S   UNL     1      50.441   6.312  17.721  0.00  0.00    +0.000 S 
ATOM     27  C   UNL     1      49.985   7.002  16.234  0.00  0.00    +0.000 A 
ATOM     28  C   UNL     1      48.939   6.340  15.600  0.00  0.00    +0.000 A 
ATOM     29  C   UNL     1      48.483   5.224  16.430  0.00  0.00    +0.000 A 
BRANCH  21  31
ATOM     30  C   UNL     1      47.117   3.521  14.146  0.00  0.00    +0.000 C 
ATOM     31  O   UNL     1      46.604   4.247  15.260  0.00  0.00    +0.000 OA
ENDBRANCH  21  31
ENDBRANCH  17  28
ENDBRANCH   1  19
TORSDOF 8
ENDMDL
MODEL 2
REMARK VINA RESULT:    -7.815      1.482      1.686
REMARK INTER + INTRA:         -12.951
REMARK INTER:                 -11.654
REMARK INTRA:                  -1.297
REMARK UNBOUND:                -1.481
REMARK  Name = 
REMARK  9 active torsions:
REMARK  status: ('A' for Active; 'I' for Inactive)
REMARK    1  A    between atoms: C_1  and  O_2
REMARK    2  A    between atoms: O_2  and  C_3
REMARK    3  A    between atoms: C_10  and  C_11
REMARK    4  A    between atoms: N_13  and  C_14
REMARK    5  A    between atoms: C_14  and  C_15
REMARK    6  A    between atoms: C_18  and  C_19
REMARK    7  A    between atoms: C_19  and  O_20
REMARK    8  A    between atoms: O_20  and  C_21
REMARK    9  A    between atoms: C_21  and  C_22
REMARK                            x       y       z     vdW  Elec       q    Type
REMARK                         _______ _______ _______ _____ _____    ______ ____
ROOT
ATOM      1  C   UNL     1      48.133   6.714  13.308  0.00  0.00    +0.000 C 
ENDROOT
BRANCH   1   2
ATOM      2  C   UNL     1      46.972   5.974  12.682  0.00  0.00    +0.000 A 
ATOM      3  C   UNL     1      46.337   4.932  13.371  0.00  0.00    +0.000 A 
ATOM      4  C   UNL     1      45.276   4.227  12.788  0.00  0.00    +0.000 A 
ATOM      5  C   UNL     1      44.834   4.537  11.493  0.00  0.00    +0.000 A 
ATOM      6  C   UNL     1      45.472   5.576  10.804  0.00  0.00    +0.000 A 
ATOM      7  C   UNL     1      46.528   6.287  11.391  0.00  0.00    +0.000 A 
BRANCH   5   8
ATOM      8  C   UNL     1      43.714   3.757  10.848  0.00  0.00    +0.000 C 
BRANCH   8   9
ATOM      9  O   UNL     1      44.066   3.454   9.503  0.00  0.00    +0.000 OA
BRANCH   9  10
ATOM     10  C   UNL     1      44.701   2.181   9.388  0.00  0.00    +0.000 C 
BRANCH  10  11
ATOM     11  C   UNL     1      45.712   2.214   8.276  0.00  0.00    +0.000 A 
ATOM     12  C   UNL     1      46.002   3.384   7.568  0.00  0.00    +0.000 A 
ATOM     13  C   UNL     1      46.961   3.368   6.561  0.00  0.00    +0.000 A 
ATOM     14  C   UNL     1      47.619   2.179   6.302  0.00  0.00    +0.000 A 
ATOM     15  N   UNL     1      47.387   1.031   6.975  0.00  0.00    +0.000 NA
ATOM     16  C   UNL     1      46.443   1.078   7.945  0.00  0.00    +0.000 A 
ENDBRANCH  10  11
ENDBRANCH   9  10
ENDBRANCH   8   9
ENDBRANCH   5   8
ENDBRANCH   1   2
BRANCH   1  19
ATOM     17  C   UNL     1      49.006   7.216  15.568  0.00  0.00    +0.000 C 
ATOM     18  O   UNL     1      50.067   7.639  15.111  0.00  0.00    +0.000 OA
ATOM     19  N   UNL     1      48.015   6.754  14.748  0.00  0.00    +0.000 N 
ATOM     20  H   UNL     1      47.144   6.431  15.144  0.00  0.00    +0.000 HD
BRANCH  17  28
ATOM     21  C   UNL     1      48.820   4.646  17.851  0.00  0.00    +0.000 A 
ATOM     22  N   UNL     1      48.763   3.852  18.938  0.00  0.00    +0.000 NA
ATOM     23  C   UNL     1      48.581   4.429  20.127  0.00  0.00    +0.000 A 
ATOM     24  N   UNL     1      48.424   5.727  20.372  0.00  0.00    +0.000 NA
ATOM     25  C   UNL     1      48.492   6.485  19.263  0.00  0.00    +0.000 A 
ATOM     26  S   UNL     1      48.300   8.166  19.379  0.00  0.00    +0.000 S 
ATOM     27  C   UNL     1      48.525   8.359  17.704  0.00  0.00    +0.000 A 
ATOM     28  C   UNL     1      48.759   7.168  17.024  0.00  0.00    +0.000 A 
ATOM     29  C   UNL     1      48.709   6.044  17.960  0.00  0.00    +0.000 A 
BRANCH  21  31
ATOM     30  C   UNL     1      47.913   3.262  16.199  0.00  0.00    +0.000 C 
ATOM     31  O   UNL     1      49.021   4.050  16.625  0.00  0.00    +0.000 OA
ENDBRANCH  21  31
ENDBRANCH  17  28
ENDBRANCH   1  19
TORSDOF 8
ENDMDL
MODEL 3
REMARK VINA RESULT:    -7.480      2.272      2.919
REMARK INTER + INTRA:         -12.460
REMARK INTER:                 -11.497
REMARK INTRA:                  -0.963
REMARK UNBOUND:                -1.481
REMARK  Name = 
REMARK  9 active torsions:
REMARK  status: ('A' for Active; 'I' for Inactive)
REMARK    1  A    between atoms: C_1  and  O_2
REMARK    2  A    between atoms: O_2  and  C_3
REMARK    3  A    between atoms: C_10  and  C_11
REMARK    4  A    between atoms: N_13  and  C_14
REMARK    5  A    between atoms: C_14  and  C_15
REMARK    6  A    between atoms: C_18  and  C_19
REMARK    7  A    between atoms: C_19  and  O_20
REMARK    8  A    between atoms: O_20  and  C_21
REMARK    9  A    between atoms: C_21  and  C_22
REMARK                            x       y       z     vdW  Elec       q    Type
REMARK                         _______ _______ _______ _____ _____    ______ ____
ROOT
ATOM      1  C   UNL     1      48.009   6.660  13.713  0.00  0.00    +0.000 C 
ENDROOT
BRANCH   1   2
ATOM      2  C   UNL     1      46.824   6.084  12.971  0.00  0.00    +0.000 A 
ATOM      3  C   UNL     1      46.344   4.804  13.280  0.00  0.00    +0.000 A 
ATOM      4  C   UNL     1      45.260   4.256  12.581  0.00  0.00    +0.000 A 
ATOM      5  C   UNL     1      44.641   4.968  11.543  0.00  0.00    +0.000 A 
ATOM      6  C   UNL     1      45.123   6.246  11.234  0.00  0.00    +0.000 A 
ATOM      7  C   UNL     1      46.201   6.798  11.938  0.00  0.00    +0.000 A 
BRANCH   5   8
ATOM      8  C   UNL     1      43.495   4.367  10.765  0.00  0.00    +0.000 C 
BRANCH   8   9
ATOM      9  O   UNL     1      44.000   3.377   9.876  0.00  0.00    +0.000 OA
BRANCH   9  10
ATOM     10  C   UNL     1      44.532   3.949   8.681  0.00  0.00    +0.000 C 
BRANCH  10  11
ATOM     11  C   UNL     1      45.564   3.030   8.091  0.00  0.00    +0.000 A 
ATOM     12  C   UNL     1      46.513   3.472   7.165  0.00  0.00    +0.000 A 
ATOM     13  C   UNL     1      47.462   2.588   6.664  0.00  0.00    +0.000 A 
ATOM     14  C   UNL     1      47.444   1.281   7.120  0.00  0.00    +0.000 A 
ATOM     15  N   UNL     1      46.561   0.816   8.030  0.00  0.00    +0.000 NA
ATOM     16  C   UNL     1      45.647   1.701   8.494  0.00  0.00    +0.000 A 
ENDBRANCH  10  11
ENDBRANCH   9  10
ENDBRANCH   8   9
ENDBRANCH   5   8
ENDBRANCH   1   2
BRANCH   1  19
ATOM     17  C   UNL     1      49.038   6.366  15.944  0.00  0.00    +0.000 C 
ATOM     18  O   UNL     1      50.154   6.652  15.514  0.00  0.00    +0.000 OA
ATOM     19  N   UNL     1      47.944   6.354  15.124  0.00  0.00    +0.000 N 
ATOM     20  H   UNL     1      47.034   6.135  15.503  0.00  0.00    +0.000 HD
BRANCH  17  28
ATOM     21  C   UNL     1      47.915   8.108  18.693  0.00  0.00    +0.000 A 
ATOM     22  N   UNL     1      47.456   8.528  19.887  0.00  0.00    +0.000 NA
ATOM     23  C   UNL     1      47.417   7.648  20.889  0.00  0.00    +0.000 A 
ATOM     24  N   UNL     1      47.807   6.377  20.856  0.00  0.00    +0.000 NA
ATOM     25  C   UNL     1      48.253   5.995  19.645  0.00  0.00    +0.000 A 
ATOM     26  S   UNL     1      48.807   4.409  19.414  0.00  0.00    +0.000 S 
ATOM     27  C   UNL     1      49.136   4.708  17.773  0.00  0.00    +0.000 A 
ATOM     28  C   UNL     1      48.828   6.001  17.360  0.00  0.00    +0.000 A 
ATOM     29  C   UNL     1      48.326   6.777  18.495  0.00  0.00    +0.000 A 
BRANCH  21  31
ATOM     30  C   UNL     1      49.164   9.742  17.583  0.00  0.00    +0.000 C 
ATOM     31  O   UNL     1      47.942   9.013  17.656  0.00  0.00    +0.000 OA
ENDBRANCH  21  31
ENDBRANCH  17  28
ENDBRANCH   1  19
TORSDOF 8
ENDMDL
MODEL 4
REMARK VINA RESULT:    -7.256      2.453      3.116
REMARK INTER + INTRA:         -12.131
REMARK INTER:                 -10.830
REMARK INTRA:                  -1.301
REMARK UNBOUND:                -1.481
REMARK  Name = 
REMARK  9 active torsions:
REMARK  status: ('A' for Active; 'I' for Inactive)
REMARK    1  A    between atoms: C_1  and  O_2
REMARK    2  A    between atoms: O_2  and  C_3
REMARK    3  A    between atoms: C_10  and  C_11
REMARK    4  A    between atoms: N_13  and  C_14
REMARK    5  A    between atoms: C_14  and  C_15
REMARK    6  A    between atoms: C_18  and  C_19
REMARK    7  A    between atoms: C_19  and  O_20
REMARK    8  A    between atoms: O_20  and  C_21
REMARK    9  A    between atoms: C_21  and  C_22
REMARK                            x       y       z     vdW  Elec       q    Type
REMARK                         _______ _______ _______ _____ _____    ______ ____
ROOT
ATOM      1  C   UNL     1      47.622   4.334  15.105  0.00  0.00    +0.000 C 
ENDROOT
BRANCH   1   2
ATOM      2  C   UNL     1      46.610   4.448  13.988  0.00  0.00    +0.000 A 
ATOM      3  C   UNL     1      46.248   3.322  13.235  0.00  0.00    +0.000 A 
ATOM      4  C   UNL     1      45.328   3.426  12.184  0.00  0.00    +0.000 A 
ATOM      5  C   UNL     1      44.759   4.663  11.849  0.00  0.00    +0.000 A 
ATOM      6  C   UNL     1      45.123   5.789  12.599  0.00  0.00    +0.000 A 
ATOM      7  C   UNL     1      46.037   5.683  13.656  0.00  0.00    +0.000 A 
BRANCH   5   8
ATOM      8  C   UNL     1      43.793   4.786  10.695  0.00  0.00    +0.000 C 
BRANCH   8   9
ATOM      9  O   UNL     1      44.043   3.742   9.760  0.00  0.00    +0.000 OA
BRANCH   9  10
ATOM     10  C   UNL     1      44.691   4.221   8.581  0.00  0.00    +0.000 C 
BRANCH  10  11
ATOM     11  C   UNL     1      45.616   3.165   8.044  0.00  0.00    +0.000 A 
ATOM     12  C   UNL     1      46.590   3.448   7.081  0.00  0.00    +0.000 A 
ATOM     13  C   UNL     1      47.436   2.441   6.630  0.00  0.00    +0.000 A 
ATOM     14  C   UNL     1      47.294   1.175   7.172  0.00  0.00    +0.000 A 
ATOM     15  N   UNL     1      46.384   0.863   8.120  0.00  0.00    +0.000 NA
ATOM     16  C   UNL     1      45.571   1.864   8.533  0.00  0.00    +0.000 A 
ENDBRANCH  10  11
ENDBRANCH   9  10
ENDBRANCH   8   9
ENDBRANCH   5   8
ENDBRANCH   1   2
BRANCH   1  19
ATOM     17  C   UNL     1      48.628   6.376  16.077  0.00  0.00    +0.000 C 
ATOM     18  O   UNL     1      49.663   6.225  15.430  0.00  0.00    +0.000 OA
ATOM     19  N   UNL     1      47.588   5.495  15.966  0.00  0.00    +0.000 N 
ATOM     20  H   UNL     1      46.739   5.650  16.490  0.00  0.00    +0.000 HD
BRANCH  17  28
ATOM     21  C   UNL     1      47.725   6.571  19.393  0.00  0.00    +0.000 A 
ATOM     22  N   UNL     1      47.469   6.918  20.669  0.00  0.00    +0.000 NA
ATOM     23  C   UNL     1      47.561   8.208  20.999  0.00  0.00    +0.000 A 
ATOM     24  N   UNL     1      47.863   9.222  20.194  0.00  0.00    +0.000 NA
ATOM     25  C   UNL     1      48.117   8.834  18.931  0.00  0.00    +0.000 A 
ATOM     26  S   UNL     1      48.507   9.993  17.756  0.00  0.00    +0.000 S 
ATOM     27  C   UNL     1      48.684   8.797  16.560  0.00  0.00    +0.000 A 
ATOM     28  C   UNL     1      48.465   7.502  17.019  0.00  0.00    +0.000 A 
ATOM     29  C   UNL     1      48.096   7.533  18.435  0.00  0.00    +0.000 A 
BRANCH  21  31
ATOM     30  C   UNL     1      48.835   4.515  19.342  0.00  0.00    +0.000 C 
ATOM     31  O   UNL     1      47.642   5.239  19.056  0.00  0.00    +0.000 OA
ENDBRANCH  21  31
ENDBRANCH  17  28
ENDBRANCH   1  19
TORSDOF 8
ENDMDL
MODEL 5
REMARK VINA RESULT:    -7.245      1.987      3.518
REMARK INTER + INTRA:         -12.114
REMARK INTER:                 -10.809
REMARK INTRA:                  -1.305
REMARK UNBOUND:                -1.481
REMARK  Name = 
REMARK  9 active torsions:
REMARK  status: ('A' for Active; 'I' for Inactive)
REMARK    1  A    between atoms: C_1  and  O_2
REMARK    2  A    between atoms: O_2  and  C_3
REMARK    3  A    between atoms: C_10  and  C_11
REMARK    4  A    between atoms: N_13  and  C_14
REMARK    5  A    between atoms: C_14  and  C_15
REMARK    6  A    between atoms: C_18  and  C_19
REMARK    7  A    between atoms: C_19  and  O_20
REMARK    8  A    between atoms: O_20  and  C_21
REMARK    9  A    between atoms: C_21  and  C_22
REMARK                            x       y       z     vdW  Elec       q    Type
REMARK                         _______ _______ _______ _____ _____    ______ ____
ROOT
ATOM      1  C   UNL     1      47.152   4.248  14.894  0.00  0.00    +0.000 C 
ENDROOT
BRANCH   1   2
ATOM      2  C   UNL     1      46.273   4.403  13.674  0.00  0.00    +0.000 A 
ATOM      3  C   UNL     1      45.853   5.673  13.254  0.00  0.00    +0.000 A 
ATOM      4  C   UNL     1      45.020   5.821  12.137  0.00  0.00    +0.000 A 
ATOM      5  C   UNL     1      44.571   4.700  11.423  0.00  0.00    +0.000 A 
ATOM      6  C   UNL     1      44.988   3.431  11.845  0.00  0.00    +0.000 A 
ATOM      7  C   UNL     1      45.828   3.284  12.957  0.00  0.00    +0.000 A 
BRANCH   5   8
ATOM      8  C   UNL     1      43.645   4.854  10.240  0.00  0.00    +0.000 C 
BRANCH   8   9
ATOM      9  O   UNL     1      44.043   3.954   9.212  0.00  0.00    +0.000 OA
BRANCH   9  10
ATOM     10  C   UNL     1      45.230   4.388   8.548  0.00  0.00    +0.000 C 
BRANCH  10  11
ATOM     11  C   UNL     1      45.942   3.206   7.953  0.00  0.00    +0.000 A 
ATOM     12  C   UNL     1      46.796   3.327   6.852  0.00  0.00    +0.000 A 
ATOM     13  C   UNL     1      47.448   2.206   6.351  0.00  0.00    +0.000 A 
ATOM     14  C   UNL     1      47.240   0.992   6.980  0.00  0.00    +0.000 A 
ATOM     15  N   UNL     1      46.442   0.832   8.058  0.00  0.00    +0.000 NA
ATOM     16  C   UNL     1      45.817   1.941   8.518  0.00  0.00    +0.000 A 
ENDBRANCH  10  11
ENDBRANCH   9  10
ENDBRANCH   8   9
ENDBRANCH   5   8
ENDBRANCH   1   2
BRANCH   1  19
ATOM     17  C   UNL     1      48.630   5.688  16.260  0.00  0.00    +0.000 C 
ATOM     18  O   UNL     1      49.283   4.721  16.649  0.00  0.00    +0.000 OA
ATOM     19  N   UNL     1      47.580   5.534  15.399  0.00  0.00    +0.000 N 
ATOM     20  H   UNL     1      47.070   6.344  15.076  0.00  0.00    +0.000 HD
BRANCH  17  28
ATOM     21  C   UNL     1      48.716   8.746  14.679  0.00  0.00    +0.000 A 
ATOM     22  N   UNL     1      48.759  10.046  14.329  0.00  0.00    +0.000 NA
ATOM     23  C   UNL     1      49.036  10.942  15.278  0.00  0.00    +0.000 A 
ATOM     24  N   UNL     1      49.303  10.698  16.558  0.00  0.00    +0.000 NA
ATOM     25  C   UNL     1      49.245   9.390  16.868  0.00  0.00    +0.000 A 
ATOM     26  S   UNL     1      49.571   8.886  18.454  0.00  0.00    +0.000 S 
ATOM     27  C   UNL     1      49.290   7.258  18.049  0.00  0.00    +0.000 A 
ATOM     28  C   UNL     1      48.935   7.059  16.718  0.00  0.00    +0.000 A 
ATOM     29  C   UNL     1      48.939   8.338  16.008  0.00  0.00    +0.000 A 
BRANCH  21  31
ATOM     30  C   UNL     1      49.555   7.423  12.944  0.00  0.00    +0.000 C 
ATOM     31  O   UNL     1      48.417   7.822  13.702  0.00  0.00    +0.000 OA
ENDBRANCH  21  31
ENDBRANCH  17  28
ENDBRANCH   1  19
TORSDOF 8
ENDMDL
MODEL 6
REMARK VINA RESULT:    -6.987      2.403      3.633
REMARK INTER + INTRA:         -11.736
REMARK INTER:                 -10.625
REMARK INTRA:                  -1.111
REMARK UNBOUND:                -1.481
REMARK  Name = 
REMARK  9 active torsions:
REMARK  status: ('A' for Active; 'I' for Inactive)
REMARK    1  A    between atoms: C_1  and  O_2
REMARK    2  A    between atoms: O_2  and  C_3
REMARK    3  A    between atoms: C_10  and  C_11
REMARK    4  A    between atoms: N_13  and  C_14
REMARK    5  A    between atoms: C_14  and  C_15
REMARK    6  A    between atoms: C_18  and  C_19
REMARK    7  A    between atoms: C_19  and  O_20
REMARK    8  A    between atoms: O_20  and  C_21
REMARK    9  A    between atoms: C_21  and  C_22
REMARK                            x       y       z     vdW  Elec       q    Type
REMARK                         _______ _______ _______ _____ _____    ______ ____
ROOT
ATOM      1  C   UNL     1      47.473   3.998  15.367  0.00  0.00    +0.000 C 
ENDROOT
BRANCH   1   2
ATOM      2  C   UNL     1      46.822   4.475  14.089  0.00  0.00    +0.000 A 
ATOM      3  C   UNL     1      45.953   3.637  13.375  0.00  0.00    +0.000 A 
ATOM      4  C   UNL     1      45.364   4.066  12.178  0.00  0.00    +0.000 A 
ATOM      5  C   UNL     1      45.643   5.337  11.656  0.00  0.00    +0.000 A 
ATOM      6  C   UNL     1      46.514   6.172  12.368  0.00  0.00    +0.000 A 
ATOM      7  C   UNL     1      47.096   5.747  13.569  0.00  0.00    +0.000 A 
BRANCH   5   8
ATOM      8  C   UNL     1      45.038   5.789  10.349  0.00  0.00    +0.000 C 
BRANCH   8   9
ATOM      9  O   UNL     1      45.702   5.137   9.273  0.00  0.00    +0.000 OA
BRANCH   9  10
ATOM     10  C   UNL     1      44.895   4.119   8.681  0.00  0.00    +0.000 C 
BRANCH  10  11
ATOM     11  C   UNL     1      45.772   3.052   8.089  0.00  0.00    +0.000 A 
ATOM     12  C   UNL     1      46.757   3.339   7.139  0.00  0.00    +0.000 A 
ATOM     13  C   UNL     1      47.558   2.320   6.636  0.00  0.00    +0.000 A 
ATOM     14  C   UNL     1      47.362   1.036   7.116  0.00  0.00    +0.000 A 
ATOM     15  N   UNL     1      46.439   0.717   8.049  0.00  0.00    +0.000 NA
ATOM     16  C   UNL     1      45.671   1.731   8.513  0.00  0.00    +0.000 A 
ENDBRANCH  10  11
ENDBRANCH   9  10
ENDBRANCH   8   9
ENDBRANCH   5   8
ENDBRANCH   1   2
BRANCH   1  19
ATOM     17  C   UNL     1      47.888   4.860  17.649  0.00  0.00    +0.000 C 
ATOM     18  O   UNL     1      48.110   3.730  18.082  0.00  0.00    +0.000 OA
ATOM     19  N   UNL     1      47.576   5.067  16.334  0.00  0.00    +0.000 N 
ATOM     20  H   UNL     1      47.419   6.006  15.996  0.00  0.00    +0.000 HD
BRANCH  17  28
ATOM     21  C   UNL     1      48.745   8.156  17.144  0.00  0.00    +0.000 A 
ATOM     22  N   UNL     1      48.955   9.485  17.203  0.00  0.00    +0.000 NA
ATOM     23  C   UNL     1      48.729  10.105  18.363  0.00  0.00    +0.000 A 
ATOM     24  N   UNL     1      48.330   9.551  19.504  0.00  0.00    +0.000 NA
ATOM     25  C   UNL     1      48.125   8.225  19.402  0.00  0.00    +0.000 A 
ATOM     26  S   UNL     1      47.626   7.343  20.762  0.00  0.00    +0.000 S 
ATOM     27  C   UNL     1      47.580   5.896  19.870  0.00  0.00    +0.000 A 
ATOM     28  C   UNL     1      47.928   6.045  18.531  0.00  0.00    +0.000 A 
ATOM     29  C   UNL     1      48.282   7.439  18.263  0.00  0.00    +0.000 A 
BRANCH  21  31
ATOM     30  C   UNL     1      50.349   7.325  15.661  0.00  0.00    +0.000 C 
ATOM     31  O   UNL     1      48.966   7.519  15.944  0.00  0.00    +0.000 OA
ENDBRANCH  21  31
ENDBRANCH  17  28
ENDBRANCH   1  19
TORSDOF 8
ENDMDL
MODEL 7
REMARK VINA RESULT:    -6.749      2.381      2.999
REMARK INTER + INTRA:         -11.387
REMARK INTER:                 -10.253
REMARK INTRA:                  -1.135
REMARK UNBOUND:                -1.481
REMARK  Name = 
REMARK  9 active torsions:
REMARK  status: ('A' for Active; 'I' for Inactive)
REMARK    1  A    between atoms: C_1  and  O_2
REMARK    2  A    between atoms: O_2  and  C_3
REMARK    3  A    between atoms: C_10  and  C_11
REMARK    4  A    between atoms: N_13  and  C_14
REMARK    5  A    between atoms: C_14  and  C_15
REMARK    6  A    between atoms: C_18  and  C_19
REMARK    7  A    between atoms: C_19  and  O_20
REMARK    8  A    between atoms: O_20  and  C_21
REMARK    9  A    between atoms: C_21  and  C_22
REMARK                            x       y       z     vdW  Elec       q    Type
REMARK                         _______ _______ _______ _____ _____    ______ ____
ROOT
ATOM      1  C   UNL     1      48.907   7.469  15.049  0.00  0.00    +0.000 C 
ENDROOT
BRANCH   1   2
ATOM      2  C   UNL     1      47.940   6.674  14.201  0.00  0.00    +0.000 A 
ATOM      3  C   UNL     1      47.381   5.482  14.685  0.00  0.00    +0.000 A 
ATOM      4  C   UNL     1      46.502   4.729  13.895  0.00  0.00    +0.000 A 
ATOM      5  C   UNL     1      46.174   5.140  12.595  0.00  0.00    +0.000 A 
ATOM      6  C   UNL     1      46.735   6.328  12.111  0.00  0.00    +0.000 A 
ATOM      7  C   UNL     1      47.608   7.086  12.904  0.00  0.00    +0.000 A 
BRANCH   5   8
ATOM      8  C   UNL     1      45.255   4.313  11.729  0.00  0.00    +0.000 C 
BRANCH   8   9
ATOM      9  O   UNL     1      44.969   5.026  10.531  0.00  0.00    +0.000 OA
BRANCH   9  10
ATOM     10  C   UNL     1      44.209   4.245   9.609  0.00  0.00    +0.000 C 
BRANCH  10  11
ATOM     11  C   UNL     1      45.128   3.373   8.801  0.00  0.00    +0.000 A 
ATOM     12  C   UNL     1      45.995   3.897   7.836  0.00  0.00    +0.000 A 
ATOM     13  C   UNL     1      46.841   3.050   7.128  0.00  0.00    +0.000 A 
ATOM     14  C   UNL     1      46.809   1.698   7.421  0.00  0.00    +0.000 A 
ATOM     15  N   UNL     1      46.005   1.152   8.359  0.00  0.00    +0.000 NA
ATOM     16  C   UNL     1      45.189   2.002   9.026  0.00  0.00    +0.000 A 
ENDBRANCH  10  11
ENDBRANCH   9  10
ENDBRANCH   8   9
ENDBRANCH   5   8
ENDBRANCH   1   2
BRANCH   1  19
ATOM     17  C   UNL     1      50.354   6.766  16.929  0.00  0.00    +0.000 C 
ATOM     18  O   UNL     1      49.910   7.653  17.658  0.00  0.00    +0.000 OA
ATOM     19  N   UNL     1      49.908   6.613  15.646  0.00  0.00    +0.000 N 
ATOM     20  H   UNL     1      50.271   5.866  15.073  0.00  0.00    +0.000 HD
BRANCH  17  28
ATOM     21  C   UNL     1      50.514   3.341  17.238  0.00  0.00    +0.000 A 
ATOM     22  N   UNL     1      50.858   2.048  17.393  0.00  0.00    +0.000 NA
ATOM     23  C   UNL     1      52.095   1.775  17.813  0.00  0.00    +0.000 A 
ATOM     24  N   UNL     1      53.048   2.649  18.125  0.00  0.00    +0.000 NA
ATOM     25  C   UNL     1      52.666   3.927  17.951  0.00  0.00    +0.000 A 
ATOM     26  S   UNL     1      53.746   5.184  18.312  0.00  0.00    +0.000 S 
ATOM     27  C   UNL     1      52.612   6.362  17.844  0.00  0.00    +0.000 A 
ATOM     28  C   UNL     1      51.404   5.838  17.397  0.00  0.00    +0.000 A 
ATOM     29  C   UNL     1      51.431   4.378  17.492  0.00  0.00    +0.000 A 
BRANCH  21  31
ATOM     30  C   UNL     1      48.434   2.459  16.638  0.00  0.00    +0.000 C 
ATOM     31  O   UNL     1      49.241   3.622  16.793  0.00  0.00    +0.000 OA
ENDBRANCH  21  31
ENDBRANCH  17  28
ENDBRANCH   1  19
TORSDOF 8
ENDMDL
MODEL 8
REMARK VINA RESULT:    -6.552      3.355      7.899
REMARK INTER + INTRA:         -11.098
REMARK INTER:                  -9.372
REMARK INTRA:                  -1.725
REMARK UNBOUND:                -1.481
REMARK  Name = 
REMARK  9 active torsions:
REMARK  status: ('A' for Active; 'I' for Inactive)
REMARK    1  A    between atoms: C_1  and  O_2
REMARK    2  A    between atoms: O_2  and  C_3
REMARK    3  A    between atoms: C_10  and  C_11
REMARK    4  A    between atoms: N_13  and  C_14
REMARK    5  A    between atoms: C_14  and  C_15
REMARK    6  A    between atoms: C_18  and  C_19
REMARK    7  A    between atoms: C_19  and  O_20
REMARK    8  A    between atoms: O_20  and  C_21
REMARK    9  A    between atoms: C_21  and  C_22
REMARK                            x       y       z     vdW  Elec       q    Type
REMARK                         _______ _______ _______ _____ _____    ______ ____
ROOT
ATOM      1  C   UNL     1      48.574   7.993  11.838  0.00  0.00    +0.000 C 
ENDROOT
BRANCH   1   2
ATOM      2  C   UNL     1      48.622   7.997  13.349  0.00  0.00    +0.000 A 
ATOM      3  C   UNL     1      49.351   7.019  14.041  0.00  0.00    +0.000 A 
ATOM      4  C   UNL     1      49.380   7.004  15.442  0.00  0.00    +0.000 A 
ATOM      5  C   UNL     1      48.668   7.956  16.186  0.00  0.00    +0.000 A 
ATOM      6  C   UNL     1      47.938   8.930  15.494  0.00  0.00    +0.000 A 
ATOM      7  C   UNL     1      47.915   8.951  14.093  0.00  0.00    +0.000 A 
BRANCH   5   8
ATOM      8  C   UNL     1      48.670   7.921  17.695  0.00  0.00    +0.000 C 
BRANCH   8   9
ATOM      9  O   UNL     1      49.604   6.945  18.142  0.00  0.00    +0.000 OA
BRANCH   9  10
ATOM     10  C   UNL     1      49.004   5.988  19.016  0.00  0.00    +0.000 C 
BRANCH  10  11
ATOM     11  C   UNL     1      48.620   4.760  18.241  0.00  0.00    +0.000 A 
ATOM     12  C   UNL     1      49.569   3.838  17.786  0.00  0.00    +0.000 A 
ATOM     13  C   UNL     1      49.162   2.705  17.091  0.00  0.00    +0.000 A 
ATOM     14  C   UNL     1      47.806   2.517  16.884  0.00  0.00    +0.000 A 
ATOM     15  N   UNL     1      46.854   3.367  17.324  0.00  0.00    +0.000 NA
ATOM     16  C   UNL     1      47.284   4.464  17.992  0.00  0.00    +0.000 A 
ENDBRANCH  10  11
ENDBRANCH   9  10
ENDBRANCH   8   9
ENDBRANCH   5   8
ENDBRANCH   1   2
BRANCH   1  19
ATOM     17  C   UNL     1      46.409   6.952  11.243  0.00  0.00    +0.000 C 
ATOM     18  O   UNL     1      45.786   7.961  11.570  0.00  0.00    +0.000 OA
ATOM     19  N   UNL     1      47.771   6.898  11.341  0.00  0.00    +0.000 N 
ATOM     20  H   UNL     1      48.264   6.067  11.047  0.00  0.00    +0.000 HD
BRANCH  17  28
ATOM     21  C   UNL     1      44.648   4.434  12.793  0.00  0.00    +0.000 A 
ATOM     22  N   UNL     1      43.874   3.384  13.132  0.00  0.00    +0.000 NA
ATOM     23  C   UNL     1      43.421   2.597  12.154  0.00  0.00    +0.000 A 
ATOM     24  N   UNL     1      43.666   2.715  10.852  0.00  0.00    +0.000 NA
ATOM     25  C   UNL     1      44.436   3.777  10.555  0.00  0.00    +0.000 A 
ATOM     26  S   UNL     1      44.865   4.080   8.943  0.00  0.00    +0.000 S 
ATOM     27  C   UNL     1      45.737   5.473   9.383  0.00  0.00    +0.000 A 
ATOM     28  C   UNL     1      45.716   5.746  10.747  0.00  0.00    +0.000 A 
ATOM     29  C   UNL     1      44.959   4.708  11.449  0.00  0.00    +0.000 A 
BRANCH  21  31
ATOM     30  C   UNL     1      46.408   4.905  14.257  0.00  0.00    +0.000 C 
ATOM     31  O   UNL     1      45.104   5.253  13.802  0.00  0.00    +0.000 OA
ENDBRANCH  21  31
ENDBRANCH  17  28
ENDBRANCH   1  19
TORSDOF 8
ENDMDL
MODEL 9
REMARK VINA RESULT:    -6.500      2.587      3.957
REMARK INTER + INTRA:         -11.021
REMARK INTER:                 -10.005
REMARK INTRA:                  -1.016
REMARK UNBOUND:                -1.481
REMARK  Name = 
REMARK  9 active torsions:
REMARK  status: ('A' for Active; 'I' for Inactive)
REMARK    1  A    between atoms: C_1  and  O_2
REMARK    2  A    between atoms: O_2  and  C_3
REMARK    3  A    between atoms: C_10  and  C_11
REMARK    4  A    between atoms: N_13  and  C_14
REMARK    5  A    between atoms: C_14  and  C_15
REMARK    6  A    between atoms: C_18  and  C_19
REMARK    7  A    between atoms: C_19  and  O_20
REMARK    8  A    between atoms: O_20  and  C_21
REMARK    9  A    between atoms: C_21  and  C_22
REMARK                            x       y       z     vdW  Elec       q    Type
REMARK                         _______ _______ _______ _____ _____    ______ ____
ROOT
ATOM      1  C   UNL     1      47.488   4.853  14.841  0.00  0.00    +0.000 C 
ENDROOT
BRANCH   1   2
ATOM      2  C   UNL     1      46.522   4.818  13.679  0.00  0.00    +0.000 A 
ATOM      3  C   UNL     1      46.105   6.006  13.062  0.00  0.00    +0.000 A 
ATOM      4  C   UNL     1      45.192   5.982  11.999  0.00  0.00    +0.000 A 
ATOM      5  C   UNL     1      44.660   4.769  11.538  0.00  0.00    +0.000 A 
ATOM      6  C   UNL     1      45.074   3.583  12.156  0.00  0.00    +0.000 A 
ATOM      7  C   UNL     1      45.994   3.606  13.214  0.00  0.00    +0.000 A 
BRANCH   5   8
ATOM      8  C   UNL     1      43.650   4.742  10.416  0.00  0.00    +0.000 C 
BRANCH   8   9
ATOM      9  O   UNL     1      44.046   3.775   9.450  0.00  0.00    +0.000 OA
BRANCH   9  10
ATOM     10  C   UNL     1      45.029   4.287   8.549  0.00  0.00    +0.000 C 
BRANCH  10  11
ATOM     11  C   UNL     1      45.814   3.153   7.952  0.00  0.00    +0.000 A 
ATOM     12  C   UNL     1      46.642   3.325   6.839  0.00  0.00    +0.000 A 
ATOM     13  C   UNL     1      47.364   2.248   6.336  0.00  0.00    +0.000 A 
ATOM     14  C   UNL     1      47.250   1.027   6.977  0.00  0.00    +0.000 A 
ATOM     15  N   UNL     1      46.480   0.820   8.067  0.00  0.00    +0.000 NA
ATOM     16  C   UNL     1      45.785   1.887   8.528  0.00  0.00    +0.000 A 
ENDBRANCH  10  11
ENDBRANCH   9  10
ENDBRANCH   8   9
ENDBRANCH   5   8
ENDBRANCH   1   2
BRANCH   1  19
ATOM     17  C   UNL     1      48.889   6.497  16.049  0.00  0.00    +0.000 C 
ATOM     18  O   UNL     1      49.333   5.630  16.800  0.00  0.00    +0.000 OA
ATOM     19  N   UNL     1      47.989   6.190  15.066  0.00  0.00    +0.000 N 
ATOM     20  H   UNL     1      47.653   6.914  14.448  0.00  0.00    +0.000 HD
BRANCH  17  28
ATOM     21  C   UNL     1      51.926   8.114  15.945  0.00  0.00    +0.000 A 
ATOM     22  N   UNL     1      52.953   8.984  15.884  0.00  0.00    +0.000 NA
ATOM     23  C   UNL     1      52.680  10.285  16.004  0.00  0.00    +0.000 A 
ATOM     24  N   UNL     1      51.488  10.840  16.204  0.00  0.00    +0.000 NA
ATOM     25  C   UNL     1      50.490   9.938  16.253  0.00  0.00    +0.000 A 
ATOM     26  S   UNL     1      48.897  10.460  16.514  0.00  0.00    +0.000 S 
ATOM     27  C   UNL     1      48.307   8.867  16.424  0.00  0.00    +0.000 A 
ATOM     28  C   UNL     1      49.289   7.912  16.184  0.00  0.00    +0.000 A 
ATOM     29  C   UNL     1      50.601   8.557  16.112  0.00  0.00    +0.000 A 
BRANCH  21  31
ATOM     30  C   UNL     1      52.796   6.204  16.973  0.00  0.00    +0.000 C 
ATOM     31  O   UNL     1      52.206   6.773  15.808  0.00  0.00    +0.000 OA
ENDBRANCH  21  31
ENDBRANCH  17  28
ENDBRANCH   1  19
TORSDOF 8
ENDMDL
