MODEL 1
REMARK VINA RESULT:    -7.131      0.000      0.000
REMARK INTER + INTRA:          -8.830
REMARK INTER:                  -8.382
REMARK INTRA:                  -0.448
REMARK UNBOUND:                -0.448
REMARK  Name = 
REMARK  6 active torsions:
REMARK  status: ('A' for Active; 'I' for Inactive)
REMARK    1  A    between atoms: C_1  and  C_2
REMARK    2  A    between atoms: C_2  and  C_3
REMARK    3  A    between atoms: C_2  and  C_4
REMARK    4  A    between atoms: C_2  and  C_5
REMARK    5  A    between atoms: N_7  and  C_8
REMARK    6  A    between atoms: C_8  and  C_9
REMARK                            x       y       z     vdW  Elec       q    Type
REMARK                         _______ _______ _______ _____ _____    ______ ____
ROOT
ATOM      1  C   UNL     1      46.063   5.879  11.381  0.00  0.00    +0.000 A 
ATOM      2  C   UNL     1      46.016   5.788  10.000  0.00  0.00    +0.000 A 
ATOM      3  N   UNL     1      45.167   4.774   9.640  0.00  0.00    +0.000 N 
ATOM      4  C   UNL     1      44.598   4.215  10.763  0.00  0.00    +0.000 A 
ATOM      5  C   UNL     1      43.668   3.168  10.900  0.00  0.00    +0.000 A 
ATOM      6  C   UNL     1      43.272   2.796  12.187  0.00  0.00    +0.000 A 
ATOM      7  C   UNL     1      43.785   3.445  13.303  0.00  0.00    +0.000 A 
ATOM      8  C   UNL     1      44.711   4.484  13.156  0.00  0.00    +0.000 A 
ATOM      9  C   UNL     1      45.133   4.887  11.869  0.00  0.00    +0.000 A 
ENDROOT
BRANCH   1  11
ATOM     10  C   UNL     1      47.670   6.062  13.343  0.00  0.00    +0.000 C 
ATOM     11  C   UNL     1      46.954   6.818  12.198  0.00  0.00    +0.000 C 
ATOM     12  C   UNL     1      46.103   7.931  12.846  0.00  0.00    +0.000 C 
ATOM     13  C   UNL     1      48.050   7.460  11.325  0.00  0.00    +0.000 C 
ENDBRANCH   1  11
BRANCH   3  14
ATOM     14  C   UNL     1      44.985   4.317   8.266  0.00  0.00    +0.000 C 
BRANCH  14  15
ATOM     15  C   UNL     1      45.902   3.191   7.921  0.00  0.00    +0.000 A 
ATOM     16  C   UNL     1      47.025   3.350   7.130  0.00  0.00    +0.000 A 
ATOM     17  N   UNL     1      47.858   2.347   6.797  0.00  0.00    +0.000 NA
ATOM     18  C   UNL     1      47.536   1.138   7.281  0.00  0.00    +0.000 A 
ATOM     19  N   UNL     1      46.492   0.862   8.077  0.00  0.00    +0.000 NA
ATOM     20  C   UNL     1      45.695   1.904   8.378  0.00  0.00    +0.000 A 
ENDBRANCH  14  15
ENDBRANCH   3  14
TORSDOF 3
ENDMDL
MODEL 2
REMARK VINA RESULT:    -6.240      1.504      2.568
REMARK INTER + INTRA:          -7.782
REMARK INTER:                  -7.305
REMARK INTRA:                  -0.477
REMARK UNBOUND:                -0.448
REMARK  Name = 
REMARK  6 active torsions:
REMARK  status: ('A' for Active; 'I' for Inactive)
REMARK    1  A    between atoms: C_1  and  C_2
REMARK    2  A    between atoms: C_2  and  C_3
REMARK    3  A    between atoms: C_2  and  C_4
REMARK    4  A    between atoms: C_2  and  C_5
REMARK    5  A    between atoms: N_7  and  C_8
REMARK    6  A    between atoms: C_8  and  C_9
REMARK                            x       y       z     vdW  Elec       q    Type
REMARK                         _______ _______ _______ _____ _____    ______ ____
ROOT
ATOM      1  C   UNL     1      46.173   7.156  12.229  0.00  0.00    +0.000 A 
ATOM      2  C   UNL     1      45.209   6.799  11.302  0.00  0.00    +0.000 A 
ATOM      3  N   UNL     1      44.995   5.446  11.366  0.00  0.00    +0.000 N 
ATOM      4  C   UNL     1      45.766   4.894  12.365  0.00  0.00    +0.000 A 
ATOM      5  C   UNL     1      45.881   3.565  12.812  0.00  0.00    +0.000 A 
ATOM      6  C   UNL     1      46.770   3.290  13.853  0.00  0.00    +0.000 A 
ATOM      7  C   UNL     1      47.522   4.304  14.432  0.00  0.00    +0.000 A 
ATOM      8  C   UNL     1      47.402   5.622  13.979  0.00  0.00    +0.000 A 
ATOM      9  C   UNL     1      46.512   5.938  12.928  0.00  0.00    +0.000 A 
ENDROOT
BRANCH   1  11
ATOM     10  C   UNL     1      46.978   8.872  13.925  0.00  0.00    +0.000 C 
ATOM     11  C   UNL     1      46.770   8.551  12.424  0.00  0.00    +0.000 C 
ATOM     12  C   UNL     1      45.815   9.623  11.856  0.00  0.00    +0.000 C 
ATOM     13  C   UNL     1      48.144   8.681  11.739  0.00  0.00    +0.000 C 
ENDBRANCH   1  11
BRANCH   3  14
ATOM     14  C   UNL     1      44.139   4.715  10.437  0.00  0.00    +0.000 C 
BRANCH  14  15
ATOM     15  C   UNL     1      44.927   3.963   9.418  0.00  0.00    +0.000 A 
ATOM     16  C   UNL     1      44.992   2.582   9.386  0.00  0.00    +0.000 A 
ATOM     17  N   UNL     1      45.705   1.884   8.484  0.00  0.00    +0.000 NA
ATOM     18  C   UNL     1      46.381   2.615   7.584  0.00  0.00    +0.000 A 
ATOM     19  N   UNL     1      46.376   3.953   7.495  0.00  0.00    +0.000 NA
ATOM     20  C   UNL     1      45.644   4.598   8.423  0.00  0.00    +0.000 A 
ENDBRANCH  14  15
ENDBRANCH   3  14
TORSDOF 3
ENDMDL
MODEL 3
REMARK VINA RESULT:    -5.757      1.864      3.708
REMARK INTER + INTRA:          -7.215
REMARK INTER:                  -6.922
REMARK INTRA:                  -0.293
REMARK UNBOUND:                -0.448
REMARK  Name = 
REMARK  6 active torsions:
REMARK  status: ('A' for Active; 'I' for Inactive)
REMARK    1  A    between atoms: C_1  and  C_2
REMARK    2  A    between atoms: C_2  and  C_3
REMARK    3  A    between atoms: C_2  and  C_4
REMARK    4  A    between atoms: C_2  and  C_5
REMARK    5  A    between atoms: N_7  and  C_8
REMARK    6  A    between atoms: C_8  and  C_9
REMARK                            x       y       z     vdW  Elec       q    Type
REMARK                         _______ _______ _______ _____ _____    ______ ____
ROOT
ATOM      1  C   UNL     1      46.858   7.117  12.840  0.00  0.00    +0.000 A 
ATOM      2  C   UNL     1      46.341   5.888  12.465  0.00  0.00    +0.000 A 
ATOM      3  N   UNL     1      45.177   6.078  11.766  0.00  0.00    +0.000 N 
ATOM      4  C   UNL     1      44.931   7.426  11.618  0.00  0.00    +0.000 A 
ATOM      5  C   UNL     1      43.882   8.106  10.974  0.00  0.00    +0.000 A 
ATOM      6  C   UNL     1      43.883   9.502  10.995  0.00  0.00    +0.000 A 
ATOM      7  C   UNL     1      44.897  10.201  11.637  0.00  0.00    +0.000 A 
ATOM      8  C   UNL     1      45.936   9.516  12.276  0.00  0.00    +0.000 A 
ATOM      9  C   UNL     1      45.968   8.103  12.274  0.00  0.00    +0.000 A 
ENDROOT
BRANCH   1  11
ATOM     10  C   UNL     1      48.007   8.700  14.465  0.00  0.00    +0.000 C 
ATOM     11  C   UNL     1      48.095   7.352  13.709  0.00  0.00    +0.000 C 
ATOM     12  C   UNL     1      49.362   7.404  12.829  0.00  0.00    +0.000 C 
ATOM     13  C   UNL     1      48.260   6.247  14.771  0.00  0.00    +0.000 C 
ENDBRANCH   1  11
BRANCH   3  14
ATOM     14  C   UNL     1      44.301   4.993  11.336  0.00  0.00    +0.000 C 
BRANCH  14  15
ATOM     15  C   UNL     1      44.839   4.275  10.143  0.00  0.00    +0.000 A 
ATOM     16  C   UNL     1      45.468   4.922   9.095  0.00  0.00    +0.000 A 
ATOM     17  N   UNL     1      45.950   4.296   8.006  0.00  0.00    +0.000 NA
ATOM     18  C   UNL     1      45.782   2.965   7.977  0.00  0.00    +0.000 A 
ATOM     19  N   UNL     1      45.213   2.224   8.939  0.00  0.00    +0.000 NA
ATOM     20  C   UNL     1      44.752   2.903  10.006  0.00  0.00    +0.000 A 
ENDBRANCH  14  15
ENDBRANCH   3  14
TORSDOF 3
ENDMDL
MODEL 4
REMARK VINA RESULT:    -5.727      3.235      5.820
REMARK INTER + INTRA:          -7.180
REMARK INTER:                  -6.624
REMARK INTRA:                  -0.556
REMARK UNBOUND:                -0.448
REMARK  Name = 
REMARK  6 active torsions:
REMARK  status: ('A' for Active; 'I' for Inactive)
REMARK    1  A    between atoms: C_1  and  C_2
REMARK    2  A    between atoms: C_2  and  C_3
REMARK    3  A    between atoms: C_2  and  C_4
REMARK    4  A    between atoms: C_2  and  C_5
REMARK    5  A    between atoms: N_7  and  C_8
REMARK    6  A    between atoms: C_8  and  C_9
REMARK                            x       y       z     vdW  Elec       q    Type
REMARK                         _______ _______ _______ _____ _____    ______ ____
ROOT
ATOM      1  C   UNL     1      47.596   4.520  15.664  0.00  0.00    +0.000 A 
ATOM      2  C   UNL     1      46.957   3.600  14.851  0.00  0.00    +0.000 A 
ATOM      3  N   UNL     1      46.764   4.147  13.609  0.00  0.00    +0.000 N 
ATOM      4  C   UNL     1      47.315   5.409  13.559  0.00  0.00    +0.000 A 
ATOM      5  C   UNL     1      47.380   6.346  12.512  0.00  0.00    +0.000 A 
ATOM      6  C   UNL     1      48.000   7.573  12.756  0.00  0.00    +0.000 A 
ATOM      7  C   UNL     1      48.539   7.860  14.003  0.00  0.00    +0.000 A 
ATOM      8  C   UNL     1      48.468   6.923  15.039  0.00  0.00    +0.000 A 
ATOM      9  C   UNL     1      47.849   5.670  14.828  0.00  0.00    +0.000 A 
ENDROOT
BRANCH   1  11
ATOM     10  C   UNL     1      49.435   4.506  17.420  0.00  0.00    +0.000 C 
ATOM     11  C   UNL     1      47.919   4.345  17.149  0.00  0.00    +0.000 C 
ATOM     12  C   UNL     1      47.519   2.930  17.619  0.00  0.00    +0.000 C 
ATOM     13  C   UNL     1      47.192   5.392  18.014  0.00  0.00    +0.000 C 
ENDBRANCH   1  11
BRANCH   3  14
ATOM     14  C   UNL     1      46.001   3.501  12.545  0.00  0.00    +0.000 C 
BRANCH  14  15
ATOM     15  C   UNL     1      44.719   4.209  12.261  0.00  0.00    +0.000 A 
ATOM     16  C   UNL     1      43.784   4.495  13.239  0.00  0.00    +0.000 A 
ATOM     17  N   UNL     1      42.618   5.123  13.003  0.00  0.00    +0.000 NA
ATOM     18  C   UNL     1      42.389   5.467  11.727  0.00  0.00    +0.000 A 
ATOM     19  N   UNL     1      43.226   5.269  10.697  0.00  0.00    +0.000 NA
ATOM     20  C   UNL     1      44.378   4.639  10.993  0.00  0.00    +0.000 A 
ENDBRANCH  14  15
ENDBRANCH   3  14
TORSDOF 3
ENDMDL
MODEL 5
REMARK VINA RESULT:    -5.701      4.011      6.234
REMARK INTER + INTRA:          -7.149
REMARK INTER:                  -6.570
REMARK INTRA:                  -0.579
REMARK UNBOUND:                -0.448
REMARK  Name = 
REMARK  6 active torsions:
REMARK  status: ('A' for Active; 'I' for Inactive)
REMARK    1  A    between atoms: C_1  and  C_2
REMARK    2  A    between atoms: C_2  and  C_3
REMARK    3  A    between atoms: C_2  and  C_4
REMARK    4  A    between atoms: C_2  and  C_5
REMARK    5  A    between atoms: N_7  and  C_8
REMARK    6  A    between atoms: C_8  and  C_9
REMARK                            x       y       z     vdW  Elec       q    Type
REMARK                         _______ _______ _______ _____ _____    ______ ____
ROOT
ATOM      1  C   UNL     1      48.130   6.836  13.303  0.00  0.00    +0.000 A 
ATOM      2  C   UNL     1      48.237   6.253  14.554  0.00  0.00    +0.000 A 
ATOM      3  N   UNL     1      47.247   5.317  14.706  0.00  0.00    +0.000 N 
ATOM      4  C   UNL     1      46.505   5.224  13.548  0.00  0.00    +0.000 A 
ATOM      5  C   UNL     1      45.407   4.408  13.221  0.00  0.00    +0.000 A 
ATOM      6  C   UNL     1      44.836   4.541  11.953  0.00  0.00    +0.000 A 
ATOM      7  C   UNL     1      45.341   5.457  11.040  0.00  0.00    +0.000 A 
ATOM      8  C   UNL     1      46.432   6.266  11.375  0.00  0.00    +0.000 A 
ATOM      9  C   UNL     1      47.036   6.158  12.649  0.00  0.00    +0.000 A 
ENDROOT
BRANCH   1  11
ATOM     10  C   UNL     1      49.753   7.572  11.488  0.00  0.00    +0.000 C 
ATOM     11  C   UNL     1      48.982   7.988  12.765  0.00  0.00    +0.000 C 
ATOM     12  C   UNL     1      50.032   8.410  13.815  0.00  0.00    +0.000 C 
ATOM     13  C   UNL     1      48.116   9.207  12.394  0.00  0.00    +0.000 C 
ENDBRANCH   1  11
BRANCH   3  14
ATOM     14  C   UNL     1      46.985   4.607  15.954  0.00  0.00    +0.000 C 
BRANCH  14  15
ATOM     15  C   UNL     1      48.149   3.780  16.387  0.00  0.00    +0.000 A 
ATOM     16  C   UNL     1      49.070   4.210  17.324  0.00  0.00    +0.000 A 
ATOM     17  N   UNL     1      50.133   3.487  17.720  0.00  0.00    +0.000 NA
ATOM     18  C   UNL     1      50.268   2.284  17.140  0.00  0.00    +0.000 A 
ATOM     19  N   UNL     1      49.431   1.747  16.241  0.00  0.00    +0.000 NA
ATOM     20  C   UNL     1      48.385   2.515  15.884  0.00  0.00    +0.000 A 
ENDBRANCH  14  15
ENDBRANCH   3  14
TORSDOF 3
ENDMDL
MODEL 6
REMARK VINA RESULT:    -5.698      3.117      5.258
REMARK INTER + INTRA:          -7.145
REMARK INTER:                  -6.541
REMARK INTRA:                  -0.604
REMARK UNBOUND:                -0.448
REMARK  Name = 
REMARK  6 active torsions:
REMARK  status: ('A' for Active; 'I' for Inactive)
REMARK    1  A    between atoms: C_1  and  C_2
REMARK    2  A    between atoms: C_2  and  C_3
REMARK    3  A    between atoms: C_2  and  C_4
REMARK    4  A    between atoms: C_2  and  C_5
REMARK    5  A    between atoms: N_7  and  C_8
REMARK    6  A    between atoms: C_8  and  C_9
REMARK                            x       y       z     vdW  Elec       q    Type
REMARK                         _______ _______ _______ _____ _____    ______ ____
ROOT
ATOM      1  C   UNL     1      48.217   6.688  13.901  0.00  0.00    +0.000 A 
ATOM      2  C   UNL     1      47.423   5.930  13.057  0.00  0.00    +0.000 A 
ATOM      3  N   UNL     1      46.957   4.833  13.734  0.00  0.00    +0.000 N 
ATOM      4  C   UNL     1      47.384   4.871  15.044  0.00  0.00    +0.000 A 
ATOM      5  C   UNL     1      47.157   3.987  16.113  0.00  0.00    +0.000 A 
ATOM      6  C   UNL     1      47.738   4.277  17.350  0.00  0.00    +0.000 A 
ATOM      7  C   UNL     1      48.521   5.411  17.517  0.00  0.00    +0.000 A 
ATOM      8  C   UNL     1      48.744   6.284  16.447  0.00  0.00    +0.000 A 
ATOM      9  C   UNL     1      48.171   6.023  15.182  0.00  0.00    +0.000 A 
ENDROOT
BRANCH   1  11
ATOM     10  C   UNL     1      48.391   9.212  14.166  0.00  0.00    +0.000 C 
ATOM     11  C   UNL     1      49.002   7.945  13.519  0.00  0.00    +0.000 C 
ATOM     12  C   UNL     1      48.968   8.151  11.990  0.00  0.00    +0.000 C 
ATOM     13  C   UNL     1      50.468   7.860  13.987  0.00  0.00    +0.000 C 
ENDBRANCH   1  11
BRANCH   3  14
ATOM     14  C   UNL     1      46.200   3.754  13.109  0.00  0.00    +0.000 C 
BRANCH  14  15
ATOM     15  C   UNL     1      44.913   4.233  12.525  0.00  0.00    +0.000 A 
ATOM     16  C   UNL     1      44.678   4.286  11.163  0.00  0.00    +0.000 A 
ATOM     17  N   UNL     1      43.531   4.725  10.615  0.00  0.00    +0.000 NA
ATOM     18  C   UNL     1      42.589   5.130  11.481  0.00  0.00    +0.000 A 
ATOM     19  N   UNL     1      42.687   5.103  12.819  0.00  0.00    +0.000 NA
ATOM     20  C   UNL     1      43.856   4.652  13.310  0.00  0.00    +0.000 A 
ENDBRANCH  14  15
ENDBRANCH   3  14
TORSDOF 3
ENDMDL
MODEL 7
REMARK VINA RESULT:    -5.577      3.423      6.799
REMARK INTER + INTRA:          -7.003
REMARK INTER:                  -6.534
REMARK INTRA:                  -0.470
REMARK UNBOUND:                -0.448
REMARK  Name = 
REMARK  6 active torsions:
REMARK  status: ('A' for Active; 'I' for Inactive)
REMARK    1  A    between atoms: C_1  and  C_2
REMARK    2  A    between atoms: C_2  and  C_3
REMARK    3  A    between atoms: C_2  and  C_4
REMARK    4  A    between atoms: C_2  and  C_5
REMARK    5  A    between atoms: N_7  and  C_8
REMARK    6  A    between atoms: C_8  and  C_9
REMARK                            x       y       z     vdW  Elec       q    Type
REMARK                         _______ _______ _______ _____ _____    ______ ____
ROOT
ATOM      1  C   UNL     1      44.844   5.273  12.200  0.00  0.00    +0.000 A 
ATOM      2  C   UNL     1      45.828   4.633  12.933  0.00  0.00    +0.000 A 
ATOM      3  N   UNL     1      46.766   5.549  13.334  0.00  0.00    +0.000 N 
ATOM      4  C   UNL     1      46.396   6.811  12.925  0.00  0.00    +0.000 A 
ATOM      5  C   UNL     1      47.021   8.058  13.106  0.00  0.00    +0.000 A 
ATOM      6  C   UNL     1      46.413   9.191  12.559  0.00  0.00    +0.000 A 
ATOM      7  C   UNL     1      45.222   9.087  11.854  0.00  0.00    +0.000 A 
ATOM      8  C   UNL     1      44.609   7.842  11.676  0.00  0.00    +0.000 A 
ATOM      9  C   UNL     1      45.195   6.674  12.217  0.00  0.00    +0.000 A 
ENDROOT
BRANCH   1  11
ATOM     10  C   UNL     1      43.451   3.156  11.992  0.00  0.00    +0.000 C 
ATOM     11  C   UNL     1      43.661   4.606  11.494  0.00  0.00    +0.000 C 
ATOM     12  C   UNL     1      43.921   4.534   9.973  0.00  0.00    +0.000 C 
ATOM     13  C   UNL     1      42.346   5.368  11.749  0.00  0.00    +0.000 C 
ENDBRANCH   1  11
BRANCH   3  14
ATOM     14  C   UNL     1      48.009   5.195  14.012  0.00  0.00    +0.000 C 
BRANCH  14  15
ATOM     15  C   UNL     1      47.838   5.109  15.492  0.00  0.00    +0.000 A 
ATOM     16  C   UNL     1      48.398   6.021  16.368  0.00  0.00    +0.000 A 
ATOM     17  N   UNL     1      48.267   5.957  17.705  0.00  0.00    +0.000 NA
ATOM     18  C   UNL     1      47.545   4.926  18.171  0.00  0.00    +0.000 A 
ATOM     19  N   UNL     1      46.933   3.995  17.424  0.00  0.00    +0.000 NA
ATOM     20  C   UNL     1      47.097   4.111  16.094  0.00  0.00    +0.000 A 
ENDBRANCH  14  15
ENDBRANCH   3  14
TORSDOF 3
ENDMDL
MODEL 8
REMARK VINA RESULT:    -5.396      3.616      6.545
REMARK INTER + INTRA:          -6.791
REMARK INTER:                  -6.442
REMARK INTRA:                  -0.349
REMARK UNBOUND:                -0.448
REMARK  Name = 
REMARK  6 active torsions:
REMARK  status: ('A' for Active; 'I' for Inactive)
REMARK    1  A    between atoms: C_1  and  C_2
REMARK    2  A    between atoms: C_2  and  C_3
REMARK    3  A    between atoms: C_2  and  C_4
REMARK    4  A    between atoms: C_2  and  C_5
REMARK    5  A    between atoms: N_7  and  C_8
REMARK    6  A    between atoms: C_8  and  C_9
REMARK                            x       y       z     vdW  Elec       q    Type
REMARK                         _______ _______ _______ _____ _____    ______ ____
ROOT
ATOM      1  C   UNL     1      48.163   5.235  16.121  0.00  0.00    +0.000 A 
ATOM      2  C   UNL     1      47.452   4.893  14.983  0.00  0.00    +0.000 A 
ATOM      3  N   UNL     1      47.665   5.838  14.012  0.00  0.00    +0.000 N 
ATOM      4  C   UNL     1      48.556   6.786  14.465  0.00  0.00    +0.000 A 
ATOM      5  C   UNL     1      49.086   7.927  13.836  0.00  0.00    +0.000 A 
ATOM      6  C   UNL     1      49.976   8.729  14.556  0.00  0.00    +0.000 A 
ATOM      7  C   UNL     1      50.327   8.406  15.860  0.00  0.00    +0.000 A 
ATOM      8  C   UNL     1      49.793   7.270  16.477  0.00  0.00    +0.000 A 
ATOM      9  C   UNL     1      48.891   6.435  15.780  0.00  0.00    +0.000 A 
ENDROOT
BRANCH   1  11
ATOM     10  C   UNL     1      47.246   3.233  17.393  0.00  0.00    +0.000 C 
ATOM     11  C   UNL     1      48.133   4.500  17.462  0.00  0.00    +0.000 C 
ATOM     12  C   UNL     1      47.541   5.413  18.557  0.00  0.00    +0.000 C 
ATOM     13  C   UNL     1      49.541   4.044  17.889  0.00  0.00    +0.000 C 
ENDBRANCH   1  11
BRANCH   3  14
ATOM     14  C   UNL     1      46.965   5.859  12.732  0.00  0.00    +0.000 C 
BRANCH  14  15
ATOM     15  C   UNL     1      45.646   5.164  12.799  0.00  0.00    +0.000 A 
ATOM     16  C   UNL     1      45.497   3.809  12.569  0.00  0.00    +0.000 A 
ATOM     17  N   UNL     1      44.317   3.165  12.613  0.00  0.00    +0.000 NA
ATOM     18  C   UNL     1      43.248   3.925  12.897  0.00  0.00    +0.000 A 
ATOM     19  N   UNL     1      43.268   5.239  13.165  0.00  0.00    +0.000 NA
ATOM     20  C   UNL     1      44.476   5.830  13.108  0.00  0.00    +0.000 A 
ENDBRANCH  14  15
ENDBRANCH   3  14
TORSDOF 3
ENDMDL
MODEL 9
REMARK VINA RESULT:    -5.277      3.633      7.292
REMARK INTER + INTRA:          -6.650
REMARK INTER:                  -5.982
REMARK INTRA:                  -0.668
REMARK UNBOUND:                -0.448
REMARK  Name = 
REMARK  6 active torsions:
REMARK  status: ('A' for Active; 'I' for Inactive)
REMARK    1  A    between atoms: C_1  and  C_2
REMARK    2  A    between atoms: C_2  and  C_3
REMARK    3  A    between atoms: C_2  and  C_4
REMARK    4  A    between atoms: C_2  and  C_5
REMARK    5  A    between atoms: N_7  and  C_8
REMARK    6  A    between atoms: C_8  and  C_9
REMARK                            x       y       z     vdW  Elec       q    Type
REMARK                         _______ _______ _______ _____ _____    ______ ____
ROOT
ATOM      1  C   UNL     1      45.632   5.809  12.335  0.00  0.00    +0.000 A 
ATOM      2  C   UNL     1      46.809   5.629  13.041  0.00  0.00    +0.000 A 
ATOM      3  N   UNL     1      47.431   6.840  13.206  0.00  0.00    +0.000 N 
ATOM      4  C   UNL     1      46.658   7.844  12.665  0.00  0.00    +0.000 A 
ATOM      5  C   UNL     1      46.866   9.233  12.599  0.00  0.00    +0.000 A 
ATOM      6  C   UNL     1      45.901  10.020  11.966  0.00  0.00    +0.000 A 
ATOM      7  C   UNL     1      44.765   9.443  11.414  0.00  0.00    +0.000 A 
ATOM      8  C   UNL     1      44.568   8.060  11.482  0.00  0.00    +0.000 A 
ATOM      9  C   UNL     1      45.523   7.232  12.116  0.00  0.00    +0.000 A 
ENDROOT
BRANCH   1  11
ATOM     10  C   UNL     1      45.183   3.306  12.292  0.00  0.00    +0.000 C 
ATOM     11  C   UNL     1      44.683   4.707  11.861  0.00  0.00    +0.000 C 
ATOM     12  C   UNL     1      44.593   4.706  10.320  0.00  0.00    +0.000 C 
ATOM     13  C   UNL     1      43.270   4.884  12.451  0.00  0.00    +0.000 C 
ENDBRANCH   1  11
BRANCH   3  14
ATOM     14  C   UNL     1      48.759   6.998  13.790  0.00  0.00    +0.000 C 
BRANCH  14  15
ATOM     15  C   UNL     1      48.705   7.196  15.268  0.00  0.00    +0.000 A 
ATOM     16  C   UNL     1      48.761   6.149  16.170  0.00  0.00    +0.000 A 
ATOM     17  N   UNL     1      48.702   6.303  17.505  0.00  0.00    +0.000 NA
ATOM     18  C   UNL     1      48.576   7.565  17.940  0.00  0.00    +0.000 A 
ATOM     19  N   UNL     1      48.537   8.662  17.170  0.00  0.00    +0.000 NA
ATOM     20  C   UNL     1      48.603   8.447  15.843  0.00  0.00    +0.000 A 
ENDBRANCH  14  15
ENDBRANCH   3  14
TORSDOF 3
ENDMDL
