MODEL 1
REMARK VINA RESULT:    -7.728      0.000      0.000
REMARK INTER + INTRA:         -10.521
REMARK INTER:                  -9.761
REMARK INTRA:                  -0.760
REMARK UNBOUND:                -0.760
REMARK  Name = 
REMARK  5 active torsions:
REMARK  status: ('A' for Active; 'I' for Inactive)
REMARK    1  A    between atoms: N_1  and  C_2
REMARK    2  A    between atoms: C_2  and  C_3
REMARK    3  A    between atoms: C_3  and  C_4
REMARK    4  A    between atoms: C_7  and  C_8
REMARK    5  A    between atoms: C_8  and  N_9
REMARK                            x       y       z     vdW  Elec       q    Type
REMARK                         _______ _______ _______ _____ _____    ______ ____
ROOT
ATOM      1  C   UNL     1      46.119   2.533   7.828  0.00  0.00    +0.000 A 
ATOM      2  C   UNL     1      46.308   3.919   7.771  0.00  0.00    +0.000 A 
ATOM      3  C   UNL     1      45.698   4.761   8.707  0.00  0.00    +0.000 A 
ATOM      4  C   UNL     1      44.876   4.232   9.712  0.00  0.00    +0.000 A 
ATOM      5  C   UNL     1      44.671   2.852   9.739  0.00  0.00    +0.000 A 
ATOM      6  F   UNL     1      43.846   2.314  10.646  0.00  0.00    +0.000 F 
ATOM      7  C   UNL     1      45.282   2.006   8.817  0.00  0.00    +0.000 A 
ENDROOT
BRANCH   1   8
ATOM      8  C   UNL     1      46.777   1.623   6.820  0.00  0.00    +0.000 C 
BRANCH   8   9
ATOM      9  C   UNL     1      48.185   2.103   6.459  0.00  0.00    +0.000 C 
BRANCH   9  10
ATOM     10  N   UNL     1      48.273   2.471   5.044  0.00  0.00    +0.000 NA
ATOM     11  H   UNL     1      47.557   1.968   4.523  0.00  0.00    +0.000 HD
ATOM     12  H   UNL     1      49.168   2.164   4.665  0.00  0.00    +0.000 HD
ENDBRANCH   9  10
ENDBRANCH   8   9
ENDBRANCH   1   8
BRANCH   4  13
ATOM     13  C   UNL     1      44.215   5.127  10.722  0.00  0.00    +0.000 C 
BRANCH  13  14
ATOM     14  N   UNL     1      44.965   5.228  11.971  0.00  0.00    +0.000 N 
ATOM     15  C   UNL     1      44.744   4.424  13.066  0.00  0.00    +0.000 A 
ATOM     16  C   UNL     1      45.778   4.620  13.956  0.00  0.00    +0.000 A 
ATOM     17  C   UNL     1      46.658   5.582  13.392  0.00  0.00    +0.000 A 
ATOM     18  C   UNL     1      47.884   6.137  13.809  0.00  0.00    +0.000 A 
ATOM     19  C   UNL     1      48.512   7.085  12.997  0.00  0.00    +0.000 A 
ATOM     20 CL   UNL     1      50.034   7.737  13.477  0.00  0.00    +0.000 Cl
ATOM     21  C   UNL     1      47.937   7.503  11.803  0.00  0.00    +0.000 A 
ATOM     22  C   UNL     1      46.722   6.960  11.369  0.00  0.00    +0.000 A 
ATOM     23  C   UNL     1      46.108   5.983  12.167  0.00  0.00    +0.000 A 
ENDBRANCH  13  14
ENDBRANCH   4  13
TORSDOF 5
ENDMDL
MODEL 2
REMARK VINA RESULT:    -7.473      1.921      2.236
REMARK INTER + INTRA:         -10.199
REMARK INTER:                  -9.498
REMARK INTRA:                  -0.701
REMARK UNBOUND:                -0.760
REMARK  Name = 
REMARK  5 active torsions:
REMARK  status: ('A' for Active; 'I' for Inactive)
REMARK    1  A    between atoms: N_1  and  C_2
REMARK    2  A    between atoms: C_2  and  C_3
REMARK    3  A    between atoms: C_3  and  C_4
REMARK    4  A    between atoms: C_7  and  C_8
REMARK    5  A    between atoms: C_8  and  N_9
REMARK                            x       y       z     vdW  Elec       q    Type
REMARK                         _______ _______ _______ _____ _____    ______ ____
ROOT
ATOM      1  C   UNL     1      46.089   2.463   7.952  0.00  0.00    +0.000 A 
ATOM      2  C   UNL     1      46.106   3.860   7.865  0.00  0.00    +0.000 A 
ATOM      3  C   UNL     1      45.330   4.638   8.732  0.00  0.00    +0.000 A 
ATOM      4  C   UNL     1      44.513   4.030   9.695  0.00  0.00    +0.000 A 
ATOM      5  C   UNL     1      44.482   2.636   9.751  0.00  0.00    +0.000 A 
ATOM      6  F   UNL     1      43.669   2.017  10.616  0.00  0.00    +0.000 F 
ATOM      7  C   UNL     1      45.258   1.856   8.899  0.00  0.00    +0.000 A 
ENDROOT
BRANCH   1   8
ATOM      8  C   UNL     1      46.926   1.623   7.019  0.00  0.00    +0.000 C 
BRANCH   8   9
ATOM      9  C   UNL     1      48.199   2.355   6.584  0.00  0.00    +0.000 C 
BRANCH   9  10
ATOM     10  N   UNL     1      48.287   2.443   5.125  0.00  0.00    +0.000 NA
ATOM     11  H   UNL     1      49.267   2.436   4.849  0.00  0.00    +0.000 HD
ATOM     12  H   UNL     1      47.909   3.336   4.813  0.00  0.00    +0.000 HD
ENDBRANCH   9  10
ENDBRANCH   8   9
ENDBRANCH   1   8
BRANCH   4  13
ATOM     13  C   UNL     1      43.675   4.855  10.631  0.00  0.00    +0.000 C 
BRANCH  13  14
ATOM     14  N   UNL     1      44.473   5.640  11.569  0.00  0.00    +0.000 N 
ATOM     15  C   UNL     1      45.390   5.096  12.438  0.00  0.00    +0.000 A 
ATOM     16  C   UNL     1      46.126   6.125  12.982  0.00  0.00    +0.000 A 
ATOM     17  C   UNL     1      45.639   7.343  12.435  0.00  0.00    +0.000 A 
ATOM     18  C   UNL     1      46.020   8.692  12.577  0.00  0.00    +0.000 A 
ATOM     19  C   UNL     1      45.316   9.675  11.877  0.00  0.00    +0.000 A 
ATOM     20 CL   UNL     1      45.804  11.322  12.009  0.00  0.00    +0.000 Cl
ATOM     21  C   UNL     1      44.237   9.345  11.066  0.00  0.00    +0.000 A 
ATOM     22  C   UNL     1      43.846   8.011  10.908  0.00  0.00    +0.000 A 
ATOM     23  C   UNL     1      44.573   7.020  11.584  0.00  0.00    +0.000 A 
ENDBRANCH  13  14
ENDBRANCH   4  13
TORSDOF 5
ENDMDL
MODEL 3
REMARK VINA RESULT:    -7.461      1.453      1.796
REMARK INTER + INTRA:         -10.184
REMARK INTER:                  -9.500
REMARK INTRA:                  -0.684
REMARK UNBOUND:                -0.760
REMARK  Name = 
REMARK  5 active torsions:
REMARK  status: ('A' for Active; 'I' for Inactive)
REMARK    1  A    between atoms: N_1  and  C_2
REMARK    2  A    between atoms: C_2  and  C_3
REMARK    3  A    between atoms: C_3  and  C_4
REMARK    4  A    between atoms: C_7  and  C_8
REMARK    5  A    between atoms: C_8  and  N_9
REMARK                            x       y       z     vdW  Elec       q    Type
REMARK                         _______ _______ _______ _____ _____    ______ ____
ROOT
ATOM      1  C   UNL     1      45.807   3.069   7.771  0.00  0.00    +0.000 A 
ATOM      2  C   UNL     1      45.175   2.190   8.658  0.00  0.00    +0.000 A 
ATOM      3  C   UNL     1      44.689   2.645   9.889  0.00  0.00    +0.000 A 
ATOM      4  C   UNL     1      44.838   3.989  10.260  0.00  0.00    +0.000 A 
ATOM      5  C   UNL     1      45.497   4.848   9.380  0.00  0.00    +0.000 A 
ATOM      6  F   UNL     1      45.712   6.125   9.723  0.00  0.00    +0.000 F 
ATOM      7  C   UNL     1      45.975   4.405   8.150  0.00  0.00    +0.000 A 
ENDROOT
BRANCH   1   8
ATOM      8  C   UNL     1      46.331   2.580   6.443  0.00  0.00    +0.000 C 
BRANCH   8   9
ATOM      9  C   UNL     1      47.450   1.549   6.621  0.00  0.00    +0.000 C 
BRANCH   9  10
ATOM     10  N   UNL     1      48.565   1.817   5.711  0.00  0.00    +0.000 NA
ATOM     11  H   UNL     1      48.926   0.934   5.355  0.00  0.00    +0.000 HD
ATOM     12  H   UNL     1      49.331   2.250   6.226  0.00  0.00    +0.000 HD
ENDBRANCH   9  10
ENDBRANCH   8   9
ENDBRANCH   1   8
BRANCH   4  13
ATOM     13  C   UNL     1      44.320   4.489  11.579  0.00  0.00    +0.000 C 
BRANCH  13  14
ATOM     14  N   UNL     1      45.368   4.633  12.586  0.00  0.00    +0.000 N 
ATOM     15  C   UNL     1      46.039   3.573  13.152  0.00  0.00    +0.000 A 
ATOM     16  C   UNL     1      47.112   4.073  13.857  0.00  0.00    +0.000 A 
ATOM     17  C   UNL     1      47.094   5.488  13.727  0.00  0.00    +0.000 A 
ATOM     18  C   UNL     1      47.945   6.514  14.180  0.00  0.00    +0.000 A 
ATOM     19  C   UNL     1      47.637   7.841  13.868  0.00  0.00    +0.000 A 
ATOM     20 CL   UNL     1      48.697   9.100  14.380  0.00  0.00    +0.000 Cl
ATOM     21  C   UNL     1      46.496   8.162  13.143  0.00  0.00    +0.000 A 
ATOM     22  C   UNL     1      45.640   7.156  12.679  0.00  0.00    +0.000 A 
ATOM     23  C   UNL     1      45.968   5.821  12.963  0.00  0.00    +0.000 A 
ENDBRANCH  13  14
ENDBRANCH   4  13
TORSDOF 5
ENDMDL
MODEL 4
REMARK VINA RESULT:    -7.396      1.183      1.804
REMARK INTER + INTRA:         -10.101
REMARK INTER:                  -9.500
REMARK INTRA:                  -0.601
REMARK UNBOUND:                -0.760
REMARK  Name = 
REMARK  5 active torsions:
REMARK  status: ('A' for Active; 'I' for Inactive)
REMARK    1  A    between atoms: N_1  and  C_2
REMARK    2  A    between atoms: C_2  and  C_3
REMARK    3  A    between atoms: C_3  and  C_4
REMARK    4  A    between atoms: C_7  and  C_8
REMARK    5  A    between atoms: C_8  and  N_9
REMARK                            x       y       z     vdW  Elec       q    Type
REMARK                         _______ _______ _______ _____ _____    ______ ____
ROOT
ATOM      1  C   UNL     1      45.890   2.751   8.163  0.00  0.00    +0.000 A 
ATOM      2  C   UNL     1      46.044   4.142   8.125  0.00  0.00    +0.000 A 
ATOM      3  C   UNL     1      45.394   4.957   9.058  0.00  0.00    +0.000 A 
ATOM      4  C   UNL     1      44.567   4.395  10.041  0.00  0.00    +0.000 A 
ATOM      5  C   UNL     1      44.398   3.011  10.049  0.00  0.00    +0.000 A 
ATOM      6  F   UNL     1      43.569   2.440  10.933  0.00  0.00    +0.000 F 
ATOM      7  C   UNL     1      45.048   2.192   9.130  0.00  0.00    +0.000 A 
ENDROOT
BRANCH   1   8
ATOM      8  C   UNL     1      46.591   1.870   7.158  0.00  0.00    +0.000 C 
BRANCH   8   9
ATOM      9  C   UNL     1      47.948   2.449   6.748  0.00  0.00    +0.000 C 
BRANCH   9  10
ATOM     10  N   UNL     1      48.505   1.729   5.601  0.00  0.00    +0.000 NA
ATOM     11  H   UNL     1      49.267   2.274   5.202  0.00  0.00    +0.000 HD
ATOM     12  H   UNL     1      47.799   1.650   4.871  0.00  0.00    +0.000 HD
ENDBRANCH   9  10
ENDBRANCH   8   9
ENDBRANCH   1   8
BRANCH   4  13
ATOM     13  C   UNL     1      43.863   5.261  11.048  0.00  0.00    +0.000 C 
BRANCH  13  14
ATOM     14  N   UNL     1      44.660   6.411  11.467  0.00  0.00    +0.000 N 
ATOM     15  C   UNL     1      44.310   7.718  11.217  0.00  0.00    +0.000 A 
ATOM     16  C   UNL     1      45.138   8.532  11.959  0.00  0.00    +0.000 A 
ATOM     17  C   UNL     1      46.033   7.696  12.681  0.00  0.00    +0.000 A 
ATOM     18  C   UNL     1      47.053   7.949  13.618  0.00  0.00    +0.000 A 
ATOM     19  C   UNL     1      47.763   6.873  14.158  0.00  0.00    +0.000 A 
ATOM     20 CL   UNL     1      48.982   7.169  15.339  0.00  0.00    +0.000 Cl
ATOM     21  C   UNL     1      47.493   5.567  13.767  0.00  0.00    +0.000 A 
ATOM     22  C   UNL     1      46.480   5.294  12.841  0.00  0.00    +0.000 A 
ATOM     23  C   UNL     1      45.745   6.372  12.324  0.00  0.00    +0.000 A 
ENDBRANCH  13  14
ENDBRANCH   4  13
TORSDOF 5
ENDMDL
MODEL 5
REMARK VINA RESULT:    -6.525      3.274      6.686
REMARK INTER + INTRA:          -9.002
REMARK INTER:                  -8.367
REMARK INTRA:                  -0.635
REMARK UNBOUND:                -0.760
REMARK  Name = 
REMARK  5 active torsions:
REMARK  status: ('A' for Active; 'I' for Inactive)
REMARK    1  A    between atoms: N_1  and  C_2
REMARK    2  A    between atoms: C_2  and  C_3
REMARK    3  A    between atoms: C_3  and  C_4
REMARK    4  A    between atoms: C_7  and  C_8
REMARK    5  A    between atoms: C_8  and  N_9
REMARK                            x       y       z     vdW  Elec       q    Type
REMARK                         _______ _______ _______ _____ _____    ______ ____
ROOT
ATOM      1  C   UNL     1      47.061   8.172  13.044  0.00  0.00    +0.000 A 
ATOM      2  C   UNL     1      46.874   6.815  13.331  0.00  0.00    +0.000 A 
ATOM      3  C   UNL     1      45.815   6.104  12.756  0.00  0.00    +0.000 A 
ATOM      4  C   UNL     1      44.915   6.742  11.891  0.00  0.00    +0.000 A 
ATOM      5  C   UNL     1      45.095   8.102  11.636  0.00  0.00    +0.000 A 
ATOM      6  F   UNL     1      44.223   8.762  10.863  0.00  0.00    +0.000 F 
ATOM      7  C   UNL     1      46.152   8.815  12.197  0.00  0.00    +0.000 A 
ENDROOT
BRANCH   1   8
ATOM      8  C   UNL     1      48.204   8.941  13.661  0.00  0.00    +0.000 C 
BRANCH   8   9
ATOM      9  C   UNL     1      48.462   8.507  15.107  0.00  0.00    +0.000 C 
BRANCH   9  10
ATOM     10  N   UNL     1      47.589   9.224  16.038  0.00  0.00    +0.000 NA
ATOM     11  H   UNL     1      46.903   8.576  16.420  0.00  0.00    +0.000 HD
ATOM     12  H   UNL     1      47.060   9.934  15.534  0.00  0.00    +0.000 HD
ENDBRANCH   9  10
ENDBRANCH   8   9
ENDBRANCH   1   8
BRANCH   4  13
ATOM     13  C   UNL     1      43.774   5.989  11.269  0.00  0.00    +0.000 C 
BRANCH  13  14
ATOM     14  N   UNL     1      44.107   4.600  10.961  0.00  0.00    +0.000 N 
ATOM     15  C   UNL     1      43.536   3.517  11.589  0.00  0.00    +0.000 A 
ATOM     16  C   UNL     1      43.887   2.384  10.890  0.00  0.00    +0.000 A 
ATOM     17  C   UNL     1      44.709   2.784   9.801  0.00  0.00    +0.000 A 
ATOM     18  C   UNL     1      45.318   2.087   8.739  0.00  0.00    +0.000 A 
ATOM     19  C   UNL     1      46.080   2.798   7.809  0.00  0.00    +0.000 A 
ATOM     20 CL   UNL     1      46.791   1.962   6.480  0.00  0.00    +0.000 Cl
ATOM     21  C   UNL     1      46.264   4.170   7.929  0.00  0.00    +0.000 A 
ATOM     22  C   UNL     1      45.663   4.880   8.974  0.00  0.00    +0.000 A 
ATOM     23  C   UNL     1      44.870   4.172   9.890  0.00  0.00    +0.000 A 
ENDBRANCH  13  14
ENDBRANCH   4  13
TORSDOF 5
ENDMDL
MODEL 6
REMARK VINA RESULT:    -6.210      3.088      6.003
REMARK INTER + INTRA:          -8.604
REMARK INTER:                  -8.044
REMARK INTRA:                  -0.560
REMARK UNBOUND:                -0.760
REMARK  Name = 
REMARK  5 active torsions:
REMARK  status: ('A' for Active; 'I' for Inactive)
REMARK    1  A    between atoms: N_1  and  C_2
REMARK    2  A    between atoms: C_2  and  C_3
REMARK    3  A    between atoms: C_3  and  C_4
REMARK    4  A    between atoms: C_7  and  C_8
REMARK    5  A    between atoms: C_8  and  N_9
REMARK                            x       y       z     vdW  Elec       q    Type
REMARK                         _______ _______ _______ _____ _____    ______ ____
ROOT
ATOM      1  C   UNL     1      47.744   7.499  13.432  0.00  0.00    +0.000 A 
ATOM      2  C   UNL     1      46.875   8.219  12.603  0.00  0.00    +0.000 A 
ATOM      3  C   UNL     1      45.664   7.660  12.183  0.00  0.00    +0.000 A 
ATOM      4  C   UNL     1      45.304   6.363  12.575  0.00  0.00    +0.000 A 
ATOM      5  C   UNL     1      46.192   5.645  13.376  0.00  0.00    +0.000 A 
ATOM      6  F   UNL     1      45.913   4.381  13.722  0.00  0.00    +0.000 F 
ATOM      7  C   UNL     1      47.395   6.197  13.806  0.00  0.00    +0.000 A 
ENDROOT
BRANCH   1   8
ATOM      8  C   UNL     1      49.051   8.101  13.888  0.00  0.00    +0.000 C 
BRANCH   8   9
ATOM      9  C   UNL     1      49.928   8.514  12.702  0.00  0.00    +0.000 C 
BRANCH   9  10
ATOM     10  N   UNL     1      50.478   7.343  12.018  0.00  0.00    +0.000 NA
ATOM     11  H   UNL     1      49.803   6.582  12.062  0.00  0.00    +0.000 HD
ATOM     12  H   UNL     1      51.307   7.016  12.511  0.00  0.00    +0.000 HD
ENDBRANCH   9  10
ENDBRANCH   8   9
ENDBRANCH   1   8
BRANCH   4  13
ATOM     13  C   UNL     1      44.005   5.752  12.128  0.00  0.00    +0.000 C 
BRANCH  13  14
ATOM     14  N   UNL     1      44.182   4.480  11.433  0.00  0.00    +0.000 N 
ATOM     15  C   UNL     1      43.539   3.316  11.788  0.00  0.00    +0.000 A 
ATOM     16  C   UNL     1      43.739   2.394  10.784  0.00  0.00    +0.000 A 
ATOM     17  C   UNL     1      44.538   3.010   9.784  0.00  0.00    +0.000 A 
ATOM     18  C   UNL     1      45.019   2.586   8.529  0.00  0.00    +0.000 A 
ATOM     19  C   UNL     1      45.799   3.461   7.769  0.00  0.00    +0.000 A 
ATOM     20 CL   UNL     1      46.354   2.968   6.213  0.00  0.00    +0.000 Cl
ATOM     21  C   UNL     1      46.125   4.727   8.240  0.00  0.00    +0.000 A 
ATOM     22  C   UNL     1      45.654   5.168   9.481  0.00  0.00    +0.000 A 
ATOM     23  C   UNL     1      44.842   4.303  10.231  0.00  0.00    +0.000 A 
ENDBRANCH  13  14
ENDBRANCH   4  13
TORSDOF 5
ENDMDL
MODEL 7
REMARK VINA RESULT:    -5.875      2.098      3.275
REMARK INTER + INTRA:          -8.180
REMARK INTER:                  -7.715
REMARK INTRA:                  -0.466
REMARK UNBOUND:                -0.760
REMARK  Name = 
REMARK  5 active torsions:
REMARK  status: ('A' for Active; 'I' for Inactive)
REMARK    1  A    between atoms: N_1  and  C_2
REMARK    2  A    between atoms: C_2  and  C_3
REMARK    3  A    between atoms: C_3  and  C_4
REMARK    4  A    between atoms: C_7  and  C_8
REMARK    5  A    between atoms: C_8  and  N_9
REMARK                            x       y       z     vdW  Elec       q    Type
REMARK                         _______ _______ _______ _____ _____    ______ ____
ROOT
ATOM      1  C   UNL     1      44.901   3.724   9.674  0.00  0.00    +0.000 A 
ATOM      2  C   UNL     1      45.473   4.968   9.387  0.00  0.00    +0.000 A 
ATOM      3  C   UNL     1      45.731   5.888  10.409  0.00  0.00    +0.000 A 
ATOM      4  C   UNL     1      45.408   5.583  11.739  0.00  0.00    +0.000 A 
ATOM      5  C   UNL     1      44.811   4.352  12.009  0.00  0.00    +0.000 A 
ATOM      6  F   UNL     1      44.434   4.047  13.257  0.00  0.00    +0.000 F 
ATOM      7  C   UNL     1      44.561   3.427  10.998  0.00  0.00    +0.000 A 
ENDROOT
BRANCH   1   8
ATOM      8  C   UNL     1      44.624   2.730   8.573  0.00  0.00    +0.000 C 
BRANCH   8   9
ATOM      9  C   UNL     1      45.635   1.580   8.581  0.00  0.00    +0.000 C 
BRANCH   9  10
ATOM     10  N   UNL     1      46.754   1.853   7.677  0.00  0.00    +0.000 NA
ATOM     11  H   UNL     1      46.884   2.859   7.601  0.00  0.00    +0.000 HD
ATOM     12  H   UNL     1      46.525   1.524   6.740  0.00  0.00    +0.000 HD
ENDBRANCH   9  10
ENDBRANCH   8   9
ENDBRANCH   1   8
BRANCH   4  13
ATOM     13  C   UNL     1      45.680   6.564  12.845  0.00  0.00    +0.000 C 
BRANCH  13  14
ATOM     14  N   UNL     1      46.143   7.860  12.358  0.00  0.00    +0.000 N 
ATOM     15  C   UNL     1      45.355   8.987  12.308  0.00  0.00    +0.000 A 
ATOM     16  C   UNL     1      46.168  10.066  12.041  0.00  0.00    +0.000 A 
ATOM     17  C   UNL     1      47.499   9.584  11.914  0.00  0.00    +0.000 A 
ATOM     18  C   UNL     1      48.741  10.211  11.692  0.00  0.00    +0.000 A 
ATOM     19  C   UNL     1      49.895   9.428  11.621  0.00  0.00    +0.000 A 
ATOM     20 CL   UNL     1      51.424  10.191  11.395  0.00  0.00    +0.000 Cl
ATOM     21  C   UNL     1      49.833   8.045  11.741  0.00  0.00    +0.000 A 
ATOM     22  C   UNL     1      48.610   7.404  11.967  0.00  0.00    +0.000 A 
ATOM     23  C   UNL     1      47.455   8.193  12.072  0.00  0.00    +0.000 A 
ENDBRANCH  13  14
ENDBRANCH   4  13
TORSDOF 5
ENDMDL
MODEL 8
REMARK VINA RESULT:    -5.546      2.418      4.020
REMARK INTER + INTRA:          -7.765
REMARK INTER:                  -7.087
REMARK INTRA:                  -0.678
REMARK UNBOUND:                -0.760
REMARK  Name = 
REMARK  5 active torsions:
REMARK  status: ('A' for Active; 'I' for Inactive)
REMARK    1  A    between atoms: N_1  and  C_2
REMARK    2  A    between atoms: C_2  and  C_3
REMARK    3  A    between atoms: C_3  and  C_4
REMARK    4  A    between atoms: C_7  and  C_8
REMARK    5  A    between atoms: C_8  and  N_9
REMARK                            x       y       z     vdW  Elec       q    Type
REMARK                         _______ _______ _______ _____ _____    ______ ____
ROOT
ATOM      1  C   UNL     1      44.889   3.743  10.901  0.00  0.00    +0.000 A 
ATOM      2  C   UNL     1      45.003   4.975  10.246  0.00  0.00    +0.000 A 
ATOM      3  C   UNL     1      45.469   6.105  10.927  0.00  0.00    +0.000 A 
ATOM      4  C   UNL     1      45.818   6.025  12.283  0.00  0.00    +0.000 A 
ATOM      5  C   UNL     1      45.671   4.799  12.932  0.00  0.00    +0.000 A 
ATOM      6  F   UNL     1      45.936   4.696  14.240  0.00  0.00    +0.000 F 
ATOM      7  C   UNL     1      45.217   3.668  12.258  0.00  0.00    +0.000 A 
ENDROOT
BRANCH   1   8
ATOM      8  C   UNL     1      44.388   2.524  10.167  0.00  0.00    +0.000 C 
BRANCH   8   9
ATOM      9  C   UNL     1      44.926   2.464   8.735  0.00  0.00    +0.000 C 
BRANCH   9  10
ATOM     10  N   UNL     1      45.887   1.371   8.576  0.00  0.00    +0.000 NA
ATOM     11  H   UNL     1      45.382   0.505   8.395  0.00  0.00    +0.000 HD
ATOM     12  H   UNL     1      46.391   1.228   9.450  0.00  0.00    +0.000 HD
ENDBRANCH   9  10
ENDBRANCH   8   9
ENDBRANCH   1   8
BRANCH   4  13
ATOM     13  C   UNL     1      46.319   7.232  13.025  0.00  0.00    +0.000 C 
BRANCH  13  14
ATOM     14  N   UNL     1      47.772   7.368  12.980  0.00  0.00    +0.000 N 
ATOM     15  C   UNL     1      48.456   7.947  11.936  0.00  0.00    +0.000 A 
ATOM     16  C   UNL     1      49.762   8.133  12.331  0.00  0.00    +0.000 A 
ATOM     17  C   UNL     1      49.886   7.642  13.659  0.00  0.00    +0.000 A 
ATOM     18  C   UNL     1      50.948   7.605  14.584  0.00  0.00    +0.000 A 
ATOM     19  C   UNL     1      50.733   7.041  15.844  0.00  0.00    +0.000 A 
ATOM     20 CL   UNL     1      52.013   7.031  16.998  0.00  0.00    +0.000 Cl
ATOM     21  C   UNL     1      49.501   6.498  16.187  0.00  0.00    +0.000 A 
ATOM     22  C   UNL     1      48.432   6.530  15.284  0.00  0.00    +0.000 A 
ATOM     23  C   UNL     1      48.638   7.127  14.031  0.00  0.00    +0.000 A 
ENDBRANCH  13  14
ENDBRANCH   4  13
TORSDOF 5
ENDMDL
MODEL 9
REMARK VINA RESULT:    -5.477      3.505      5.176
REMARK INTER + INTRA:          -7.678
REMARK INTER:                  -6.980
REMARK INTRA:                  -0.698
REMARK UNBOUND:                -0.760
REMARK  Name = 
REMARK  5 active torsions:
REMARK  status: ('A' for Active; 'I' for Inactive)
REMARK    1  A    between atoms: N_1  and  C_2
REMARK    2  A    between atoms: C_2  and  C_3
REMARK    3  A    between atoms: C_3  and  C_4
REMARK    4  A    between atoms: C_7  and  C_8
REMARK    5  A    between atoms: C_8  and  N_9
REMARK                            x       y       z     vdW  Elec       q    Type
REMARK                         _______ _______ _______ _____ _____    ______ ____
ROOT
ATOM      1  C   UNL     1      45.218   4.635  11.484  0.00  0.00    +0.000 A 
ATOM      2  C   UNL     1      44.705   5.837  10.983  0.00  0.00    +0.000 A 
ATOM      3  C   UNL     1      45.068   7.061  11.556  0.00  0.00    +0.000 A 
ATOM      4  C   UNL     1      45.943   7.104  12.650  0.00  0.00    +0.000 A 
ATOM      5  C   UNL     1      46.424   5.897  13.159  0.00  0.00    +0.000 A 
ATOM      6  F   UNL     1      47.214   5.891  14.240  0.00  0.00    +0.000 F 
ATOM      7  C   UNL     1      46.075   4.675  12.589  0.00  0.00    +0.000 A 
ENDROOT
BRANCH   1   8
ATOM      8  C   UNL     1      44.828   3.314  10.868  0.00  0.00    +0.000 C 
BRANCH   8   9
ATOM      9  C   UNL     1      43.423   2.881  11.295  0.00  0.00    +0.000 C 
BRANCH   9  10
ATOM     10  N   UNL     1      43.465   2.083  12.521  0.00  0.00    +0.000 NA
ATOM     11  H   UNL     1      44.175   2.463  13.144  0.00  0.00    +0.000 HD
ATOM     12  H   UNL     1      43.761   1.132  12.301  0.00  0.00    +0.000 HD
ENDBRANCH   9  10
ENDBRANCH   8   9
ENDBRANCH   1   8
BRANCH   4  13
ATOM     13  C   UNL     1      46.340   8.413  13.273  0.00  0.00    +0.000 C 
BRANCH  13  14
ATOM     14  N   UNL     1      47.092   9.272  12.364  0.00  0.00    +0.000 N 
ATOM     15  C   UNL     1      46.648  10.498  11.924  0.00  0.00    +0.000 A 
ATOM     16  C   UNL     1      47.698  11.133  11.297  0.00  0.00    +0.000 A 
ATOM     17  C   UNL     1      48.821  10.264  11.346  0.00  0.00    +0.000 A 
ATOM     18  C   UNL     1      50.158  10.383  10.919  0.00  0.00    +0.000 A 
ATOM     19  C   UNL     1      51.035   9.315  11.126  0.00  0.00    +0.000 A 
ATOM     20 CL   UNL     1      52.684   9.468  10.648  0.00  0.00    +0.000 Cl
ATOM     21  C   UNL     1      50.604   8.136  11.721  0.00  0.00    +0.000 A 
ATOM     22  C   UNL     1      49.281   8.001  12.157  0.00  0.00    +0.000 A 
ATOM     23  C   UNL     1      48.408   9.085  11.980  0.00  0.00    +0.000 A 
ENDBRANCH  13  14
ENDBRANCH   4  13
TORSDOF 5
ENDMDL
