MODEL 1
REMARK VINA RESULT:    -8.044      0.000      0.000
REMARK INTER + INTRA:          -9.125
REMARK INTER:                  -9.455
REMARK INTRA:                   0.330
REMARK UNBOUND:                 0.330
REMARK  Name = 
REMARK  3 active torsions:
REMARK  status: ('A' for Active; 'I' for Inactive)
REMARK    1  A    between atoms: C_2  and  C_4
REMARK    2  A    between atoms: N_8  and  C_9
REMARK    3  A    between atoms: C_9  and  C_10
REMARK                            x       y       z     vdW  Elec       q    Type
REMARK                         _______ _______ _______ _____ _____    ______ ____
ROOT
ATOM      1  C   UNL     1      46.464   2.779   7.544  0.00  0.00    +0.000 A 
ATOM      2  C   UNL     1      46.137   4.104   7.818  0.00  0.00    +0.000 A 
ATOM      3  C   UNL     1      45.329   4.396   8.922  0.00  0.00    +0.000 A 
ATOM      4  C   UNL     1      44.862   3.361   9.737  0.00  0.00    +0.000 A 
ATOM      5  N   UNL     1      44.027   3.562  10.838  0.00  0.00    +0.000 N 
ATOM      6  N   UNL     1      45.173   2.076   9.478  0.00  0.00    +0.000 NA
ATOM      7  C   UNL     1      45.952   1.809   8.391  0.00  0.00    +0.000 A 
ATOM      8  H   UNL     1      43.941   2.673  11.325  0.00  0.00    +0.000 HD
ENDROOT
BRANCH   1  10
ATOM      9  N   UNL     1      47.238   3.126   5.260  0.00  0.00    +0.000 N 
ATOM     10  C   UNL     1      47.279   2.352   6.388  0.00  0.00    +0.000 C 
ATOM     11  O   UNL     1      47.992   1.359   6.443  0.00  0.00    +0.000 OA
ATOM     12  H   UNL     1      47.878   2.867   4.520  0.00  0.00    +0.000 HD
ATOM     13  H   UNL     1      46.873   4.067   5.254  0.00  0.00    +0.000 HD
ENDBRANCH   1  10
BRANCH   5  14
ATOM     14  C   UNL     1      43.943   4.832  11.581  0.00  0.00    +0.000 C 
ATOM     15  C   UNL     1      42.614   5.176  12.233  0.00  0.00    +0.000 C 
ATOM     16  C   UNL     1      43.069   5.965  11.052  0.00  0.00    +0.000 C 
BRANCH  14  17
ATOM     17  C   UNL     1      45.267   5.346  12.156  0.00  0.00    +0.000 A 
ATOM     18  C   UNL     1      45.936   4.601  13.136  0.00  0.00    +0.000 A 
ATOM     19  N   UNL     1      47.200   4.856  13.555  0.00  0.00    +0.000 NA
ATOM     20  C   UNL     1      47.787   5.917  12.969  0.00  0.00    +0.000 A 
ATOM     21  C   UNL     1      47.130   6.704  12.039  0.00  0.00    +0.000 A 
ATOM     22  N   UNL     1      45.869   6.444  11.618  0.00  0.00    +0.000 NA
ENDBRANCH  14  17
ENDBRANCH   5  14
TORSDOF 3
ENDMDL
MODEL 2
REMARK VINA RESULT:    -7.395      2.992      6.220
REMARK INTER + INTRA:          -8.362
REMARK INTER:                  -8.229
REMARK INTRA:                  -0.133
REMARK UNBOUND:                 0.330
REMARK  Name = 
REMARK  3 active torsions:
REMARK  status: ('A' for Active; 'I' for Inactive)
REMARK    1  A    between atoms: C_2  and  C_4
REMARK    2  A    between atoms: N_8  and  C_9
REMARK    3  A    between atoms: C_9  and  C_10
REMARK                            x       y       z     vdW  Elec       q    Type
REMARK                         _______ _______ _______ _____ _____    ______ ____
ROOT
ATOM      1  C   UNL     1      47.863   5.800  14.604  0.00  0.00    +0.000 A 
ATOM      2  C   UNL     1      47.309   6.200  13.391  0.00  0.00    +0.000 A 
ATOM      3  C   UNL     1      46.512   5.302  12.672  0.00  0.00    +0.000 A 
ATOM      4  C   UNL     1      46.281   4.019  13.177  0.00  0.00    +0.000 A 
ATOM      5  N   UNL     1      45.526   3.052  12.509  0.00  0.00    +0.000 N 
ATOM      6  N   UNL     1      46.814   3.624  14.349  0.00  0.00    +0.000 NA
ATOM      7  C   UNL     1      47.597   4.508  15.030  0.00  0.00    +0.000 A 
ATOM      8  H   UNL     1      45.407   2.264  13.141  0.00  0.00    +0.000 HD
ENDROOT
BRANCH   1  10
ATOM      9  N   UNL     1      48.155   7.478  16.345  0.00  0.00    +0.000 N 
ATOM     10  C   UNL     1      48.745   6.651  15.429  0.00  0.00    +0.000 C 
ATOM     11  O   UNL     1      49.963   6.600  15.322  0.00  0.00    +0.000 OA
ATOM     12  H   UNL     1      48.783   7.978  16.963  0.00  0.00    +0.000 HD
ATOM     13  H   UNL     1      47.195   7.374  16.640  0.00  0.00    +0.000 HD
ENDBRANCH   1  10
BRANCH   5  14
ATOM     14  C   UNL     1      44.492   3.368  11.507  0.00  0.00    +0.000 C 
ATOM     15  C   UNL     1      43.323   4.229  11.954  0.00  0.00    +0.000 C 
ATOM     16  C   UNL     1      43.089   2.787  11.654  0.00  0.00    +0.000 C 
BRANCH  14  17
ATOM     17  C   UNL     1      44.967   3.367  10.050  0.00  0.00    +0.000 A 
ATOM     18  C   UNL     1      45.194   4.583   9.392  0.00  0.00    +0.000 A 
ATOM     19  N   UNL     1      45.807   4.692   8.187  0.00  0.00    +0.000 NA
ATOM     20  C   UNL     1      46.177   3.523   7.632  0.00  0.00    +0.000 A 
ATOM     21  C   UNL     1      45.915   2.304   8.234  0.00  0.00    +0.000 A 
ATOM     22  N   UNL     1      45.307   2.197   9.440  0.00  0.00    +0.000 NA
ENDBRANCH  14  17
ENDBRANCH   5  14
TORSDOF 3
ENDMDL
MODEL 3
REMARK VINA RESULT:    -6.694      3.073      6.076
REMARK INTER + INTRA:          -7.538
REMARK INTER:                  -7.395
REMARK INTRA:                  -0.142
REMARK UNBOUND:                 0.330
REMARK  Name = 
REMARK  3 active torsions:
REMARK  status: ('A' for Active; 'I' for Inactive)
REMARK    1  A    between atoms: C_2  and  C_4
REMARK    2  A    between atoms: N_8  and  C_9
REMARK    3  A    between atoms: C_9  and  C_10
REMARK                            x       y       z     vdW  Elec       q    Type
REMARK                         _______ _______ _______ _____ _____    ______ ____
ROOT
ATOM      1  C   UNL     1      48.357   6.984  13.599  0.00  0.00    +0.000 A 
ATOM      2  C   UNL     1      47.901   7.074  12.287  0.00  0.00    +0.000 A 
ATOM      3  C   UNL     1      46.894   6.206  11.851  0.00  0.00    +0.000 A 
ATOM      4  C   UNL     1      46.356   5.264  12.733  0.00  0.00    +0.000 A 
ATOM      5  N   UNL     1      45.373   4.341  12.371  0.00  0.00    +0.000 N 
ATOM      6  N   UNL     1      46.792   5.170  14.004  0.00  0.00    +0.000 NA
ATOM      7  C   UNL     1      47.783   6.016  14.408  0.00  0.00    +0.000 A 
ATOM      8  H   UNL     1      45.070   3.865  13.217  0.00  0.00    +0.000 HD
ENDROOT
BRANCH   1  10
ATOM      9  N   UNL     1      50.653   7.794  13.530  0.00  0.00    +0.000 N 
ATOM     10  C   UNL     1      49.438   7.824  14.156  0.00  0.00    +0.000 C 
ATOM     11  O   UNL     1      49.248   8.546  15.126  0.00  0.00    +0.000 OA
ATOM     12  H   UNL     1      51.346   8.449  13.871  0.00  0.00    +0.000 HD
ATOM     13  H   UNL     1      50.783   7.419  12.602  0.00  0.00    +0.000 HD
ENDBRANCH   1  10
BRANCH   5  14
ATOM     14  C   UNL     1      44.435   4.541  11.251  0.00  0.00    +0.000 C 
ATOM     15  C   UNL     1      43.563   5.785  11.281  0.00  0.00    +0.000 C 
ATOM     16  C   UNL     1      42.931   4.451  11.494  0.00  0.00    +0.000 C 
BRANCH  14  17
ATOM     17  C   UNL     1      44.844   3.889   9.926  0.00  0.00    +0.000 A 
ATOM     18  C   UNL     1      45.382   4.677   8.900  0.00  0.00    +0.000 A 
ATOM     19  N   UNL     1      45.963   4.176   7.782  0.00  0.00    +0.000 NA
ATOM     20  C   UNL     1      45.974   2.832   7.702  0.00  0.00    +0.000 A 
ATOM     21  C   UNL     1      45.400   2.031   8.674  0.00  0.00    +0.000 A 
ATOM     22  N   UNL     1      44.825   2.533   9.794  0.00  0.00    +0.000 NA
ENDBRANCH  14  17
ENDBRANCH   5  14
TORSDOF 3
ENDMDL
MODEL 4
REMARK VINA RESULT:    -6.295      3.149      6.360
REMARK INTER + INTRA:          -7.069
REMARK INTER:                  -7.023
REMARK INTRA:                  -0.046
REMARK UNBOUND:                 0.330
REMARK  Name = 
REMARK  3 active torsions:
REMARK  status: ('A' for Active; 'I' for Inactive)
REMARK    1  A    between atoms: C_2  and  C_4
REMARK    2  A    between atoms: N_8  and  C_9
REMARK    3  A    between atoms: C_9  and  C_10
REMARK                            x       y       z     vdW  Elec       q    Type
REMARK                         _______ _______ _______ _____ _____    ______ ____
ROOT
ATOM      1  C   UNL     1      48.080   5.856  15.033  0.00  0.00    +0.000 A 
ATOM      2  C   UNL     1      47.817   6.278  13.733  0.00  0.00    +0.000 A 
ATOM      3  C   UNL     1      46.870   5.588  12.968  0.00  0.00    +0.000 A 
ATOM      4  C   UNL     1      46.199   4.490  13.514  0.00  0.00    +0.000 A 
ATOM      5  N   UNL     1      45.264   3.729  12.809  0.00  0.00    +0.000 N 
ATOM      6  N   UNL     1      46.449   4.075  14.771  0.00  0.00    +0.000 NA
ATOM      7  C   UNL     1      47.383   4.751  15.498  0.00  0.00    +0.000 A 
ATOM      8  H   UNL     1      44.838   3.080  13.466  0.00  0.00    +0.000 HD
ENDROOT
BRANCH   1  10
ATOM      9  N   UNL     1      49.462   5.798  17.038  0.00  0.00    +0.000 N 
ATOM     10  C   UNL     1      49.082   6.485  15.918  0.00  0.00    +0.000 C 
ATOM     11  O   UNL     1      49.580   7.570  15.647  0.00  0.00    +0.000 OA
ATOM     12  H   UNL     1      50.218   6.205  17.575  0.00  0.00    +0.000 HD
ATOM     13  H   UNL     1      49.274   4.815  17.169  0.00  0.00    +0.000 HD
ENDBRANCH   1  10
BRANCH   5  14
ATOM     14  C   UNL     1      44.498   4.235  11.656  0.00  0.00    +0.000 C 
ATOM     15  C   UNL     1      43.675   5.495  11.860  0.00  0.00    +0.000 C 
ATOM     16  C   UNL     1      42.973   4.192  11.679  0.00  0.00    +0.000 C 
BRANCH  14  17
ATOM     17  C   UNL     1      45.064   3.870  10.279  0.00  0.00    +0.000 A 
ATOM     18  C   UNL     1      45.006   2.543   9.833  0.00  0.00    +0.000 A 
ATOM     19  N   UNL     1      45.284   2.155   8.564  0.00  0.00    +0.000 NA
ATOM     20  C   UNL     1      45.653   3.150   7.735  0.00  0.00    +0.000 A 
ATOM     21  C   UNL     1      45.773   4.460   8.164  0.00  0.00    +0.000 A 
ATOM     22  N   UNL     1      45.490   4.847   9.431  0.00  0.00    +0.000 NA
ENDBRANCH  14  17
ENDBRANCH   5  14
TORSDOF 3
ENDMDL
MODEL 5
REMARK VINA RESULT:    -6.117      2.614      4.397
REMARK INTER + INTRA:          -6.860
REMARK INTER:                  -6.845
REMARK INTRA:                  -0.015
REMARK UNBOUND:                 0.330
REMARK  Name = 
REMARK  3 active torsions:
REMARK  status: ('A' for Active; 'I' for Inactive)
REMARK    1  A    between atoms: C_2  and  C_4
REMARK    2  A    between atoms: N_8  and  C_9
REMARK    3  A    between atoms: C_9  and  C_10
REMARK                            x       y       z     vdW  Elec       q    Type
REMARK                         _______ _______ _______ _____ _____    ______ ____
ROOT
ATOM      1  C   UNL     1      45.048   3.888  10.088  0.00  0.00    +0.000 A 
ATOM      2  C   UNL     1      45.607   5.134   9.815  0.00  0.00    +0.000 A 
ATOM      3  C   UNL     1      46.004   5.954  10.878  0.00  0.00    +0.000 A 
ATOM      4  C   UNL     1      45.837   5.516  12.195  0.00  0.00    +0.000 A 
ATOM      5  N   UNL     1      46.176   6.284  13.311  0.00  0.00    +0.000 N 
ATOM      6  N   UNL     1      45.296   4.313  12.467  0.00  0.00    +0.000 NA
ATOM      7  C   UNL     1      44.905   3.532  11.420  0.00  0.00    +0.000 A 
ATOM      8  H   UNL     1      46.076   5.693  14.133  0.00  0.00    +0.000 HD
ENDROOT
BRANCH   1  10
ATOM      9  N   UNL     1      44.208   3.484   7.838  0.00  0.00    +0.000 N 
ATOM     10  C   UNL     1      44.564   2.956   9.049  0.00  0.00    +0.000 C 
ATOM     11  O   UNL     1      44.510   1.750   9.249  0.00  0.00    +0.000 OA
ATOM     12  H   UNL     1      43.973   2.816   7.114  0.00  0.00    +0.000 HD
ATOM     13  H   UNL     1      44.468   4.415   7.548  0.00  0.00    +0.000 HD
ENDBRANCH   1  10
BRANCH   5  14
ATOM     14  C   UNL     1      47.175   7.367  13.288  0.00  0.00    +0.000 C 
ATOM     15  C   UNL     1      48.632   6.973  13.113  0.00  0.00    +0.000 C 
ATOM     16  C   UNL     1      48.177   7.502  14.431  0.00  0.00    +0.000 C 
BRANCH  14  17
ATOM     17  C   UNL     1      46.657   8.729  12.811  0.00  0.00    +0.000 A 
ATOM     18  C   UNL     1      47.556   9.675  12.303  0.00  0.00    +0.000 A 
ATOM     19  N   UNL     1      47.183  10.815  11.669  0.00  0.00    +0.000 NA
ATOM     20  C   UNL     1      45.853  11.000  11.573  0.00  0.00    +0.000 A 
ATOM     21  C   UNL     1      44.943  10.109  12.115  0.00  0.00    +0.000 A 
ATOM     22  N   UNL     1      45.318   8.968  12.744  0.00  0.00    +0.000 NA
ENDBRANCH  14  17
ENDBRANCH   5  14
TORSDOF 3
ENDMDL
MODEL 6
REMARK VINA RESULT:    -5.944      1.997      2.869
REMARK INTER + INTRA:          -6.657
REMARK INTER:                  -6.500
REMARK INTRA:                  -0.157
REMARK UNBOUND:                 0.330
REMARK  Name = 
REMARK  3 active torsions:
REMARK  status: ('A' for Active; 'I' for Inactive)
REMARK    1  A    between atoms: C_2  and  C_4
REMARK    2  A    between atoms: N_8  and  C_9
REMARK    3  A    between atoms: C_9  and  C_10
REMARK                            x       y       z     vdW  Elec       q    Type
REMARK                         _______ _______ _______ _____ _____    ______ ____
ROOT
ATOM      1  C   UNL     1      46.359   3.523   7.416  0.00  0.00    +0.000 A 
ATOM      2  C   UNL     1      46.775   4.677   8.073  0.00  0.00    +0.000 A 
ATOM      3  C   UNL     1      46.026   5.157   9.155  0.00  0.00    +0.000 A 
ATOM      4  C   UNL     1      44.877   4.474   9.563  0.00  0.00    +0.000 A 
ATOM      5  N   UNL     1      44.057   4.901  10.610  0.00  0.00    +0.000 N 
ATOM      6  N   UNL     1      44.468   3.357   8.931  0.00  0.00    +0.000 NA
ATOM      7  C   UNL     1      45.203   2.911   7.873  0.00  0.00    +0.000 A 
ATOM      8  H   UNL     1      43.372   4.170  10.782  0.00  0.00    +0.000 HD
ENDROOT
BRANCH   1  10
ATOM      9  N   UNL     1      48.373   2.623   6.382  0.00  0.00    +0.000 N 
ATOM     10  C   UNL     1      47.051   2.947   6.244  0.00  0.00    +0.000 C 
ATOM     11  O   UNL     1      46.458   2.736   5.194  0.00  0.00    +0.000 OA
ATOM     12  H   UNL     1      48.797   2.142   5.598  0.00  0.00    +0.000 HD
ATOM     13  H   UNL     1      48.827   2.544   7.279  0.00  0.00    +0.000 HD
ENDBRANCH   1  10
BRANCH   5  14
ATOM     14  C   UNL     1      44.518   5.767  11.710  0.00  0.00    +0.000 C 
ATOM     15  C   UNL     1      45.709   5.291  12.525  0.00  0.00    +0.000 C 
ATOM     16  C   UNL     1      44.358   5.308  13.156  0.00  0.00    +0.000 C 
BRANCH  14  17
ATOM     17  C   UNL     1      44.215   7.260  11.542  0.00  0.00    +0.000 A 
ATOM     18  C   UNL     1      45.212   8.206  11.817  0.00  0.00    +0.000 A 
ATOM     19  N   UNL     1      45.116   9.523  11.505  0.00  0.00    +0.000 NA
ATOM     20  C   UNL     1      43.960   9.883  10.916  0.00  0.00    +0.000 A 
ATOM     21  C   UNL     1      42.938   8.980  10.685  0.00  0.00    +0.000 A 
ATOM     22  N   UNL     1      43.037   7.664  10.992  0.00  0.00    +0.000 NA
ENDBRANCH  14  17
ENDBRANCH   5  14
TORSDOF 3
ENDMDL
MODEL 7
REMARK VINA RESULT:    -5.878      4.539      7.113
REMARK INTER + INTRA:          -6.579
REMARK INTER:                  -6.482
REMARK INTRA:                  -0.097
REMARK UNBOUND:                 0.330
REMARK  Name = 
REMARK  3 active torsions:
REMARK  status: ('A' for Active; 'I' for Inactive)
REMARK    1  A    between atoms: C_2  and  C_4
REMARK    2  A    between atoms: N_8  and  C_9
REMARK    3  A    between atoms: C_9  and  C_10
REMARK                            x       y       z     vdW  Elec       q    Type
REMARK                         _______ _______ _______ _____ _____    ______ ____
ROOT
ATOM      1  C   UNL     1      48.374   3.884  17.251  0.00  0.00    +0.000 A 
ATOM      2  C   UNL     1      47.747   5.021  16.748  0.00  0.00    +0.000 A 
ATOM      3  C   UNL     1      47.176   4.979  15.471  0.00  0.00    +0.000 A 
ATOM      4  C   UNL     1      47.239   3.804  14.718  0.00  0.00    +0.000 A 
ATOM      5  N   UNL     1      46.724   3.687  13.425  0.00  0.00    +0.000 N 
ATOM      6  N   UNL     1      47.845   2.700  15.196  0.00  0.00    +0.000 NA
ATOM      7  C   UNL     1      48.406   2.762  16.437  0.00  0.00    +0.000 A 
ATOM      8  H   UNL     1      46.785   2.708  13.156  0.00  0.00    +0.000 HD
ENDROOT
BRANCH   1  10
ATOM      9  N   UNL     1      48.315   3.340  19.624  0.00  0.00    +0.000 N 
ATOM     10  C   UNL     1      49.039   3.824  18.569  0.00  0.00    +0.000 C 
ATOM     11  O   UNL     1      50.206   4.164  18.710  0.00  0.00    +0.000 OA
ATOM     12  H   UNL     1      48.822   3.218  20.492  0.00  0.00    +0.000 HD
ATOM     13  H   UNL     1      47.456   2.824  19.509  0.00  0.00    +0.000 HD
ENDBRANCH   1  10
BRANCH   5  14
ATOM     14  C   UNL     1      45.648   4.542  12.892  0.00  0.00    +0.000 C 
ATOM     15  C   UNL     1      44.221   4.203  13.291  0.00  0.00    +0.000 C 
ATOM     16  C   UNL     1      44.654   3.973  11.883  0.00  0.00    +0.000 C 
BRANCH  14  17
ATOM     17  C   UNL     1      46.057   5.979  12.550  0.00  0.00    +0.000 A 
ATOM     18  C   UNL     1      45.199   7.040  12.867  0.00  0.00    +0.000 A 
ATOM     19  N   UNL     1      45.551   8.348  12.800  0.00  0.00    +0.000 NA
ATOM     20  C   UNL     1      46.808   8.575  12.374  0.00  0.00    +0.000 A 
ATOM     21  C   UNL     1      47.658   7.548  12.001  0.00  0.00    +0.000 A 
ATOM     22  N   UNL     1      47.306   6.242  12.075  0.00  0.00    +0.000 NA
ENDBRANCH  14  17
ENDBRANCH   5  14
TORSDOF 3
ENDMDL
MODEL 8
REMARK VINA RESULT:    -5.585      6.626      9.493
REMARK INTER + INTRA:          -6.235
REMARK INTER:                  -6.304
REMARK INTRA:                   0.069
REMARK UNBOUND:                 0.330
REMARK  Name = 
REMARK  3 active torsions:
REMARK  status: ('A' for Active; 'I' for Inactive)
REMARK    1  A    between atoms: C_2  and  C_4
REMARK    2  A    between atoms: N_8  and  C_9
REMARK    3  A    between atoms: C_9  and  C_10
REMARK                            x       y       z     vdW  Elec       q    Type
REMARK                         _______ _______ _______ _____ _____    ______ ____
ROOT
ATOM      1  C   UNL     1      53.118   2.078  18.162  0.00  0.00    +0.000 A 
ATOM      2  C   UNL     1      52.434   3.290  18.139  0.00  0.00    +0.000 A 
ATOM      3  C   UNL     1      51.127   3.330  17.639  0.00  0.00    +0.000 A 
ATOM      4  C   UNL     1      50.525   2.159  17.172  0.00  0.00    +0.000 A 
ATOM      5  N   UNL     1      49.239   2.116  16.628  0.00  0.00    +0.000 N 
ATOM      6  N   UNL     1      51.180   0.982  17.189  0.00  0.00    +0.000 NA
ATOM      7  C   UNL     1      52.456   0.964  17.670  0.00  0.00    +0.000 A 
ATOM      8  H   UNL     1      48.996   1.139  16.487  0.00  0.00    +0.000 HD
ENDROOT
BRANCH   1  10
ATOM      9  N   UNL     1      54.700   1.569  19.942  0.00  0.00    +0.000 N 
ATOM     10  C   UNL     1      54.509   1.925  18.635  0.00  0.00    +0.000 C 
ATOM     11  O   UNL     1      55.460   2.079  17.880  0.00  0.00    +0.000 OA
ATOM     12  H   UNL     1      55.656   1.376  20.215  0.00  0.00    +0.000 HD
ATOM     13  H   UNL     1      53.964   1.192  20.521  0.00  0.00    +0.000 HD
ENDBRANCH   1  10
BRANCH   5  14
ATOM     14  C   UNL     1      48.191   3.110  16.924  0.00  0.00    +0.000 C 
ATOM     15  C   UNL     1      48.069   3.593  18.360  0.00  0.00    +0.000 C 
ATOM     16  C   UNL     1      46.999   2.722  17.794  0.00  0.00    +0.000 C 
BRANCH  14  17
ATOM     17  C   UNL     1      47.780   4.002  15.748  0.00  0.00    +0.000 A 
ATOM     18  C   UNL     1      48.210   5.335  15.702  0.00  0.00    +0.000 A 
ATOM     19  N   UNL     1      48.079   6.140  14.618  0.00  0.00    +0.000 NA
ATOM     20  C   UNL     1      47.472   5.570  13.560  0.00  0.00    +0.000 A 
ATOM     21  C   UNL     1      46.988   4.274  13.597  0.00  0.00    +0.000 A 
ATOM     22  N   UNL     1      47.125   3.470  14.679  0.00  0.00    +0.000 NA
ENDBRANCH  14  17
ENDBRANCH   5  14
TORSDOF 3
ENDMDL
MODEL 9
REMARK VINA RESULT:    -5.351      3.032      5.247
REMARK INTER + INTRA:          -5.959
REMARK INTER:                  -6.554
REMARK INTRA:                   0.595
REMARK UNBOUND:                 0.330
REMARK  Name = 
REMARK  3 active torsions:
REMARK  status: ('A' for Active; 'I' for Inactive)
REMARK    1  A    between atoms: C_2  and  C_4
REMARK    2  A    between atoms: N_8  and  C_9
REMARK    3  A    between atoms: C_9  and  C_10
REMARK                            x       y       z     vdW  Elec       q    Type
REMARK                         _______ _______ _______ _____ _____    ______ ____
ROOT
ATOM      1  C   UNL     1      44.720   5.198  10.951  0.00  0.00    +0.000 A 
ATOM      2  C   UNL     1      45.993   5.678  10.656  0.00  0.00    +0.000 A 
ATOM      3  C   UNL     1      46.577   6.632  11.497  0.00  0.00    +0.000 A 
ATOM      4  C   UNL     1      45.881   7.090  12.620  0.00  0.00    +0.000 A 
ATOM      5  N   UNL     1      46.377   8.062  13.492  0.00  0.00    +0.000 N 
ATOM      6  N   UNL     1      44.649   6.631  12.911  0.00  0.00    +0.000 NA
ATOM      7  C   UNL     1      44.091   5.710  12.075  0.00  0.00    +0.000 A 
ATOM      8  H   UNL     1      45.741   8.119  14.283  0.00  0.00    +0.000 HD
ENDROOT
BRANCH   1  10
ATOM      9  N   UNL     1      44.070   4.360   8.758  0.00  0.00    +0.000 N 
ATOM     10  C   UNL     1      43.994   4.218  10.117  0.00  0.00    +0.000 C 
ATOM     11  O   UNL     1      43.371   3.292  10.618  0.00  0.00    +0.000 OA
ATOM     12  H   UNL     1      43.646   3.621   8.210  0.00  0.00    +0.000 HD
ATOM     13  H   UNL     1      44.761   4.940   8.305  0.00  0.00    +0.000 HD
ENDBRANCH   1  10
BRANCH   5  14
ATOM     14  C   UNL     1      47.812   8.351  13.665  0.00  0.00    +0.000 C 
ATOM     15  C   UNL     1      48.316   9.704  13.193  0.00  0.00    +0.000 C 
ATOM     16  C   UNL     1      48.715   8.479  12.442  0.00  0.00    +0.000 C 
BRANCH  14  17
ATOM     17  C   UNL     1      48.499   7.603  14.813  0.00  0.00    +0.000 A 
ATOM     18  C   UNL     1      49.152   8.325  15.820  0.00  0.00    +0.000 A 
ATOM     19  N   UNL     1      49.606   7.778  16.976  0.00  0.00    +0.000 NA
ATOM     20  C   UNL     1      49.404   6.452  17.092  0.00  0.00    +0.000 A 
ATOM     21  C   UNL     1      48.812   5.705  16.088  0.00  0.00    +0.000 A 
ATOM     22  N   UNL     1      48.355   6.254  14.937  0.00  0.00    +0.000 NA
ENDBRANCH  14  17
ENDBRANCH   5  14
TORSDOF 3
ENDMDL
