MODEL 1
REMARK VINA RESULT:    -7.527      0.000      0.000
REMARK INTER + INTRA:         -11.066
REMARK INTER:                 -10.167
REMARK INTRA:                  -0.898
REMARK UNBOUND:                -0.898
REMARK  Name = 
REMARK  6 active torsions:
REMARK  status: ('A' for Active; 'I' for Inactive)
REMARK    1  A    between atoms: C_2  and  C_18
REMARK    2  A    between atoms: N_3  and  C_4
REMARK    3  A    between atoms: C_4  and  C_5
REMARK    4  A    between atoms: C_8  and  C_9
REMARK    5  A    between atoms: C_9  and  N_10
REMARK    6  A    between atoms: N_10  and  C_11
REMARK                            x       y       z     vdW  Elec       q    Type
REMARK                         _______ _______ _______ _____ _____    ______ ____
ROOT
ATOM      1  O   UNL     1      48.986   6.310  13.359  0.00  0.00    +0.000 OA
ATOM      2  C   UNL     1      48.467   6.720  14.391  0.00  0.00    +0.000 C 
ATOM      3  N   UNL     1      47.331   7.487  14.389  0.00  0.00    +0.000 N 
ATOM      4  H   UNL     1      47.032   7.939  15.248  0.00  0.00    +0.000 HD
ENDROOT
BRANCH   2   5
ATOM      5  C   UNL     1      49.004   6.364  15.711  0.00  0.00    +0.000 A 
ATOM      6  C   UNL     1      50.061   7.091  16.241  0.00  0.00    +0.000 A 
ATOM      7  S   UNL     1      50.551   6.554  17.784  0.00  0.00    +0.000 S 
ATOM      8  C   UNL     1      49.342   5.357  17.812  0.00  0.00    +0.000 A 
ATOM      9  N   UNL     1      49.180   4.553  18.896  0.00  0.00    +0.000 NA
ATOM     10  C   UNL     1      48.198   3.716  18.799  0.00  0.00    +0.000 A 
ATOM     11  N   UNL     1      47.378   3.601  17.706  0.00  0.00    +0.000 N 
ATOM     12  C   UNL     1      47.557   4.333  16.555  0.00  0.00    +0.000 A 
ATOM     13  O   UNL     1      46.902   4.103  15.545  0.00  0.00    +0.000 OA
ATOM     14  C   UNL     1      48.601   5.337  16.643  0.00  0.00    +0.000 A 
ATOM     15  H   UNL     1      46.654   2.898  17.679  0.00  0.00    +0.000 HD
ENDBRANCH   2   5
BRANCH   3  16
ATOM     16  C   UNL     1      46.702   7.933  13.173  0.00  0.00    +0.000 C 
BRANCH  16  17
ATOM     17  C   UNL     1      46.029   6.809  12.448  0.00  0.00    +0.000 A 
ATOM     18  C   UNL     1      46.280   6.561  11.098  0.00  0.00    +0.000 A 
ATOM     19  C   UNL     1      45.672   5.480  10.467  0.00  0.00    +0.000 A 
ATOM     20  C   UNL     1      44.810   4.670  11.204  0.00  0.00    +0.000 A 
ATOM     21  N   UNL     1      44.522   4.912  12.509  0.00  0.00    +0.000 NA
ATOM     22  C   UNL     1      45.126   5.973  13.092  0.00  0.00    +0.000 A 
BRANCH  20  23
ATOM     23  C   UNL     1      44.157   3.461  10.565  0.00  0.00    +0.000 C 
BRANCH  23  24
ATOM     24  N   UNL     1      45.138   2.456  10.134  0.00  0.00    +0.000 NA
ATOM     25  H   UNL     1      45.086   1.650  10.760  0.00  0.00    +0.000 HD
BRANCH  24  26
ATOM     26  C   UNL     1      44.950   2.028   8.737  0.00  0.00    +0.000 C 
ATOM     27  C   UNL     1      46.215   1.576   8.027  0.00  0.00    +0.000 C 
ATOM     28  C   UNL     1      46.861   2.879   7.613  0.00  0.00    +0.000 C 
ATOM     29  O   UNL     1      45.797   3.809   7.371  0.00  0.00    +0.000 OA
ATOM     30  C   UNL     1      44.573   3.233   7.862  0.00  0.00    +0.000 C 
ENDBRANCH  24  26
ENDBRANCH  23  24
ENDBRANCH  20  23
ENDBRANCH  16  17
ENDBRANCH   3  16
TORSDOF 6
ENDMDL
MODEL 2
REMARK VINA RESULT:    -6.968      4.047      8.883
REMARK INTER + INTRA:         -10.311
REMARK INTER:                  -9.567
REMARK INTRA:                  -0.744
REMARK UNBOUND:                -0.898
REMARK  Name = 
REMARK  6 active torsions:
REMARK  status: ('A' for Active; 'I' for Inactive)
REMARK    1  A    between atoms: C_2  and  C_18
REMARK    2  A    between atoms: N_3  and  C_4
REMARK    3  A    between atoms: C_4  and  C_5
REMARK    4  A    between atoms: C_8  and  C_9
REMARK    5  A    between atoms: C_9  and  N_10
REMARK    6  A    between atoms: N_10  and  C_11
REMARK                            x       y       z     vdW  Elec       q    Type
REMARK                         _______ _______ _______ _____ _____    ______ ____
ROOT
ATOM      1  O   UNL     1      47.392   3.221  14.017  0.00  0.00    +0.000 OA
ATOM      2  C   UNL     1      46.820   4.200  14.481  0.00  0.00    +0.000 C 
ATOM      3  N   UNL     1      46.649   4.383  15.828  0.00  0.00    +0.000 N 
ATOM      4  H   UNL     1      46.031   5.118  16.158  0.00  0.00    +0.000 HD
ENDROOT
BRANCH   2   5
ATOM      5  C   UNL     1      46.327   5.279  13.614  0.00  0.00    +0.000 A 
ATOM      6  C   UNL     1      47.130   6.384  13.369  0.00  0.00    +0.000 A 
ATOM      7  S   UNL     1      46.411   7.533  12.335  0.00  0.00    +0.000 S 
ATOM      8  C   UNL     1      45.018   6.574  12.147  0.00  0.00    +0.000 A 
ATOM      9  N   UNL     1      44.002   6.968  11.333  0.00  0.00    +0.000 NA
ATOM     10  C   UNL     1      43.025   6.124  11.253  0.00  0.00    +0.000 A 
ATOM     11  N   UNL     1      42.966   4.933  11.930  0.00  0.00    +0.000 N 
ATOM     12  C   UNL     1      43.927   4.534  12.828  0.00  0.00    +0.000 A 
ATOM     13  O   UNL     1      43.774   3.538  13.525  0.00  0.00    +0.000 OA
ATOM     14  C   UNL     1      45.079   5.413  12.898  0.00  0.00    +0.000 A 
ATOM     15  H   UNL     1      42.153   4.339  11.853  0.00  0.00    +0.000 HD
ENDBRANCH   2   5
BRANCH   3  16
ATOM     16  C   UNL     1      47.062   3.403  16.799  0.00  0.00    +0.000 C 
BRANCH  16  17
ATOM     17  C   UNL     1      48.525   3.499  17.102  0.00  0.00    +0.000 A 
ATOM     18  C   UNL     1      49.117   4.713  17.453  0.00  0.00    +0.000 A 
ATOM     19  C   UNL     1      50.471   4.756  17.773  0.00  0.00    +0.000 A 
ATOM     20  C   UNL     1      51.211   3.577  17.724  0.00  0.00    +0.000 A 
ATOM     21  N   UNL     1      50.665   2.390  17.351  0.00  0.00    +0.000 NA
ATOM     22  C   UNL     1      49.349   2.382  17.042  0.00  0.00    +0.000 A 
BRANCH  20  23
ATOM     23  C   UNL     1      52.679   3.574  18.102  0.00  0.00    +0.000 C 
BRANCH  23  24
ATOM     24  N   UNL     1      53.067   2.363  18.838  0.00  0.00    +0.000 NA
ATOM     25  H   UNL     1      52.301   1.688  18.793  0.00  0.00    +0.000 HD
BRANCH  24  26
ATOM     26  C   UNL     1      54.311   1.756  18.336  0.00  0.00    +0.000 C 
ATOM     27  C   UNL     1      54.118   0.590  17.380  0.00  0.00    +0.000 C 
ATOM     28  C   UNL     1      53.845  -0.572  18.308  0.00  0.00    +0.000 C 
ATOM     29  O   UNL     1      54.572  -0.316  19.516  0.00  0.00    +0.000 OA
ATOM     30  C   UNL     1      55.049   1.042  19.478  0.00  0.00    +0.000 C 
ENDBRANCH  24  26
ENDBRANCH  23  24
ENDBRANCH  20  23
ENDBRANCH  16  17
ENDBRANCH   3  16
TORSDOF 6
ENDMDL
MODEL 3
REMARK VINA RESULT:    -6.872      1.641      1.964
REMARK INTER + INTRA:         -10.181
REMARK INTER:                  -9.372
REMARK INTRA:                  -0.809
REMARK UNBOUND:                -0.898
REMARK  Name = 
REMARK  6 active torsions:
REMARK  status: ('A' for Active; 'I' for Inactive)
REMARK    1  A    between atoms: C_2  and  C_18
REMARK    2  A    between atoms: N_3  and  C_4
REMARK    3  A    between atoms: C_4  and  C_5
REMARK    4  A    between atoms: C_8  and  C_9
REMARK    5  A    between atoms: C_9  and  N_10
REMARK    6  A    between atoms: N_10  and  C_11
REMARK                            x       y       z     vdW  Elec       q    Type
REMARK                         _______ _______ _______ _____ _____    ______ ____
ROOT
ATOM      1  O   UNL     1      50.393   6.691  15.470  0.00  0.00    +0.000 OA
ATOM      2  C   UNL     1      49.283   6.964  15.908  0.00  0.00    +0.000 C 
ATOM      3  N   UNL     1      48.212   7.220  15.092  0.00  0.00    +0.000 N 
ATOM      4  H   UNL     1      47.359   7.601  15.492  0.00  0.00    +0.000 HD
ENDROOT
BRANCH   2   5
ATOM      5  C   UNL     1      49.012   6.977  17.352  0.00  0.00    +0.000 A 
ATOM      6  C   UNL     1      48.661   8.168  17.974  0.00  0.00    +0.000 A 
ATOM      7  S   UNL     1      48.370   8.004  19.645  0.00  0.00    +0.000 S 
ATOM      8  C   UNL     1      48.664   6.329  19.589  0.00  0.00    +0.000 A 
ATOM      9  N   UNL     1      48.539   5.559  20.702  0.00  0.00    +0.000 NA
ATOM     10  C   UNL     1      48.752   4.298  20.506  0.00  0.00    +0.000 A 
ATOM     11  N   UNL     1      49.099   3.745  19.300  0.00  0.00    +0.000 N 
ATOM     12  C   UNL     1      49.321   4.494  18.169  0.00  0.00    +0.000 A 
ATOM     13  O   UNL     1      49.773   3.988  17.148  0.00  0.00    +0.000 OA
ATOM     14  C   UNL     1      49.023   5.905  18.321  0.00  0.00    +0.000 A 
ATOM     15  H   UNL     1      49.291   2.756  19.226  0.00  0.00    +0.000 HD
ENDBRANCH   2   5
BRANCH   3  16
ATOM     16  C   UNL     1      48.327   7.262  13.658  0.00  0.00    +0.000 C 
BRANCH  16  17
ATOM     17  C   UNL     1      47.348   6.345  12.991  0.00  0.00    +0.000 A 
ATOM     18  C   UNL     1      46.907   5.177  13.614  0.00  0.00    +0.000 A 
ATOM     19  C   UNL     1      45.962   4.372  12.985  0.00  0.00    +0.000 A 
ATOM     20  C   UNL     1      45.484   4.750  11.732  0.00  0.00    +0.000 A 
ATOM     21  N   UNL     1      45.925   5.863  11.091  0.00  0.00    +0.000 NA
ATOM     22  C   UNL     1      46.846   6.622  11.726  0.00  0.00    +0.000 A 
BRANCH  20  23
ATOM     23  C   UNL     1      44.426   3.921  11.030  0.00  0.00    +0.000 C 
BRANCH  23  24
ATOM     24  N   UNL     1      44.944   2.623  10.573  0.00  0.00    +0.000 NA
ATOM     25  H   UNL     1      44.617   1.893  11.209  0.00  0.00    +0.000 HD
BRANCH  24  26
ATOM     26  C   UNL     1      44.558   2.304   9.189  0.00  0.00    +0.000 C 
ATOM     27  C   UNL     1      45.544   1.430   8.432  0.00  0.00    +0.000 C 
ATOM     28  C   UNL     1      46.601   2.413   7.983  0.00  0.00    +0.000 C 
ATOM     29  O   UNL     1      45.938   3.667   7.777  0.00  0.00    +0.000 OA
ATOM     30  C   UNL     1      44.609   3.570   8.321  0.00  0.00    +0.000 C 
ENDBRANCH  24  26
ENDBRANCH  23  24
ENDBRANCH  20  23
ENDBRANCH  16  17
ENDBRANCH   3  16
TORSDOF 6
ENDMDL
MODEL 4
REMARK VINA RESULT:    -6.860      1.798      2.462
REMARK INTER + INTRA:         -10.165
REMARK INTER:                  -9.553
REMARK INTRA:                  -0.612
REMARK UNBOUND:                -0.898
REMARK  Name = 
REMARK  6 active torsions:
REMARK  status: ('A' for Active; 'I' for Inactive)
REMARK    1  A    between atoms: C_2  and  C_18
REMARK    2  A    between atoms: N_3  and  C_4
REMARK    3  A    between atoms: C_4  and  C_5
REMARK    4  A    between atoms: C_8  and  C_9
REMARK    5  A    between atoms: C_9  and  N_10
REMARK    6  A    between atoms: N_10  and  C_11
REMARK                            x       y       z     vdW  Elec       q    Type
REMARK                         _______ _______ _______ _____ _____    ______ ____
ROOT
ATOM      1  O   UNL     1      48.872   6.220  14.052  0.00  0.00    +0.000 OA
ATOM      2  C   UNL     1      47.885   5.850  14.675  0.00  0.00    +0.000 C 
ATOM      3  N   UNL     1      46.620   5.900  14.148  0.00  0.00    +0.000 N 
ATOM      4  H   UNL     1      45.820   5.740  14.752  0.00  0.00    +0.000 HD
ENDROOT
BRANCH   2   5
ATOM      5  C   UNL     1      48.002   5.270  16.019  0.00  0.00    +0.000 A 
ATOM      6  C   UNL     1      47.618   3.953  16.235  0.00  0.00    +0.000 A 
ATOM      7  S   UNL     1      47.831   3.436  17.846  0.00  0.00    +0.000 S 
ATOM      8  C   UNL     1      48.481   4.942  18.301  0.00  0.00    +0.000 A 
ATOM      9  N   UNL     1      48.918   5.159  19.570  0.00  0.00    +0.000 NA
ATOM     10  C   UNL     1      49.425   6.333  19.766  0.00  0.00    +0.000 A 
ATOM     11  N   UNL     1      49.514   7.313  18.810  0.00  0.00    +0.000 N 
ATOM     12  C   UNL     1      49.009   7.168  17.540  0.00  0.00    +0.000 A 
ATOM     13  O   UNL     1      48.970   8.111  16.758  0.00  0.00    +0.000 OA
ATOM     14  C   UNL     1      48.495   5.843  17.250  0.00  0.00    +0.000 A 
ATOM     15  H   UNL     1      49.885   8.223  19.042  0.00  0.00    +0.000 HD
ENDBRANCH   2   5
BRANCH   3  16
ATOM     16  C   UNL     1      46.346   6.460  12.850  0.00  0.00    +0.000 C 
BRANCH  16  17
ATOM     17  C   UNL     1      45.789   5.439  11.907  0.00  0.00    +0.000 A 
ATOM     18  C   UNL     1      45.502   5.757  10.579  0.00  0.00    +0.000 A 
ATOM     19  C   UNL     1      45.029   4.771   9.717  0.00  0.00    +0.000 A 
ATOM     20  C   UNL     1      44.841   3.482  10.211  0.00  0.00    +0.000 A 
ATOM     21  N   UNL     1      45.078   3.157  11.508  0.00  0.00    +0.000 NA
ATOM     22  C   UNL     1      45.533   4.138  12.320  0.00  0.00    +0.000 A 
BRANCH  20  23
ATOM     23  C   UNL     1      44.362   2.371   9.297  0.00  0.00    +0.000 C 
BRANCH  23  24
ATOM     24  N   UNL     1      45.013   2.409   7.980  0.00  0.00    +0.000 NA
ATOM     25  H   UNL     1      44.751   3.275   7.505  0.00  0.00    +0.000 HD
BRANCH  24  26
ATOM     26  C   UNL     1      46.479   2.294   8.057  0.00  0.00    +0.000 C 
ATOM     27  C   UNL     1      47.245   3.175   7.086  0.00  0.00    +0.000 C 
ATOM     28  C   UNL     1      47.184   2.394   5.792  0.00  0.00    +0.000 C 
ATOM     29  O   UNL     1      47.153   1.006   6.149  0.00  0.00    +0.000 OA
ATOM     30  C   UNL     1      46.926   0.909   7.567  0.00  0.00    +0.000 C 
ENDBRANCH  24  26
ENDBRANCH  23  24
ENDBRANCH  20  23
ENDBRANCH  16  17
ENDBRANCH   3  16
TORSDOF 6
ENDMDL
MODEL 5
REMARK VINA RESULT:    -6.833      3.055      7.596
REMARK INTER + INTRA:         -10.128
REMARK INTER:                  -9.050
REMARK INTRA:                  -1.078
REMARK UNBOUND:                -0.898
REMARK  Name = 
REMARK  6 active torsions:
REMARK  status: ('A' for Active; 'I' for Inactive)
REMARK    1  A    between atoms: C_2  and  C_18
REMARK    2  A    between atoms: N_3  and  C_4
REMARK    3  A    between atoms: C_4  and  C_5
REMARK    4  A    between atoms: C_8  and  C_9
REMARK    5  A    between atoms: C_9  and  N_10
REMARK    6  A    between atoms: N_10  and  C_11
REMARK                            x       y       z     vdW  Elec       q    Type
REMARK                         _______ _______ _______ _____ _____    ______ ____
ROOT
ATOM      1  O   UNL     1      45.289   7.846  11.888  0.00  0.00    +0.000 OA
ATOM      2  C   UNL     1      46.028   6.955  11.487  0.00  0.00    +0.000 C 
ATOM      3  N   UNL     1      47.386   6.989  11.670  0.00  0.00    +0.000 N 
ATOM      4  H   UNL     1      47.973   6.319  11.181  0.00  0.00    +0.000 HD
ENDROOT
BRANCH   2   5
ATOM      5  C   UNL     1      45.495   5.756  10.828  0.00  0.00    +0.000 A 
ATOM      6  C   UNL     1      45.769   5.530   9.486  0.00  0.00    +0.000 A 
ATOM      7  S   UNL     1      45.085   4.089   8.883  0.00  0.00    +0.000 S 
ATOM      8  C   UNL     1      44.433   3.698  10.405  0.00  0.00    +0.000 A 
ATOM      9  N   UNL     1      43.747   2.539  10.594  0.00  0.00    +0.000 NA
ATOM     10  C   UNL     1      43.343   2.350  11.809  0.00  0.00    +0.000 A 
ATOM     11  N   UNL     1      43.547   3.226  12.843  0.00  0.00    +0.000 N 
ATOM     12  C   UNL     1      44.159   4.447  12.681  0.00  0.00    +0.000 A 
ATOM     13  O   UNL     1      44.194   5.269  13.589  0.00  0.00    +0.000 OA
ATOM     14  C   UNL     1      44.694   4.673  11.351  0.00  0.00    +0.000 A 
ATOM     15  H   UNL     1      43.169   3.036  13.760  0.00  0.00    +0.000 HD
ENDBRANCH   2   5
BRANCH   3  16
ATOM     16  C   UNL     1      48.056   8.107  12.281  0.00  0.00    +0.000 C 
BRANCH  16  17
ATOM     17  C   UNL     1      48.381   7.846  13.719  0.00  0.00    +0.000 A 
ATOM     18  C   UNL     1      48.384   8.875  14.662  0.00  0.00    +0.000 A 
ATOM     19  C   UNL     1      48.645   8.589  15.999  0.00  0.00    +0.000 A 
ATOM     20  C   UNL     1      48.911   7.271  16.363  0.00  0.00    +0.000 A 
ATOM     21  N   UNL     1      48.949   6.259  15.459  0.00  0.00    +0.000 NA
ATOM     22  C   UNL     1      48.695   6.570  14.168  0.00  0.00    +0.000 A 
BRANCH  20  23
ATOM     23  C   UNL     1      49.163   6.911  17.815  0.00  0.00    +0.000 C 
BRANCH  23  24
ATOM     24  N   UNL     1      49.571   5.509  17.982  0.00  0.00    +0.000 NA
ATOM     25  H   UNL     1      50.513   5.482  18.379  0.00  0.00    +0.000 HD
BRANCH  24  26
ATOM     26  C   UNL     1      48.642   4.734  18.820  0.00  0.00    +0.000 C 
ATOM     27  C   UNL     1      48.533   3.260  18.466  0.00  0.00    +0.000 C 
ATOM     28  C   UNL     1      47.582   3.259  17.291  0.00  0.00    +0.000 C 
ATOM     29  O   UNL     1      46.685   4.360  17.484  0.00  0.00    +0.000 OA
ATOM     30  C   UNL     1      47.195   5.177  18.554  0.00  0.00    +0.000 C 
ENDBRANCH  24  26
ENDBRANCH  23  24
ENDBRANCH  20  23
ENDBRANCH  16  17
ENDBRANCH   3  16
TORSDOF 6
ENDMDL
MODEL 6
REMARK VINA RESULT:    -6.687      2.626      3.143
REMARK INTER + INTRA:          -9.931
REMARK INTER:                  -9.017
REMARK INTRA:                  -0.914
REMARK UNBOUND:                -0.898
REMARK  Name = 
REMARK  6 active torsions:
REMARK  status: ('A' for Active; 'I' for Inactive)
REMARK    1  A    between atoms: C_2  and  C_18
REMARK    2  A    between atoms: N_3  and  C_4
REMARK    3  A    between atoms: C_4  and  C_5
REMARK    4  A    between atoms: C_8  and  C_9
REMARK    5  A    between atoms: C_9  and  N_10
REMARK    6  A    between atoms: N_10  and  C_11
REMARK                            x       y       z     vdW  Elec       q    Type
REMARK                         _______ _______ _______ _____ _____    ______ ____
ROOT
ATOM      1  O   UNL     1      50.061   5.851  16.216  0.00  0.00    +0.000 OA
ATOM      2  C   UNL     1      49.030   6.439  16.520  0.00  0.00    +0.000 C 
ATOM      3  N   UNL     1      48.192   6.987  15.585  0.00  0.00    +0.000 N 
ATOM      4  H   UNL     1      47.442   7.603  15.885  0.00  0.00    +0.000 HD
ENDROOT
BRANCH   2   5
ATOM      5  C   UNL     1      48.595   6.546  17.919  0.00  0.00    +0.000 A 
ATOM      6  C   UNL     1      48.673   5.437  18.750  0.00  0.00    +0.000 A 
ATOM      7  S   UNL     1      48.141   5.738  20.341  0.00  0.00    +0.000 S 
ATOM      8  C   UNL     1      47.825   7.372  19.986  0.00  0.00    +0.000 A 
ATOM      9  N   UNL     1      47.378   8.222  20.947  0.00  0.00    +0.000 NA
ATOM     10  C   UNL     1      47.220   9.443  20.549  0.00  0.00    +0.000 A 
ATOM     11  N   UNL     1      47.450   9.881  19.270  0.00  0.00    +0.000 N 
ATOM     12  C   UNL     1      47.819   9.041  18.246  0.00  0.00    +0.000 A 
ATOM     13  O   UNL     1      47.872   9.434  17.086  0.00  0.00    +0.000 OA
ATOM     14  C   UNL     1      48.080   7.675  18.660  0.00  0.00    +0.000 A 
ATOM     15  H   UNL     1      47.266  10.841  19.015  0.00  0.00    +0.000 HD
ENDBRANCH   2   5
BRANCH   3  16
ATOM     16  C   UNL     1      48.495   6.978  14.177  0.00  0.00    +0.000 C 
BRANCH  16  17
ATOM     17  C   UNL     1      47.504   6.170  13.397  0.00  0.00    +0.000 A 
ATOM     18  C   UNL     1      46.938   5.009  13.924  0.00  0.00    +0.000 A 
ATOM     19  C   UNL     1      45.986   4.308  13.190  0.00  0.00    +0.000 A 
ATOM     20  C   UNL     1      45.627   4.781  11.930  0.00  0.00    +0.000 A 
ATOM     21  N   UNL     1      46.191   5.888  11.381  0.00  0.00    +0.000 NA
ATOM     22  C   UNL     1      47.115   6.545  12.117  0.00  0.00    +0.000 A 
BRANCH  20  23
ATOM     23  C   UNL     1      44.567   4.068  11.113  0.00  0.00    +0.000 C 
BRANCH  23  24
ATOM     24  N   UNL     1      45.054   2.804  10.543  0.00  0.00    +0.000 NA
ATOM     25  H   UNL     1      44.750   2.032  11.140  0.00  0.00    +0.000 HD
BRANCH  24  26
ATOM     26  C   UNL     1      44.606   2.585   9.158  0.00  0.00    +0.000 C 
ATOM     27  C   UNL     1      45.616   1.894   8.257  0.00  0.00    +0.000 C 
ATOM     28  C   UNL     1      46.541   3.020   7.852  0.00  0.00    +0.000 C 
ATOM     29  O   UNL     1      45.748   4.213   7.817  0.00  0.00    +0.000 OA
ATOM     30  C   UNL     1      44.475   3.929   8.426  0.00  0.00    +0.000 C 
ENDBRANCH  24  26
ENDBRANCH  23  24
ENDBRANCH  20  23
ENDBRANCH  16  17
ENDBRANCH   3  16
TORSDOF 6
ENDMDL
MODEL 7
REMARK VINA RESULT:    -6.472      4.228      8.636
REMARK INTER + INTRA:          -9.640
REMARK INTER:                  -8.624
REMARK INTRA:                  -1.016
REMARK UNBOUND:                -0.898
REMARK  Name = 
REMARK  6 active torsions:
REMARK  status: ('A' for Active; 'I' for Inactive)
REMARK    1  A    between atoms: C_2  and  C_18
REMARK    2  A    between atoms: N_3  and  C_4
REMARK    3  A    between atoms: C_4  and  C_5
REMARK    4  A    between atoms: C_8  and  C_9
REMARK    5  A    between atoms: C_9  and  N_10
REMARK    6  A    between atoms: N_10  and  C_11
REMARK                            x       y       z     vdW  Elec       q    Type
REMARK                         _______ _______ _______ _____ _____    ______ ____
ROOT
ATOM      1  O   UNL     1      47.194   3.223  14.011  0.00  0.00    +0.000 OA
ATOM      2  C   UNL     1      46.975   4.345  14.451  0.00  0.00    +0.000 C 
ATOM      3  N   UNL     1      47.008   4.630  15.791  0.00  0.00    +0.000 N 
ATOM      4  H   UNL     1      46.661   5.526  16.120  0.00  0.00    +0.000 HD
ENDROOT
BRANCH   2   5
ATOM      5  C   UNL     1      46.715   5.480  13.555  0.00  0.00    +0.000 A 
ATOM      6  C   UNL     1      45.600   5.462  12.729  0.00  0.00    +0.000 A 
ATOM      7  S   UNL     1      45.442   6.860  11.765  0.00  0.00    +0.000 S 
ATOM      8  C   UNL     1      46.837   7.555  12.448  0.00  0.00    +0.000 A 
ATOM      9  N   UNL     1      47.247   8.799  12.085  0.00  0.00    +0.000 NA
ATOM     10  C   UNL     1      48.298   9.219  12.712  0.00  0.00    +0.000 A 
ATOM     11  N   UNL     1      48.984   8.496  13.654  0.00  0.00    +0.000 N 
ATOM     12  C   UNL     1      48.657   7.204  13.991  0.00  0.00    +0.000 A 
ATOM     13  O   UNL     1      49.375   6.535  14.724  0.00  0.00    +0.000 OA
ATOM     14  C   UNL     1      47.442   6.715  13.367  0.00  0.00    +0.000 A 
ATOM     15  H   UNL     1      49.822   8.869  14.077  0.00  0.00    +0.000 HD
ENDBRANCH   2   5
BRANCH   3  16
ATOM     16  C   UNL     1      47.230   3.618  16.790  0.00  0.00    +0.000 C 
BRANCH  16  17
ATOM     17  C   UNL     1      48.684   3.457  17.110  0.00  0.00    +0.000 A 
ATOM     18  C   UNL     1      49.429   4.506  17.650  0.00  0.00    +0.000 A 
ATOM     19  C   UNL     1      50.768   4.307  17.978  0.00  0.00    +0.000 A 
ATOM     20  C   UNL     1      51.337   3.057  17.746  0.00  0.00    +0.000 A 
ATOM     21  N   UNL     1      50.642   2.032  17.188  0.00  0.00    +0.000 NA
ATOM     22  C   UNL     1      49.345   2.258  16.877  0.00  0.00    +0.000 A 
BRANCH  20  23
ATOM     23  C   UNL     1      52.781   2.787  18.124  0.00  0.00    +0.000 C 
BRANCH  23  24
ATOM     24  N   UNL     1      53.001   1.396  18.542  0.00  0.00    +0.000 NA
ATOM     25  H   UNL     1      52.455   0.777  17.938  0.00  0.00    +0.000 HD
BRANCH  24  26
ATOM     26  C   UNL     1      54.420   1.005  18.524  0.00  0.00    +0.000 C 
ATOM     27  C   UNL     1      55.099   1.113  17.169  0.00  0.00    +0.000 C 
ATOM     28  C   UNL     1      54.671  -0.157  16.468  0.00  0.00    +0.000 C 
ATOM     29  O   UNL     1      54.509  -1.155  17.484  0.00  0.00    +0.000 OA
ATOM     30  C   UNL     1      54.555  -0.505  18.768  0.00  0.00    +0.000 C 
ENDBRANCH  24  26
ENDBRANCH  23  24
ENDBRANCH  20  23
ENDBRANCH  16  17
ENDBRANCH   3  16
TORSDOF 6
ENDMDL
MODEL 8
REMARK VINA RESULT:    -6.372      2.452      3.158
REMARK INTER + INTRA:          -9.506
REMARK INTER:                  -8.210
REMARK INTRA:                  -1.296
REMARK UNBOUND:                -0.898
REMARK  Name = 
REMARK  6 active torsions:
REMARK  status: ('A' for Active; 'I' for Inactive)
REMARK    1  A    between atoms: C_2  and  C_18
REMARK    2  A    between atoms: N_3  and  C_4
REMARK    3  A    between atoms: C_4  and  C_5
REMARK    4  A    between atoms: C_8  and  C_9
REMARK    5  A    between atoms: C_9  and  N_10
REMARK    6  A    between atoms: N_10  and  C_11
REMARK                            x       y       z     vdW  Elec       q    Type
REMARK                         _______ _______ _______ _____ _____    ______ ____
ROOT
ATOM      1  O   UNL     1      48.230   8.937  16.485  0.00  0.00    +0.000 OA
ATOM      2  C   UNL     1      48.711   7.840  16.229  0.00  0.00    +0.000 C 
ATOM      3  N   UNL     1      49.112   7.489  14.966  0.00  0.00    +0.000 N 
ATOM      4  H   UNL     1      49.349   6.522  14.768  0.00  0.00    +0.000 HD
ENDROOT
BRANCH   2   5
ATOM      5  C   UNL     1      48.944   6.843  17.281  0.00  0.00    +0.000 A 
ATOM      6  C   UNL     1      49.590   7.217  18.452  0.00  0.00    +0.000 A 
ATOM      7  S   UNL     1      49.766   5.943  19.571  0.00  0.00    +0.000 S 
ATOM      8  C   UNL     1      48.951   4.857  18.546  0.00  0.00    +0.000 A 
ATOM      9  N   UNL     1      48.719   3.574  18.930  0.00  0.00    +0.000 NA
ATOM     10  C   UNL     1      48.054   2.871  18.071  0.00  0.00    +0.000 A 
ATOM     11  N   UNL     1      47.620   3.333  16.856  0.00  0.00    +0.000 N 
ATOM     12  C   UNL     1      47.906   4.594  16.389  0.00  0.00    +0.000 A 
ATOM     13  O   UNL     1      47.633   4.927  15.241  0.00  0.00    +0.000 OA
ATOM     14  C   UNL     1      48.587   5.444  17.347  0.00  0.00    +0.000 A 
ATOM     15  H   UNL     1      47.141   2.718  16.214  0.00  0.00    +0.000 HD
ENDBRANCH   2   5
BRANCH   3  16
ATOM     16  C   UNL     1      48.929   8.354  13.829  0.00  0.00    +0.000 C 
BRANCH  16  17
ATOM     17  C   UNL     1      47.685   8.019  13.066  0.00  0.00    +0.000 A 
ATOM     18  C   UNL     1      47.641   6.938  12.186  0.00  0.00    +0.000 A 
ATOM     19  C   UNL     1      46.453   6.628  11.529  0.00  0.00    +0.000 A 
ATOM     20  C   UNL     1      45.331   7.420  11.760  0.00  0.00    +0.000 A 
ATOM     21  N   UNL     1      45.359   8.499  12.584  0.00  0.00    +0.000 NA
ATOM     22  C   UNL     1      46.528   8.777  13.205  0.00  0.00    +0.000 A 
BRANCH  20  23
ATOM     23  C   UNL     1      44.009   7.094  11.092  0.00  0.00    +0.000 C 
BRANCH  23  24
ATOM     24  N   UNL     1      43.947   5.704  10.620  0.00  0.00    +0.000 NA
ATOM     25  H   UNL     1      44.876   5.284  10.701  0.00  0.00    +0.000 HD
BRANCH  24  26
ATOM     26  C   UNL     1      42.955   4.893  11.345  0.00  0.00    +0.000 C 
ATOM     27  C   UNL     1      42.893   5.139  12.843  0.00  0.00    +0.000 C 
ATOM     28  C   UNL     1      44.049   4.323  13.374  0.00  0.00    +0.000 C 
ATOM     29  O   UNL     1      44.193   3.194  12.502  0.00  0.00    +0.000 OA
ATOM     30  C   UNL     1      43.375   3.415  11.338  0.00  0.00    +0.000 C 
ENDBRANCH  24  26
ENDBRANCH  23  24
ENDBRANCH  20  23
ENDBRANCH  16  17
ENDBRANCH   3  16
TORSDOF 6
ENDMDL
