MODEL 1
REMARK VINA RESULT:    -8.048      0.000      0.000
REMARK INTER + INTRA:         -12.879
REMARK INTER:                 -11.811
REMARK INTRA:                  -1.068
REMARK UNBOUND:                -1.068
REMARK  Name = 
REMARK  9 active torsions:
REMARK  status: ('A' for Active; 'I' for Inactive)
REMARK    1  A    between atoms: C_1  and  O_2
REMARK    2  A    between atoms: O_2  and  C_3
REMARK    3  A    between atoms: C_10  and  C_11
REMARK    4  A    between atoms: N_13  and  C_14
REMARK    5  A    between atoms: C_14  and  C_15
REMARK    6  A    between atoms: C_18  and  C_19
REMARK    7  A    between atoms: C_19  and  S_20
REMARK    8  A    between atoms: S_20  and  C_21
REMARK    9  A    between atoms: C_21  and  C_22
REMARK                            x       y       z     vdW  Elec       q    Type
REMARK                         _______ _______ _______ _____ _____    ______ ____
ROOT
ATOM      1  C   UNL     1      47.923   7.788  13.487  0.00  0.00    +0.000 C 
ENDROOT
BRANCH   1   2
ATOM      2  C   UNL     1      46.794   6.954  12.937  0.00  0.00    +0.000 A 
ATOM      3  C   UNL     1      46.660   5.610  13.305  0.00  0.00    +0.000 A 
ATOM      4  C   UNL     1      45.627   4.827  12.781  0.00  0.00    +0.000 A 
ATOM      5  C   UNL     1      44.699   5.370  11.881  0.00  0.00    +0.000 A 
ATOM      6  C   UNL     1      44.859   6.706  11.483  0.00  0.00    +0.000 A 
ATOM      7  C   UNL     1      45.896   7.488  12.002  0.00  0.00    +0.000 A 
BRANCH   5   8
ATOM      8  C   UNL     1      43.583   4.531  11.307  0.00  0.00    +0.000 C 
BRANCH   8   9
ATOM      9  S   UNL     1      44.135   3.083  10.353  0.00  0.00    +0.000 S 
BRANCH   9  10
ATOM     10  C   UNL     1      44.658   3.896   8.808  0.00  0.00    +0.000 C 
BRANCH  10  11
ATOM     11  C   UNL     1      45.653   3.040   8.059  0.00  0.00    +0.000 A 
ATOM     12  C   UNL     1      46.345   3.558   6.953  0.00  0.00    +0.000 A 
ATOM     13  C   UNL     1      47.246   2.762   6.242  0.00  0.00    +0.000 A 
ATOM     14  C   UNL     1      47.462   1.439   6.624  0.00  0.00    +0.000 A 
ATOM     15  C   UNL     1      46.775   0.912   7.716  0.00  0.00    +0.000 A 
ATOM     16  C   UNL     1      45.874   1.706   8.430  0.00  0.00    +0.000 A 
ENDBRANCH  10  11
ENDBRANCH   9  10
ENDBRANCH   8   9
ENDBRANCH   5   8
ENDBRANCH   1   2
BRANCH   1  19
ATOM     17  C   UNL     1      48.982   7.155  15.620  0.00  0.00    +0.000 C 
ATOM     18  O   UNL     1      49.945   6.666  15.035  0.00  0.00    +0.000 OA
ATOM     19  N   UNL     1      47.950   7.724  14.926  0.00  0.00    +0.000 N 
ATOM     20  H   UNL     1      47.156   8.101  15.422  0.00  0.00    +0.000 HD
BRANCH  17  28
ATOM     21  C   UNL     1      48.781   4.632  17.954  0.00  0.00    +0.000 A 
ATOM     22  N   UNL     1      48.735   3.862  19.060  0.00  0.00    +0.000 NA
ATOM     23  C   UNL     1      48.696   4.472  20.248  0.00  0.00    +0.000 A 
ATOM     24  N   UNL     1      48.690   5.782  20.475  0.00  0.00    +0.000 NA
ATOM     25  C   UNL     1      48.748   6.512  19.350  0.00  0.00    +0.000 A 
ATOM     26  S   UNL     1      48.741   8.207  19.449  0.00  0.00    +0.000 S 
ATOM     27  C   UNL     1      48.841   8.357  17.760  0.00  0.00    +0.000 A 
ATOM     28  C   UNL     1      48.884   7.141  17.088  0.00  0.00    +0.000 A 
ATOM     29  C   UNL     1      48.812   6.036  18.043  0.00  0.00    +0.000 A 
BRANCH  21  31
ATOM     30  C   UNL     1      47.576   3.541  16.269  0.00  0.00    +0.000 C 
ATOM     31  O   UNL     1      48.843   4.004  16.729  0.00  0.00    +0.000 OA
ENDBRANCH  21  31
ENDBRANCH  17  28
ENDBRANCH   1  19
TORSDOF 8
ENDMDL
MODEL 2
REMARK VINA RESULT:    -7.704      1.628      2.792
REMARK INTER + INTRA:         -12.375
REMARK INTER:                 -11.215
REMARK INTRA:                  -1.159
REMARK UNBOUND:                -1.068
REMARK  Name = 
REMARK  9 active torsions:
REMARK  status: ('A' for Active; 'I' for Inactive)
REMARK    1  A    between atoms: C_1  and  O_2
REMARK    2  A    between atoms: O_2  and  C_3
REMARK    3  A    between atoms: C_10  and  C_11
REMARK    4  A    between atoms: N_13  and  C_14
REMARK    5  A    between atoms: C_14  and  C_15
REMARK    6  A    between atoms: C_18  and  C_19
REMARK    7  A    between atoms: C_19  and  S_20
REMARK    8  A    between atoms: S_20  and  C_21
REMARK    9  A    between atoms: C_21  and  C_22
REMARK                            x       y       z     vdW  Elec       q    Type
REMARK                         _______ _______ _______ _____ _____    ______ ____
ROOT
ATOM      1  C   UNL     1      48.401   7.012  14.112  0.00  0.00    +0.000 C 
ENDROOT
BRANCH   1   2
ATOM      2  C   UNL     1      47.285   6.274  13.417  0.00  0.00    +0.000 A 
ATOM      3  C   UNL     1      46.766   6.749  12.206  0.00  0.00    +0.000 A 
ATOM      4  C   UNL     1      45.717   6.079  11.569  0.00  0.00    +0.000 A 
ATOM      5  C   UNL     1      45.165   4.915  12.123  0.00  0.00    +0.000 A 
ATOM      6  C   UNL     1      45.660   4.464  13.355  0.00  0.00    +0.000 A 
ATOM      7  C   UNL     1      46.705   5.137  13.997  0.00  0.00    +0.000 A 
BRANCH   5   8
ATOM      8  C   UNL     1      44.030   4.189  11.443  0.00  0.00    +0.000 C 
BRANCH   8   9
ATOM      9  S   UNL     1      44.125   4.160   9.626  0.00  0.00    +0.000 S 
BRANCH   9  10
ATOM     10  C   UNL     1      44.683   2.445   9.362  0.00  0.00    +0.000 C 
BRANCH  10  11
ATOM     11  C   UNL     1      45.674   2.371   8.223  0.00  0.00    +0.000 A 
ATOM     12  C   UNL     1      46.454   1.219   8.032  0.00  0.00    +0.000 A 
ATOM     13  C   UNL     1      47.389   1.157   6.996  0.00  0.00    +0.000 A 
ATOM     14  C   UNL     1      47.560   2.246   6.143  0.00  0.00    +0.000 A 
ATOM     15  C   UNL     1      46.798   3.398   6.327  0.00  0.00    +0.000 A 
ATOM     16  C   UNL     1      45.861   3.463   7.362  0.00  0.00    +0.000 A 
ENDBRANCH  10  11
ENDBRANCH   9  10
ENDBRANCH   8   9
ENDBRANCH   5   8
ENDBRANCH   1   2
BRANCH   1  19
ATOM     17  C   UNL     1      49.293   6.564  16.365  0.00  0.00    +0.000 C 
ATOM     18  O   UNL     1      50.404   6.304  15.910  0.00  0.00    +0.000 OA
ATOM     19  N   UNL     1      48.259   6.920  15.543  0.00  0.00    +0.000 N 
ATOM     20  H   UNL     1      47.347   7.109  15.932  0.00  0.00    +0.000 HD
BRANCH  17  28
ATOM     21  C   UNL     1      47.807   8.724  18.596  0.00  0.00    +0.000 A 
ATOM     22  N   UNL     1      47.245   9.344  19.653  0.00  0.00    +0.000 NA
ATOM     23  C   UNL     1      47.256   8.713  20.829  0.00  0.00    +0.000 A 
ATOM     24  N   UNL     1      47.775   7.516  21.091  0.00  0.00    +0.000 NA
ATOM     25  C   UNL     1      48.314   6.929  20.010  0.00  0.00    +0.000 A 
ATOM     26  S   UNL     1      49.031   5.397  20.160  0.00  0.00    +0.000 S 
ATOM     27  C   UNL     1      49.419   5.361  18.506  0.00  0.00    +0.000 A 
ATOM     28  C   UNL     1      49.017   6.494  17.809  0.00  0.00    +0.000 A 
ATOM     29  C   UNL     1      48.368   7.440  18.716  0.00  0.00    +0.000 A 
BRANCH  21  31
ATOM     30  C   UNL     1      48.921  10.185  17.143  0.00  0.00    +0.000 C 
ATOM     31  O   UNL     1      47.777   9.367  17.376  0.00  0.00    +0.000 OA
ENDBRANCH  21  31
ENDBRANCH  17  28
ENDBRANCH   1  19
TORSDOF 8
ENDMDL
MODEL 3
REMARK VINA RESULT:    -7.593      2.672      3.225
REMARK INTER + INTRA:         -12.212
REMARK INTER:                 -11.095
REMARK INTRA:                  -1.116
REMARK UNBOUND:                -1.068
REMARK  Name = 
REMARK  9 active torsions:
REMARK  status: ('A' for Active; 'I' for Inactive)
REMARK    1  A    between atoms: C_1  and  O_2
REMARK    2  A    between atoms: O_2  and  C_3
REMARK    3  A    between atoms: C_10  and  C_11
REMARK    4  A    between atoms: N_13  and  C_14
REMARK    5  A    between atoms: C_14  and  C_15
REMARK    6  A    between atoms: C_18  and  C_19
REMARK    7  A    between atoms: C_19  and  S_20
REMARK    8  A    between atoms: S_20  and  C_21
REMARK    9  A    between atoms: C_21  and  C_22
REMARK                            x       y       z     vdW  Elec       q    Type
REMARK                         _______ _______ _______ _____ _____    ______ ____
ROOT
ATOM      1  C   UNL     1      49.220   7.034  15.810  0.00  0.00    +0.000 C 
ENDROOT
BRANCH   1   2
ATOM      2  C   UNL     1      48.259   6.345  14.875  0.00  0.00    +0.000 A 
ATOM      3  C   UNL     1      47.496   5.257  15.316  0.00  0.00    +0.000 A 
ATOM      4  C   UNL     1      46.619   4.602  14.447  0.00  0.00    +0.000 A 
ATOM      5  C   UNL     1      46.478   5.022  13.117  0.00  0.00    +0.000 A 
ATOM      6  C   UNL     1      47.272   6.088  12.666  0.00  0.00    +0.000 A 
ATOM      7  C   UNL     1      48.154   6.739  13.534  0.00  0.00    +0.000 A 
BRANCH   5   8
ATOM      8  C   UNL     1      45.537   4.318  12.170  0.00  0.00    +0.000 C 
BRANCH   8   9
ATOM      9  S   UNL     1      44.788   5.390  10.904  0.00  0.00    +0.000 S 
BRANCH   9  10
ATOM     10  C   UNL     1      44.016   4.131   9.834  0.00  0.00    +0.000 C 
BRANCH  10  11
ATOM     11  C   UNL     1      45.051   3.458   8.962  0.00  0.00    +0.000 A 
ATOM     12  C   UNL     1      45.831   4.214   8.072  0.00  0.00    +0.000 A 
ATOM     13  C   UNL     1      46.770   3.594   7.245  0.00  0.00    +0.000 A 
ATOM     14  C   UNL     1      46.937   2.210   7.295  0.00  0.00    +0.000 A 
ATOM     15  C   UNL     1      46.164   1.448   8.169  0.00  0.00    +0.000 A 
ATOM     16  C   UNL     1      45.225   2.067   8.997  0.00  0.00    +0.000 A 
ENDBRANCH  10  11
ENDBRANCH   9  10
ENDBRANCH   8   9
ENDBRANCH   5   8
ENDBRANCH   1   2
BRANCH   1  19
ATOM     17  C   UNL     1      50.396   5.928  17.672  0.00  0.00    +0.000 C 
ATOM     18  O   UNL     1      49.763   6.576  18.501  0.00  0.00    +0.000 OA
ATOM     19  N   UNL     1      50.184   6.099  16.331  0.00  0.00    +0.000 N 
ATOM     20  H   UNL     1      50.728   5.574  15.663  0.00  0.00    +0.000 HD
BRANCH  17  28
ATOM     21  C   UNL     1      50.703   2.524  17.262  0.00  0.00    +0.000 A 
ATOM     22  N   UNL     1      51.091   1.233  17.210  0.00  0.00    +0.000 NA
ATOM     23  C   UNL     1      52.257   0.906  17.773  0.00  0.00    +0.000 A 
ATOM     24  N   UNL     1      53.100   1.721  18.400  0.00  0.00    +0.000 NA
ATOM     25  C   UNL     1      52.682   2.997  18.420  0.00  0.00    +0.000 A 
ATOM     26  S   UNL     1      53.631   4.177  19.187  0.00  0.00    +0.000 S 
ATOM     27  C   UNL     1      52.520   5.400  18.792  0.00  0.00    +0.000 A 
ATOM     28  C   UNL     1      51.417   4.949  18.075  0.00  0.00    +0.000 A 
ATOM     29  C   UNL     1      51.509   3.505  17.867  0.00  0.00    +0.000 A 
BRANCH  21  31
ATOM     30  C   UNL     1      48.388   2.749  17.534  0.00  0.00    +0.000 C 
ATOM     31  O   UNL     1      49.509   2.866  16.663  0.00  0.00    +0.000 OA
ENDBRANCH  21  31
ENDBRANCH  17  28
ENDBRANCH   1  19
TORSDOF 8
ENDMDL
MODEL 4
REMARK VINA RESULT:    -7.547      1.376      1.724
REMARK INTER + INTRA:         -12.144
REMARK INTER:                 -11.156
REMARK INTRA:                  -0.989
REMARK UNBOUND:                -1.068
REMARK  Name = 
REMARK  9 active torsions:
REMARK  status: ('A' for Active; 'I' for Inactive)
REMARK    1  A    between atoms: C_1  and  O_2
REMARK    2  A    between atoms: O_2  and  C_3
REMARK    3  A    between atoms: C_10  and  C_11
REMARK    4  A    between atoms: N_13  and  C_14
REMARK    5  A    between atoms: C_14  and  C_15
REMARK    6  A    between atoms: C_18  and  C_19
REMARK    7  A    between atoms: C_19  and  S_20
REMARK    8  A    between atoms: S_20  and  C_21
REMARK    9  A    between atoms: C_21  and  C_22
REMARK                            x       y       z     vdW  Elec       q    Type
REMARK                         _______ _______ _______ _____ _____    ______ ____
ROOT
ATOM      1  C   UNL     1      47.642   8.557  13.550  0.00  0.00    +0.000 C 
ENDROOT
BRANCH   1   2
ATOM      2  C   UNL     1      46.947   7.295  13.105  0.00  0.00    +0.000 A 
ATOM      3  C   UNL     1      47.184   6.084  13.767  0.00  0.00    +0.000 A 
ATOM      4  C   UNL     1      46.558   4.907  13.346  0.00  0.00    +0.000 A 
ATOM      5  C   UNL     1      45.675   4.914  12.257  0.00  0.00    +0.000 A 
ATOM      6  C   UNL     1      45.469   6.120  11.571  0.00  0.00    +0.000 A 
ATOM      7  C   UNL     1      46.100   7.296  11.988  0.00  0.00    +0.000 A 
BRANCH   5   8
ATOM      8  C   UNL     1      44.998   3.647  11.792  0.00  0.00    +0.000 C 
BRANCH   8   9
ATOM      9  S   UNL     1      44.150   3.782  10.188  0.00  0.00    +0.000 S 
BRANCH   9  10
ATOM     10  C   UNL     1      44.544   2.150   9.478  0.00  0.00    +0.000 C 
BRANCH  10  11
ATOM     11  C   UNL     1      45.599   2.271   8.402  0.00  0.00    +0.000 A 
ATOM     12  C   UNL     1      45.774   3.481   7.712  0.00  0.00    +0.000 A 
ATOM     13  C   UNL     1      46.729   3.591   6.699  0.00  0.00    +0.000 A 
ATOM     14  C   UNL     1      47.517   2.491   6.360  0.00  0.00    +0.000 A 
ATOM     15  C   UNL     1      47.347   1.283   7.033  0.00  0.00    +0.000 A 
ATOM     16  C   UNL     1      46.393   1.171   8.048  0.00  0.00    +0.000 A 
ENDBRANCH  10  11
ENDBRANCH   9  10
ENDBRANCH   8   9
ENDBRANCH   5   8
ENDBRANCH   1   2
BRANCH   1  19
ATOM     17  C   UNL     1      48.483   8.819  15.851  0.00  0.00    +0.000 C 
ATOM     18  O   UNL     1      49.644   8.667  15.480  0.00  0.00    +0.000 OA
ATOM     19  N   UNL     1      47.446   8.778  14.960  0.00  0.00    +0.000 N 
ATOM     20  H   UNL     1      46.496   8.883  15.285  0.00  0.00    +0.000 HD
BRANCH  17  28
ATOM     21  C   UNL     1      47.986   6.705  18.522  0.00  0.00    +0.000 A 
ATOM     22  N   UNL     1      47.785   6.124  19.722  0.00  0.00    +0.000 NA
ATOM     23  C   UNL     1      47.535   6.916  20.768  0.00  0.00    +0.000 A 
ATOM     24  N   UNL     1      47.451   8.244  20.765  0.00  0.00    +0.000 NA
ATOM     25  C   UNL     1      47.668   8.782  19.554  0.00  0.00    +0.000 A 
ATOM     26  S   UNL     1      47.592  10.467  19.361  0.00  0.00    +0.000 S 
ATOM     27  C   UNL     1      47.959  10.345  17.707  0.00  0.00    +0.000 A 
ATOM     28  C   UNL     1      48.149   9.040  17.267  0.00  0.00    +0.000 A 
ATOM     29  C   UNL     1      47.958   8.104  18.373  0.00  0.00    +0.000 A 
BRANCH  21  31
ATOM     30  C   UNL     1      48.676   4.578  17.825  0.00  0.00    +0.000 C 
ATOM     31  O   UNL     1      48.265   5.889  17.446  0.00  0.00    +0.000 OA
ENDBRANCH  21  31
ENDBRANCH  17  28
ENDBRANCH   1  19
TORSDOF 8
ENDMDL
MODEL 5
REMARK VINA RESULT:    -7.376      1.881      2.291
REMARK INTER + INTRA:         -11.893
REMARK INTER:                 -10.945
REMARK INTRA:                  -0.948
REMARK UNBOUND:                -1.068
REMARK  Name = 
REMARK  9 active torsions:
REMARK  status: ('A' for Active; 'I' for Inactive)
REMARK    1  A    between atoms: C_1  and  O_2
REMARK    2  A    between atoms: O_2  and  C_3
REMARK    3  A    between atoms: C_10  and  C_11
REMARK    4  A    between atoms: N_13  and  C_14
REMARK    5  A    between atoms: C_14  and  C_15
REMARK    6  A    between atoms: C_18  and  C_19
REMARK    7  A    between atoms: C_19  and  S_20
REMARK    8  A    between atoms: S_20  and  C_21
REMARK    9  A    between atoms: C_21  and  C_22
REMARK                            x       y       z     vdW  Elec       q    Type
REMARK                         _______ _______ _______ _____ _____    ______ ____
ROOT
ATOM      1  C   UNL     1      48.034   7.779  14.080  0.00  0.00    +0.000 C 
ENDROOT
BRANCH   1   2
ATOM      2  C   UNL     1      47.078   6.801  13.446  0.00  0.00    +0.000 A 
ATOM      3  C   UNL     1      46.166   7.229  12.472  0.00  0.00    +0.000 A 
ATOM      4  C   UNL     1      45.264   6.329  11.897  0.00  0.00    +0.000 A 
ATOM      5  C   UNL     1      45.255   4.979  12.275  0.00  0.00    +0.000 A 
ATOM      6  C   UNL     1      46.142   4.561  13.278  0.00  0.00    +0.000 A 
ATOM      7  C   UNL     1      47.041   5.462  13.859  0.00  0.00    +0.000 A 
BRANCH   5   8
ATOM      8  C   UNL     1      44.281   4.003  11.662  0.00  0.00    +0.000 C 
BRANCH   8   9
ATOM      9  S   UNL     1      44.185   4.063   9.846  0.00  0.00    +0.000 S 
BRANCH   9  10
ATOM     10  C   UNL     1      44.725   2.371   9.439  0.00  0.00    +0.000 C 
BRANCH  10  11
ATOM     11  C   UNL     1      45.699   2.379   8.283  0.00  0.00    +0.000 A 
ATOM     12  C   UNL     1      45.861   3.533   7.499  0.00  0.00    +0.000 A 
ATOM     13  C   UNL     1      46.740   3.537   6.413  0.00  0.00    +0.000 A 
ATOM     14  C   UNL     1      47.462   2.388   6.095  0.00  0.00    +0.000 A 
ATOM     15  C   UNL     1      47.305   1.235   6.861  0.00  0.00    +0.000 A 
ATOM     16  C   UNL     1      46.427   1.228   7.948  0.00  0.00    +0.000 A 
ENDBRANCH  10  11
ENDBRANCH   9  10
ENDBRANCH   8   9
ENDBRANCH   5   8
ENDBRANCH   1   2
BRANCH   1  19
ATOM     17  C   UNL     1      49.324   7.199  16.097  0.00  0.00    +0.000 C 
ATOM     18  O   UNL     1      48.609   7.909  16.799  0.00  0.00    +0.000 OA
ATOM     19  N   UNL     1      49.102   7.085  14.752  0.00  0.00    +0.000 N 
ATOM     20  H   UNL     1      49.713   6.514  14.187  0.00  0.00    +0.000 HD
BRANCH  17  28
ATOM     21  C   UNL     1      49.780   3.894  16.948  0.00  0.00    +0.000 A 
ATOM     22  N   UNL     1      50.237   2.682  17.320  0.00  0.00    +0.000 NA
ATOM     23  C   UNL     1      51.494   2.593  17.762  0.00  0.00    +0.000 A 
ATOM     24  N   UNL     1      52.370   3.586  17.889  0.00  0.00    +0.000 NA
ATOM     25  C   UNL     1      51.880   4.773  17.498  0.00  0.00    +0.000 A 
ATOM     26  S   UNL     1      52.858   6.157  17.597  0.00  0.00    +0.000 S 
ATOM     27  C   UNL     1      51.624   7.137  16.964  0.00  0.00    +0.000 A 
ATOM     28  C   UNL     1      50.456   6.447  16.662  0.00  0.00    +0.000 A 
ATOM     29  C   UNL     1      50.606   5.032  16.998  0.00  0.00    +0.000 A 
BRANCH  21  31
ATOM     30  C   UNL     1      47.503   3.719  17.466  0.00  0.00    +0.000 C 
ATOM     31  O   UNL     1      48.489   3.983  16.472  0.00  0.00    +0.000 OA
ENDBRANCH  21  31
ENDBRANCH  17  28
ENDBRANCH   1  19
TORSDOF 8
ENDMDL
MODEL 6
REMARK VINA RESULT:    -7.132      1.653      3.119
REMARK INTER + INTRA:         -11.535
REMARK INTER:                 -10.331
REMARK INTRA:                  -1.204
REMARK UNBOUND:                -1.068
REMARK  Name = 
REMARK  9 active torsions:
REMARK  status: ('A' for Active; 'I' for Inactive)
REMARK    1  A    between atoms: C_1  and  O_2
REMARK    2  A    between atoms: O_2  and  C_3
REMARK    3  A    between atoms: C_10  and  C_11
REMARK    4  A    between atoms: N_13  and  C_14
REMARK    5  A    between atoms: C_14  and  C_15
REMARK    6  A    between atoms: C_18  and  C_19
REMARK    7  A    between atoms: C_19  and  S_20
REMARK    8  A    between atoms: S_20  and  C_21
REMARK    9  A    between atoms: C_21  and  C_22
REMARK                            x       y       z     vdW  Elec       q    Type
REMARK                         _______ _______ _______ _____ _____    ______ ____
ROOT
ATOM      1  C   UNL     1      47.719   4.030  15.795  0.00  0.00    +0.000 C 
ENDROOT
BRANCH   1   2
ATOM      2  C   UNL     1      47.016   4.345  14.499  0.00  0.00    +0.000 A 
ATOM      3  C   UNL     1      46.835   5.673  14.095  0.00  0.00    +0.000 A 
ATOM      4  C   UNL     1      46.165   5.970  12.904  0.00  0.00    +0.000 A 
ATOM      5  C   UNL     1      45.666   4.947  12.085  0.00  0.00    +0.000 A 
ATOM      6  C   UNL     1      45.815   3.619  12.512  0.00  0.00    +0.000 A 
ATOM      7  C   UNL     1      46.479   3.321  13.706  0.00  0.00    +0.000 A 
BRANCH   5   8
ATOM      8  C   UNL     1      44.938   5.260  10.800  0.00  0.00    +0.000 C 
BRANCH   8   9
ATOM      9  S   UNL     1      44.158   3.824  10.000  0.00  0.00    +0.000 S 
BRANCH   9  10
ATOM     10  C   UNL     1      44.624   4.132   8.264  0.00  0.00    +0.000 C 
BRANCH  10  11
ATOM     11  C   UNL     1      45.666   3.140   7.802  0.00  0.00    +0.000 A 
ATOM     12  C   UNL     1      46.559   3.474   6.772  0.00  0.00    +0.000 A 
ATOM     13  C   UNL     1      47.506   2.552   6.324  0.00  0.00    +0.000 A 
ATOM     14  C   UNL     1      47.569   1.281   6.896  0.00  0.00    +0.000 A 
ATOM     15  C   UNL     1      46.683   0.935   7.914  0.00  0.00    +0.000 A 
ATOM     16  C   UNL     1      45.735   1.857   8.365  0.00  0.00    +0.000 A 
ENDBRANCH  10  11
ENDBRANCH   9  10
ENDBRANCH   8   9
ENDBRANCH   5   8
ENDBRANCH   1   2
BRANCH   1  19
ATOM     17  C   UNL     1      48.379   5.270  17.819  0.00  0.00    +0.000 C 
ATOM     18  O   UNL     1      49.303   4.491  18.036  0.00  0.00    +0.000 OA
ATOM     19  N   UNL     1      47.558   5.107  16.737  0.00  0.00    +0.000 N 
ATOM     20  H   UNL     1      46.790   5.744  16.586  0.00  0.00    +0.000 HD
BRANCH  17  28
ATOM     21  C   UNL     1      48.206   8.674  17.339  0.00  0.00    +0.000 A 
ATOM     22  N   UNL     1      48.038  10.009  17.426  0.00  0.00    +0.000 NA
ATOM     23  C   UNL     1      47.720  10.526  18.615  0.00  0.00    +0.000 A 
ATOM     24  N   UNL     1      47.551   9.864  19.756  0.00  0.00    +0.000 NA
ATOM     25  C   UNL     1      47.715   8.538  19.625  0.00  0.00    +0.000 A 
ATOM     26  S   UNL     1      47.544   7.534  20.983  0.00  0.00    +0.000 S 
ATOM     27  C   UNL     1      47.864   6.144  20.059  0.00  0.00    +0.000 A 
ATOM     28  C   UNL     1      48.102   6.404  18.714  0.00  0.00    +0.000 A 
ATOM     29  C   UNL     1      48.028   7.842  18.459  0.00  0.00    +0.000 A 
BRANCH  21  31
ATOM     30  C   UNL     1      49.903   8.203  15.796  0.00  0.00    +0.000 C 
ATOM     31  O   UNL     1      48.514   8.138  16.107  0.00  0.00    +0.000 OA
ENDBRANCH  21  31
ENDBRANCH  17  28
ENDBRANCH   1  19
TORSDOF 8
ENDMDL
MODEL 7
REMARK VINA RESULT:    -7.081      3.652      8.936
REMARK INTER + INTRA:         -11.460
REMARK INTER:                  -9.047
REMARK INTRA:                  -2.413
REMARK UNBOUND:                -1.068
REMARK  Name = 
REMARK  9 active torsions:
REMARK  status: ('A' for Active; 'I' for Inactive)
REMARK    1  A    between atoms: C_1  and  O_2
REMARK    2  A    between atoms: O_2  and  C_3
REMARK    3  A    between atoms: C_10  and  C_11
REMARK    4  A    between atoms: N_13  and  C_14
REMARK    5  A    between atoms: C_14  and  C_15
REMARK    6  A    between atoms: C_18  and  C_19
REMARK    7  A    between atoms: C_19  and  S_20
REMARK    8  A    between atoms: S_20  and  C_21
REMARK    9  A    between atoms: C_21  and  C_22
REMARK                            x       y       z     vdW  Elec       q    Type
REMARK                         _______ _______ _______ _____ _____    ______ ____
ROOT
ATOM      1  C   UNL     1      47.151   3.383  16.957  0.00  0.00    +0.000 C 
ENDROOT
BRANCH   1   2
ATOM      2  C   UNL     1      48.458   3.708  17.634  0.00  0.00    +0.000 A 
ATOM      3  C   UNL     1      49.658   3.162  17.161  0.00  0.00    +0.000 A 
ATOM      4  C   UNL     1      50.870   3.445  17.799  0.00  0.00    +0.000 A 
ATOM      5  C   UNL     1      50.913   4.285  18.920  0.00  0.00    +0.000 A 
ATOM      6  C   UNL     1      49.706   4.800  19.415  0.00  0.00    +0.000 A 
ATOM      7  C   UNL     1      48.492   4.512  18.782  0.00  0.00    +0.000 A 
BRANCH   5   8
ATOM      8  C   UNL     1      52.217   4.592  19.616  0.00  0.00    +0.000 C 
BRANCH   8   9
ATOM      9  S   UNL     1      53.589   5.029  18.504  0.00  0.00    +0.000 S 
BRANCH   9  10
ATOM     10  C   UNL     1      53.342   6.832  18.384  0.00  0.00    +0.000 C 
BRANCH  10  11
ATOM     11  C   UNL     1      52.032   7.152  17.701  0.00  0.00    +0.000 A 
ATOM     12  C   UNL     1      51.060   7.926  18.354  0.00  0.00    +0.000 A 
ATOM     13  C   UNL     1      49.838   8.203  17.737  0.00  0.00    +0.000 A 
ATOM     14  C   UNL     1      49.571   7.704  16.463  0.00  0.00    +0.000 A 
ATOM     15  C   UNL     1      50.525   6.928  15.807  0.00  0.00    +0.000 A 
ATOM     16  C   UNL     1      51.748   6.651  16.422  0.00  0.00    +0.000 A 
ENDBRANCH  10  11
ENDBRANCH   9  10
ENDBRANCH   8   9
ENDBRANCH   5   8
ENDBRANCH   1   2
BRANCH   1  19
ATOM     17  C   UNL     1      46.933   4.203  14.644  0.00  0.00    +0.000 C 
ATOM     18  O   UNL     1      47.345   3.138  14.192  0.00  0.00    +0.000 OA
ATOM     19  N   UNL     1      46.810   4.397  15.992  0.00  0.00    +0.000 N 
ATOM     20  H   UNL     1      46.491   5.286  16.347  0.00  0.00    +0.000 HD
BRANCH  17  28
ATOM     21  C   UNL     1      44.198   4.842  12.652  0.00  0.00    +0.000 A 
ATOM     22  N   UNL     1      43.251   5.355  11.842  0.00  0.00    +0.000 NA
ATOM     23  C   UNL     1      43.472   6.555  11.299  0.00  0.00    +0.000 A 
ATOM     24  N   UNL     1      44.547   7.321  11.461  0.00  0.00    +0.000 NA
ATOM     25  C   UNL     1      45.461   6.779  12.282  0.00  0.00    +0.000 A 
ATOM     26  S   UNL     1      46.904   7.615  12.598  0.00  0.00    +0.000 S 
ATOM     27  C   UNL     1      47.452   6.383  13.631  0.00  0.00    +0.000 A 
ATOM     28  C   UNL     1      46.563   5.322  13.762  0.00  0.00    +0.000 A 
ATOM     29  C   UNL     1      45.377   5.554  12.940  0.00  0.00    +0.000 A 
BRANCH  21  31
ATOM     30  C   UNL     1      43.566   2.616  12.291  0.00  0.00    +0.000 C 
ATOM     31  O   UNL     1      43.961   3.613  13.230  0.00  0.00    +0.000 OA
ENDBRANCH  21  31
ENDBRANCH  17  28
ENDBRANCH   1  19
TORSDOF 8
ENDMDL
MODEL 8
REMARK VINA RESULT:    -7.006      1.851      2.777
REMARK INTER + INTRA:         -11.350
REMARK INTER:                 -10.182
REMARK INTRA:                  -1.168
REMARK UNBOUND:                -1.068
REMARK  Name = 
REMARK  9 active torsions:
REMARK  status: ('A' for Active; 'I' for Inactive)
REMARK    1  A    between atoms: C_1  and  O_2
REMARK    2  A    between atoms: O_2  and  C_3
REMARK    3  A    between atoms: C_10  and  C_11
REMARK    4  A    between atoms: N_13  and  C_14
REMARK    5  A    between atoms: C_14  and  C_15
REMARK    6  A    between atoms: C_18  and  C_19
REMARK    7  A    between atoms: C_19  and  S_20
REMARK    8  A    between atoms: S_20  and  C_21
REMARK    9  A    between atoms: C_21  and  C_22
REMARK                            x       y       z     vdW  Elec       q    Type
REMARK                         _______ _______ _______ _____ _____    ______ ____
ROOT
ATOM      1  C   UNL     1      47.570   3.546  15.468  0.00  0.00    +0.000 C 
ENDROOT
BRANCH   1   2
ATOM      2  C   UNL     1      46.882   4.150  14.270  0.00  0.00    +0.000 A 
ATOM      3  C   UNL     1      46.164   3.340  13.381  0.00  0.00    +0.000 A 
ATOM      4  C   UNL     1      45.542   3.893  12.258  0.00  0.00    +0.000 A 
ATOM      5  C   UNL     1      45.616   5.269  11.999  0.00  0.00    +0.000 A 
ATOM      6  C   UNL     1      46.368   6.072  12.870  0.00  0.00    +0.000 A 
ATOM      7  C   UNL     1      46.996   5.519  13.990  0.00  0.00    +0.000 A 
BRANCH   5   8
ATOM      8  C   UNL     1      44.951   5.873  10.786  0.00  0.00    +0.000 C 
BRANCH   8   9
ATOM      9  S   UNL     1      45.772   5.502   9.205  0.00  0.00    +0.000 S 
BRANCH   9  10
ATOM     10  C   UNL     1      44.840   4.018   8.701  0.00  0.00    +0.000 C 
BRANCH  10  11
ATOM     11  C   UNL     1      45.731   3.052   7.954  0.00  0.00    +0.000 A 
ATOM     12  C   UNL     1      45.867   1.725   8.393  0.00  0.00    +0.000 A 
ATOM     13  C   UNL     1      46.709   0.837   7.720  0.00  0.00    +0.000 A 
ATOM     14  C   UNL     1      47.428   1.264   6.604  0.00  0.00    +0.000 A 
ATOM     15  C   UNL     1      47.306   2.580   6.164  0.00  0.00    +0.000 A 
ATOM     16  C   UNL     1      46.464   3.471   6.834  0.00  0.00    +0.000 A 
ENDBRANCH  10  11
ENDBRANCH   9  10
ENDBRANCH   8   9
ENDBRANCH   5   8
ENDBRANCH   1   2
BRANCH   1  19
ATOM     17  C   UNL     1      47.706   4.854  17.551  0.00  0.00    +0.000 C 
ATOM     18  O   UNL     1      46.768   4.232  18.043  0.00  0.00    +0.000 OA
ATOM     19  N   UNL     1      48.156   4.573  16.291  0.00  0.00    +0.000 N 
ATOM     20  H   UNL     1      48.914   5.108  15.894  0.00  0.00    +0.000 HD
BRANCH  17  28
ATOM     21  C   UNL     1      51.001   5.802  17.863  0.00  0.00    +0.000 A 
ATOM     22  N   UNL     1      52.178   6.405  18.122  0.00  0.00    +0.000 NA
ATOM     23  C   UNL     1      52.171   7.487  18.904  0.00  0.00    +0.000 A 
ATOM     24  N   UNL     1      51.112   8.052  19.480  0.00  0.00    +0.000 NA
ATOM     25  C   UNL     1      49.959   7.428  19.188  0.00  0.00    +0.000 A 
ATOM     26  S   UNL     1      48.504   8.007  19.843  0.00  0.00    +0.000 S 
ATOM     27  C   UNL     1      47.609   6.796  19.057  0.00  0.00    +0.000 A 
ATOM     28  C   UNL     1      48.382   5.935  18.286  0.00  0.00    +0.000 A 
ATOM     29  C   UNL     1      49.793   6.307  18.378  0.00  0.00    +0.000 A 
BRANCH  21  31
ATOM     30  C   UNL     1      51.235   3.475  17.735  0.00  0.00    +0.000 C 
ATOM     31  O   UNL     1      51.006   4.697  17.038  0.00  0.00    +0.000 OA
ENDBRANCH  21  31
ENDBRANCH  17  28
ENDBRANCH   1  19
TORSDOF 8
ENDMDL
MODEL 9
REMARK VINA RESULT:    -6.994      1.792      2.630
REMARK INTER + INTRA:         -11.332
REMARK INTER:                 -10.133
REMARK INTRA:                  -1.199
REMARK UNBOUND:                -1.068
REMARK  Name = 
REMARK  9 active torsions:
REMARK  status: ('A' for Active; 'I' for Inactive)
REMARK    1  A    between atoms: C_1  and  O_2
REMARK    2  A    between atoms: O_2  and  C_3
REMARK    3  A    between atoms: C_10  and  C_11
REMARK    4  A    between atoms: N_13  and  C_14
REMARK    5  A    between atoms: C_14  and  C_15
REMARK    6  A    between atoms: C_18  and  C_19
REMARK    7  A    between atoms: C_19  and  S_20
REMARK    8  A    between atoms: S_20  and  C_21
REMARK    9  A    between atoms: C_21  and  C_22
REMARK                            x       y       z     vdW  Elec       q    Type
REMARK                         _______ _______ _______ _____ _____    ______ ____
ROOT
ATOM      1  C   UNL     1      47.922   4.922  15.148  0.00  0.00    +0.000 C 
ENDROOT
BRANCH   1   2
ATOM      2  C   UNL     1      46.902   4.914  14.038  0.00  0.00    +0.000 A 
ATOM      3  C   UNL     1      46.407   6.117  13.520  0.00  0.00    +0.000 A 
ATOM      4  C   UNL     1      45.445   6.114  12.505  0.00  0.00    +0.000 A 
ATOM      5  C   UNL     1      44.961   4.908  11.978  0.00  0.00    +0.000 A 
ATOM      6  C   UNL     1      45.429   3.705  12.525  0.00  0.00    +0.000 A 
ATOM      7  C   UNL     1      46.386   3.707  13.545  0.00  0.00    +0.000 A 
BRANCH   5   8
ATOM      8  C   UNL     1      43.919   4.896  10.885  0.00  0.00    +0.000 C 
BRANCH   8   9
ATOM      9  S   UNL     1      44.049   3.498   9.727  0.00  0.00    +0.000 S 
BRANCH   9  10
ATOM     10  C   UNL     1      45.113   4.241   8.446  0.00  0.00    +0.000 C 
BRANCH  10  11
ATOM     11  C   UNL     1      45.957   3.185   7.768  0.00  0.00    +0.000 A 
ATOM     12  C   UNL     1      46.611   3.467   6.559  0.00  0.00    +0.000 A 
ATOM     13  C   UNL     1      47.371   2.487   5.916  0.00  0.00    +0.000 A 
ATOM     14  C   UNL     1      47.481   1.212   6.472  0.00  0.00    +0.000 A 
ATOM     15  C   UNL     1      46.830   0.919   7.669  0.00  0.00    +0.000 A 
ATOM     16  C   UNL     1      46.070   1.898   8.314  0.00  0.00    +0.000 A 
ENDBRANCH  10  11
ENDBRANCH   9  10
ENDBRANCH   8   9
ENDBRANCH   5   8
ENDBRANCH   1   2
BRANCH   1  19
ATOM     17  C   UNL     1      49.044   6.980  15.908  0.00  0.00    +0.000 C 
ATOM     18  O   UNL     1      50.106   6.629  15.399  0.00  0.00    +0.000 OA
ATOM     19  N   UNL     1      47.928   6.194  15.825  0.00  0.00    +0.000 N 
ATOM     20  H   UNL     1      47.070   6.488  16.267  0.00  0.00    +0.000 HD
BRANCH  17  28
ATOM     21  C   UNL     1      47.773   7.825  18.993  0.00  0.00    +0.000 A 
ATOM     22  N   UNL     1      47.392   8.417  20.143  0.00  0.00    +0.000 NA
ATOM     23  C   UNL     1      47.588   9.732  20.267  0.00  0.00    +0.000 A 
ATOM     24  N   UNL     1      48.122  10.550  19.364  0.00  0.00    +0.000 NA
ATOM     25  C   UNL     1      48.498   9.920  18.239  0.00  0.00    +0.000 A 
ATOM     26  S   UNL     1      49.193  10.810  16.973  0.00  0.00    +0.000 S 
ATOM     27  C   UNL     1      49.376   9.414  16.023  0.00  0.00    +0.000 A 
ATOM     28  C   UNL     1      48.923   8.252  16.638  0.00  0.00    +0.000 A 
ATOM     29  C   UNL     1      48.382   8.560  17.960  0.00  0.00    +0.000 A 
BRANCH  21  31
ATOM     30  C   UNL     1      48.657   5.701  19.433  0.00  0.00    +0.000 C 
ATOM     31  O   UNL     1      47.591   6.463  18.874  0.00  0.00    +0.000 OA
ENDBRANCH  21  31
ENDBRANCH  17  28
ENDBRANCH   1  19
TORSDOF 8
ENDMDL
