MODEL 1
REMARK VINA RESULT:    -8.487      0.000      0.000
REMARK INTER + INTRA:         -11.904
REMARK INTER:                 -10.967
REMARK INTRA:                  -0.937
REMARK UNBOUND:                -0.937
REMARK  Name = 
REMARK  5 active torsions:
REMARK  status: ('A' for Active; 'I' for Inactive)
REMARK    1  A    between atoms: C_2  and  C_4
REMARK    2  A    between atoms: C_7  and  O_8
REMARK    3  A    between atoms: O_8  and  C_9
REMARK    4  A    between atoms: C_9  and  C_10
REMARK    5  A    between atoms: C_12  and  N_13
REMARK                            x       y       z     vdW  Elec       q    Type
REMARK                         _______ _______ _______ _____ _____    ______ ____
ROOT
ATOM      1  C   UNL     1      43.506   4.386  11.159  0.00  0.00    +0.000 C 
ENDROOT
BRANCH   1   2
ATOM      2  C   UNL     1      44.658   4.994  11.915  0.00  0.00    +0.000 A 
ATOM      3  C   UNL     1      44.808   6.385  12.016  0.00  0.00    +0.000 A 
ATOM      4  C   UNL     1      45.850   6.982  12.745  0.00  0.00    +0.000 A 
ATOM      5  C   UNL     1      46.759   6.123  13.377  0.00  0.00    +0.000 A 
ATOM      6  C   UNL     1      46.614   4.735  13.317  0.00  0.00    +0.000 A 
ATOM      7  C   UNL     1      45.562   4.185  12.597  0.00  0.00    +0.000 A 
ATOM      8  F   UNL     1      45.423   2.851  12.574  0.00  0.00    +0.000 F 
BRANCH   4   9
ATOM      9  N   UNL     1      45.945   8.351  12.833  0.00  0.00    +0.000 N 
ATOM     10  C   UNL     1      44.839   9.266  12.534  0.00  0.00    +0.000 C 
ATOM     11  C   UNL     1      45.278  10.296  11.483  0.00  0.00    +0.000 C 
ATOM     12  O   UNL     1      46.488  10.973  11.867  0.00  0.00    +0.000 OA
ATOM     13  C   UNL     1      47.552  10.025  12.052  0.00  0.00    +0.000 C 
ATOM     14  C   UNL     1      47.217   9.013  13.157  0.00  0.00    +0.000 C 
ENDBRANCH   4   9
ENDBRANCH   1   2
BRANCH   1  15
ATOM     15  O   UNL     1      43.585   4.716   9.760  0.00  0.00    +0.000 OA
BRANCH  15  19
ATOM     16  C   UNL     1      46.394   2.435   7.798  0.00  0.00    +0.000 A 
ATOM     17  C   UNL     1      45.492   1.813   8.665  0.00  0.00    +0.000 A 
ATOM     18  C   UNL     1      44.544   2.592   9.335  0.00  0.00    +0.000 A 
ATOM     19  C   UNL     1      44.537   3.962   9.106  0.00  0.00    +0.000 A 
ATOM     20  N   UNL     1      45.406   4.585   8.282  0.00  0.00    +0.000 NA
ATOM     21  C   UNL     1      46.319   3.812   7.656  0.00  0.00    +0.000 A 
BRANCH  16  23
ATOM     22  N   UNL     1      48.391   2.461   6.420  0.00  0.00    +0.000 N 
ATOM     23  C   UNL     1      47.433   1.711   7.041  0.00  0.00    +0.000 C 
ATOM     24  O   UNL     1      47.462   0.489   7.006  0.00  0.00    +0.000 OA
ATOM     25  H   UNL     1      49.160   1.945   6.010  0.00  0.00    +0.000 HD
ATOM     26  H   UNL     1      48.551   3.432   6.649  0.00  0.00    +0.000 HD
ENDBRANCH  16  23
ENDBRANCH  15  19
ENDBRANCH   1  15
TORSDOF 5
ENDMDL
MODEL 2
REMARK VINA RESULT:    -7.874      1.550      2.126
REMARK INTER + INTRA:         -11.113
REMARK INTER:                 -10.544
REMARK INTRA:                  -0.569
REMARK UNBOUND:                -0.937
REMARK  Name = 
REMARK  5 active torsions:
REMARK  status: ('A' for Active; 'I' for Inactive)
REMARK    1  A    between atoms: C_2  and  C_4
REMARK    2  A    between atoms: C_7  and  O_8
REMARK    3  A    between atoms: O_8  and  C_9
REMARK    4  A    between atoms: C_9  and  C_10
REMARK    5  A    between atoms: C_12  and  N_13
REMARK                            x       y       z     vdW  Elec       q    Type
REMARK                         _______ _______ _______ _____ _____    ______ ____
ROOT
ATOM      1  C   UNL     1      43.739   5.013  10.627  0.00  0.00    +0.000 C 
ENDROOT
BRANCH   1   2
ATOM      2  C   UNL     1      44.845   5.202  11.631  0.00  0.00    +0.000 A 
ATOM      3  C   UNL     1      45.809   6.207  11.471  0.00  0.00    +0.000 A 
ATOM      4  C   UNL     1      46.830   6.432  12.409  0.00  0.00    +0.000 A 
ATOM      5  C   UNL     1      46.858   5.596  13.533  0.00  0.00    +0.000 A 
ATOM      6  C   UNL     1      45.891   4.607  13.731  0.00  0.00    +0.000 A 
ATOM      7  C   UNL     1      44.890   4.426  12.786  0.00  0.00    +0.000 A 
ATOM      8  F   UNL     1      43.955   3.491  13.007  0.00  0.00    +0.000 F 
BRANCH   4   9
ATOM      9  N   UNL     1      47.742   7.444  12.220  0.00  0.00    +0.000 N 
ATOM     10  C   UNL     1      49.193   7.234  12.172  0.00  0.00    +0.000 C 
ATOM     11  C   UNL     1      49.889   8.140  13.198  0.00  0.00    +0.000 C 
ATOM     12  O   UNL     1      49.509   9.519  13.043  0.00  0.00    +0.000 OA
ATOM     13  C   UNL     1      48.087   9.663  13.195  0.00  0.00    +0.000 C 
ATOM     14  C   UNL     1      47.324   8.851  12.140  0.00  0.00    +0.000 C 
ENDBRANCH   4   9
ENDBRANCH   1   2
BRANCH   1  15
ATOM     15  O   UNL     1      43.650   3.635  10.221  0.00  0.00    +0.000 OA
BRANCH  15  19
ATOM     16  C   UNL     1      46.553   2.699   7.457  0.00  0.00    +0.000 A 
ATOM     17  C   UNL     1      46.044   4.000   7.502  0.00  0.00    +0.000 A 
ATOM     18  C   UNL     1      45.054   4.312   8.437  0.00  0.00    +0.000 A 
ATOM     19  C   UNL     1      44.615   3.308   9.292  0.00  0.00    +0.000 A 
ATOM     20  N   UNL     1      45.084   2.042   9.258  0.00  0.00    +0.000 NA
ATOM     21  C   UNL     1      46.031   1.764   8.338  0.00  0.00    +0.000 A 
BRANCH  16  23
ATOM     22  N   UNL     1      47.745   2.984   5.363  0.00  0.00    +0.000 N 
ATOM     23  C   UNL     1      47.597   2.261   6.512  0.00  0.00    +0.000 C 
ATOM     24  O   UNL     1      48.331   1.315   6.766  0.00  0.00    +0.000 OA
ATOM     25  H   UNL     1      48.543   2.742   4.788  0.00  0.00    +0.000 HD
ATOM     26  H   UNL     1      47.352   3.908   5.251  0.00  0.00    +0.000 HD
ENDBRANCH  16  23
ENDBRANCH  15  19
ENDBRANCH   1  15
TORSDOF 5
ENDMDL
MODEL 3
REMARK VINA RESULT:    -7.243      2.468      3.475
REMARK INTER + INTRA:         -10.297
REMARK INTER:                  -9.726
REMARK INTRA:                  -0.571
REMARK UNBOUND:                -0.937
REMARK  Name = 
REMARK  5 active torsions:
REMARK  status: ('A' for Active; 'I' for Inactive)
REMARK    1  A    between atoms: C_2  and  C_4
REMARK    2  A    between atoms: C_7  and  O_8
REMARK    3  A    between atoms: O_8  and  C_9
REMARK    4  A    between atoms: C_9  and  C_10
REMARK    5  A    between atoms: C_12  and  N_13
REMARK                            x       y       z     vdW  Elec       q    Type
REMARK                         _______ _______ _______ _____ _____    ______ ____
ROOT
ATOM      1  C   UNL     1      43.764   5.687  10.474  0.00  0.00    +0.000 C 
ENDROOT
BRANCH   1   2
ATOM      2  C   UNL     1      44.631   6.431  11.454  0.00  0.00    +0.000 A 
ATOM      3  C   UNL     1      45.554   5.758  12.266  0.00  0.00    +0.000 A 
ATOM      4  C   UNL     1      46.403   6.427  13.163  0.00  0.00    +0.000 A 
ATOM      5  C   UNL     1      46.291   7.823  13.225  0.00  0.00    +0.000 A 
ATOM      6  C   UNL     1      45.401   8.520  12.405  0.00  0.00    +0.000 A 
ATOM      7  C   UNL     1      44.588   7.822  11.522  0.00  0.00    +0.000 A 
ATOM      8  F   UNL     1      43.760   8.510  10.723  0.00  0.00    +0.000 F 
BRANCH   4   9
ATOM      9  N   UNL     1      47.308   5.727  13.925  0.00  0.00    +0.000 N 
ATOM     10  C   UNL     1      47.091   4.352  14.388  0.00  0.00    +0.000 C 
ATOM     11  C   UNL     1      47.252   4.279  15.913  0.00  0.00    +0.000 C 
ATOM     12  O   UNL     1      48.506   4.835  16.349  0.00  0.00    +0.000 OA
ATOM     13  C   UNL     1      48.609   6.209  15.942  0.00  0.00    +0.000 C 
ATOM     14  C   UNL     1      48.546   6.349  14.415  0.00  0.00    +0.000 C 
ENDBRANCH   4   9
ENDBRANCH   1   2
BRANCH   1  15
ATOM     15  O   UNL     1      43.912   4.265  10.642  0.00  0.00    +0.000 OA
BRANCH  15  19
ATOM     16  C   UNL     1      46.174   2.561   7.656  0.00  0.00    +0.000 A 
ATOM     17  C   UNL     1      45.573   1.739   8.613  0.00  0.00    +0.000 A 
ATOM     18  C   UNL     1      44.812   2.322   9.630  0.00  0.00    +0.000 A 
ATOM     19  C   UNL     1      44.680   3.705   9.644  0.00  0.00    +0.000 A 
ATOM     20  N   UNL     1      45.262   4.519   8.737  0.00  0.00    +0.000 NA
ATOM     21  C   UNL     1      46.001   3.932   7.772  0.00  0.00    +0.000 A 
BRANCH  16  23
ATOM     22  N   UNL     1      47.552   2.977   5.703  0.00  0.00    +0.000 N 
ATOM     23  C   UNL     1      46.998   2.053   6.543  0.00  0.00    +0.000 C 
ATOM     24  O   UNL     1      47.212   0.858   6.401  0.00  0.00    +0.000 OA
ATOM     25  H   UNL     1      48.209   2.617   5.021  0.00  0.00    +0.000 HD
ATOM     26  H   UNL     1      47.620   3.956   5.944  0.00  0.00    +0.000 HD
ENDBRANCH  16  23
ENDBRANCH  15  19
ENDBRANCH   1  15
TORSDOF 5
ENDMDL
MODEL 4
REMARK VINA RESULT:    -6.898      5.302      7.834
REMARK INTER + INTRA:          -9.851
REMARK INTER:                  -9.136
REMARK INTRA:                  -0.715
REMARK UNBOUND:                -0.937
REMARK  Name = 
REMARK  5 active torsions:
REMARK  status: ('A' for Active; 'I' for Inactive)
REMARK    1  A    between atoms: C_2  and  C_4
REMARK    2  A    between atoms: C_7  and  O_8
REMARK    3  A    between atoms: O_8  and  C_9
REMARK    4  A    between atoms: C_9  and  C_10
REMARK    5  A    between atoms: C_12  and  N_13
REMARK                            x       y       z     vdW  Elec       q    Type
REMARK                         _______ _______ _______ _____ _____    ______ ____
ROOT
ATOM      1  C   UNL     1      48.641   6.354  15.647  0.00  0.00    +0.000 C 
ENDROOT
BRANCH   1   2
ATOM      2  C   UNL     1      47.970   6.316  14.299  0.00  0.00    +0.000 A 
ATOM      3  C   UNL     1      46.859   5.495  14.063  0.00  0.00    +0.000 A 
ATOM      4  C   UNL     1      46.189   5.465  12.829  0.00  0.00    +0.000 A 
ATOM      5  C   UNL     1      46.682   6.298  11.816  0.00  0.00    +0.000 A 
ATOM      6  C   UNL     1      47.769   7.148  12.035  0.00  0.00    +0.000 A 
ATOM      7  C   UNL     1      48.395   7.157  13.274  0.00  0.00    +0.000 A 
ATOM      8  F   UNL     1      49.419   8.000  13.475  0.00  0.00    +0.000 F 
BRANCH   4   9
ATOM      9  N   UNL     1      45.089   4.659  12.650  0.00  0.00    +0.000 N 
ATOM     10  C   UNL     1      45.157   3.299  12.103  0.00  0.00    +0.000 C 
ATOM     11  C   UNL     1      44.214   3.169  10.899  0.00  0.00    +0.000 C 
ATOM     12  O   UNL     1      42.874   3.588  11.217  0.00  0.00    +0.000 OA
ATOM     13  C   UNL     1      42.872   4.956  11.655  0.00  0.00    +0.000 C 
ATOM     14  C   UNL     1      43.728   5.144  12.916  0.00  0.00    +0.000 C 
ENDBRANCH   4   9
ENDBRANCH   1   2
BRANCH   1  15
ATOM     15  O   UNL     1      48.106   5.334  16.510  0.00  0.00    +0.000 OA
BRANCH  15  19
ATOM     16  C   UNL     1      50.903   2.449  17.403  0.00  0.00    +0.000 A 
ATOM     17  C   UNL     1      49.593   2.064  17.107  0.00  0.00    +0.000 A 
ATOM     18  C   UNL     1      48.644   3.047  16.811  0.00  0.00    +0.000 A 
ATOM     19  C   UNL     1      49.048   4.376  16.821  0.00  0.00    +0.000 A 
ATOM     20  N   UNL     1      50.305   4.772  17.116  0.00  0.00    +0.000 NA
ATOM     21  C   UNL     1      51.199   3.804  17.409  0.00  0.00    +0.000 A 
BRANCH  16  23
ATOM     22  N   UNL     1      51.612   0.241  18.116  0.00  0.00    +0.000 N 
ATOM     23  C   UNL     1      51.981   1.498  17.729  0.00  0.00    +0.000 C 
ATOM     24  O   UNL     1      53.160   1.806  17.617  0.00  0.00    +0.000 OA
ATOM     25  H   UNL     1      52.364  -0.430  18.217  0.00  0.00    +0.000 HD
ATOM     26  H   UNL     1      50.682  -0.122  17.960  0.00  0.00    +0.000 HD
ENDBRANCH  16  23
ENDBRANCH  15  19
ENDBRANCH   1  15
TORSDOF 5
ENDMDL
MODEL 5
REMARK VINA RESULT:    -6.633      3.084      7.176
REMARK INTER + INTRA:          -9.509
REMARK INTER:                  -8.943
REMARK INTRA:                  -0.566
REMARK UNBOUND:                -0.937
REMARK  Name = 
REMARK  5 active torsions:
REMARK  status: ('A' for Active; 'I' for Inactive)
REMARK    1  A    between atoms: C_2  and  C_4
REMARK    2  A    between atoms: C_7  and  O_8
REMARK    3  A    between atoms: O_8  and  C_9
REMARK    4  A    between atoms: C_9  and  C_10
REMARK    5  A    between atoms: C_12  and  N_13
REMARK                            x       y       z     vdW  Elec       q    Type
REMARK                         _______ _______ _______ _____ _____    ______ ____
ROOT
ATOM      1  C   UNL     1      46.602   7.107  11.813  0.00  0.00    +0.000 C 
ENDROOT
BRANCH   1   2
ATOM      2  C   UNL     1      45.556   6.129  11.345  0.00  0.00    +0.000 A 
ATOM      3  C   UNL     1      45.774   5.310  10.228  0.00  0.00    +0.000 A 
ATOM      4  C   UNL     1      44.834   4.363   9.790  0.00  0.00    +0.000 A 
ATOM      5  C   UNL     1      43.641   4.264  10.519  0.00  0.00    +0.000 A 
ATOM      6  C   UNL     1      43.413   5.047  11.652  0.00  0.00    +0.000 A 
ATOM      7  C   UNL     1      44.373   5.963  12.061  0.00  0.00    +0.000 A 
ATOM      8  F   UNL     1      44.149   6.686  13.168  0.00  0.00    +0.000 F 
BRANCH   4   9
ATOM      9  N   UNL     1      45.100   3.566   8.701  0.00  0.00    +0.000 N 
ATOM     10  C   UNL     1      44.778   2.137   8.640  0.00  0.00    +0.000 C 
ATOM     11  C   UNL     1      46.036   1.328   8.291  0.00  0.00    +0.000 C 
ATOM     12  O   UNL     1      46.676   1.818   7.099  0.00  0.00    +0.000 OA
ATOM     13  C   UNL     1      47.048   3.196   7.265  0.00  0.00    +0.000 C 
ATOM     14  C   UNL     1      45.822   4.081   7.529  0.00  0.00    +0.000 C 
ENDBRANCH   4   9
ENDBRANCH   1   2
BRANCH   1  15
ATOM     15  O   UNL     1      47.821   6.422  12.155  0.00  0.00    +0.000 OA
BRANCH  15  19
ATOM     16  C   UNL     1      47.584   4.687  15.880  0.00  0.00    +0.000 A 
ATOM     17  C   UNL     1      48.140   5.962  15.753  0.00  0.00    +0.000 A 
ATOM     18  C   UNL     1      48.225   6.545  14.485  0.00  0.00    +0.000 A 
ATOM     19  C   UNL     1      47.746   5.827  13.397  0.00  0.00    +0.000 A 
ATOM     20  N   UNL     1      47.216   4.589  13.495  0.00  0.00    +0.000 NA
ATOM     21  C   UNL     1      47.156   4.044  14.729  0.00  0.00    +0.000 A 
BRANCH  16  23
ATOM     22  N   UNL     1      48.290   4.344  18.176  0.00  0.00    +0.000 N 
ATOM     23  C   UNL     1      47.446   3.979  17.166  0.00  0.00    +0.000 C 
ATOM     24  O   UNL     1      46.582   3.130  17.338  0.00  0.00    +0.000 OA
ATOM     25  H   UNL     1      48.099   3.934  19.082  0.00  0.00    +0.000 HD
ATOM     26  H   UNL     1      48.817   5.206  18.156  0.00  0.00    +0.000 HD
ENDBRANCH  16  23
ENDBRANCH  15  19
ENDBRANCH   1  15
TORSDOF 5
ENDMDL
MODEL 6
REMARK VINA RESULT:    -6.565      4.363      8.067
REMARK INTER + INTRA:          -9.420
REMARK INTER:                  -8.721
REMARK INTRA:                  -0.700
REMARK UNBOUND:                -0.937
REMARK  Name = 
REMARK  5 active torsions:
REMARK  status: ('A' for Active; 'I' for Inactive)
REMARK    1  A    between atoms: C_2  and  C_4
REMARK    2  A    between atoms: C_7  and  O_8
REMARK    3  A    between atoms: O_8  and  C_9
REMARK    4  A    between atoms: C_9  and  C_10
REMARK    5  A    between atoms: C_12  and  N_13
REMARK                            x       y       z     vdW  Elec       q    Type
REMARK                         _______ _______ _______ _____ _____    ______ ____
ROOT
ATOM      1  C   UNL     1      47.967   6.494  13.770  0.00  0.00    +0.000 C 
ENDROOT
BRANCH   1   2
ATOM      2  C   UNL     1      46.766   6.800  12.916  0.00  0.00    +0.000 A 
ATOM      3  C   UNL     1      46.065   5.782  12.253  0.00  0.00    +0.000 A 
ATOM      4  C   UNL     1      44.920   6.032  11.481  0.00  0.00    +0.000 A 
ATOM      5  C   UNL     1      44.492   7.363  11.386  0.00  0.00    +0.000 A 
ATOM      6  C   UNL     1      45.154   8.391  12.060  0.00  0.00    +0.000 A 
ATOM      7  C   UNL     1      46.276   8.101  12.825  0.00  0.00    +0.000 A 
ATOM      8  F   UNL     1      46.882   9.096  13.489  0.00  0.00    +0.000 F 
BRANCH   4   9
ATOM      9  N   UNL     1      44.253   4.998  10.866  0.00  0.00    +0.000 N 
ATOM     10  C   UNL     1      43.082   4.327  11.441  0.00  0.00    +0.000 C 
ATOM     11  C   UNL     1      43.326   2.813  11.512  0.00  0.00    +0.000 C 
ATOM     12  O   UNL     1      43.723   2.272  10.239  0.00  0.00    +0.000 OA
ATOM     13  C   UNL     1      44.927   2.909   9.781  0.00  0.00    +0.000 C 
ATOM     14  C   UNL     1      44.729   4.420   9.601  0.00  0.00    +0.000 C 
ENDBRANCH   4   9
ENDBRANCH   1   2
BRANCH   1  15
ATOM     15  O   UNL     1      47.912   5.141  14.259  0.00  0.00    +0.000 OA
BRANCH  15  19
ATOM     16  C   UNL     1      48.203   4.928  18.359  0.00  0.00    +0.000 A 
ATOM     17  C   UNL     1      47.256   4.142  17.698  0.00  0.00    +0.000 A 
ATOM     18  C   UNL     1      47.155   4.222  16.306  0.00  0.00    +0.000 A 
ATOM     19  C   UNL     1      48.010   5.085  15.633  0.00  0.00    +0.000 A 
ATOM     20  N   UNL     1      48.924   5.863  16.252  0.00  0.00    +0.000 NA
ATOM     21  C   UNL     1      48.993   5.775  17.597  0.00  0.00    +0.000 A 
BRANCH  16  23
ATOM     22  N   UNL     1      48.586   3.711  20.423  0.00  0.00    +0.000 N 
ATOM     23  C   UNL     1      48.394   4.923  19.821  0.00  0.00    +0.000 C 
ATOM     24  O   UNL     1      48.424   5.962  20.465  0.00  0.00    +0.000 OA
ATOM     25  H   UNL     1      48.836   3.739  21.404  0.00  0.00    +0.000 HD
ATOM     26  H   UNL     1      48.835   2.882  19.902  0.00  0.00    +0.000 HD
ENDBRANCH  16  23
ENDBRANCH  15  19
ENDBRANCH   1  15
TORSDOF 5
ENDMDL
MODEL 7
REMARK VINA RESULT:    -6.552      2.114      6.868
REMARK INTER + INTRA:          -9.405
REMARK INTER:                  -8.644
REMARK INTRA:                  -0.761
REMARK UNBOUND:                -0.937
REMARK  Name = 
REMARK  5 active torsions:
REMARK  status: ('A' for Active; 'I' for Inactive)
REMARK    1  A    between atoms: C_2  and  C_4
REMARK    2  A    between atoms: C_7  and  O_8
REMARK    3  A    between atoms: O_8  and  C_9
REMARK    4  A    between atoms: C_9  and  C_10
REMARK    5  A    between atoms: C_12  and  N_13
REMARK                            x       y       z     vdW  Elec       q    Type
REMARK                         _______ _______ _______ _____ _____    ______ ____
ROOT
ATOM      1  C   UNL     1      43.602   6.672  11.625  0.00  0.00    +0.000 C 
ENDROOT
BRANCH   1   2
ATOM      2  C   UNL     1      43.678   5.185  11.403  0.00  0.00    +0.000 A 
ATOM      3  C   UNL     1      44.147   4.652  10.194  0.00  0.00    +0.000 A 
ATOM      4  C   UNL     1      44.265   3.271   9.971  0.00  0.00    +0.000 A 
ATOM      5  C   UNL     1      43.884   2.421  11.018  0.00  0.00    +0.000 A 
ATOM      6  C   UNL     1      43.442   2.927  12.242  0.00  0.00    +0.000 A 
ATOM      7  C   UNL     1      43.352   4.300  12.428  0.00  0.00    +0.000 A 
ATOM      8  F   UNL     1      42.953   4.767  13.620  0.00  0.00    +0.000 F 
BRANCH   4   9
ATOM      9  N   UNL     1      44.750   2.795   8.775  0.00  0.00    +0.000 N 
ATOM     10  C   UNL     1      45.084   1.387   8.534  0.00  0.00    +0.000 C 
ATOM     11  C   UNL     1      46.530   1.268   8.033  0.00  0.00    +0.000 C 
ATOM     12  O   UNL     1      46.776   2.113   6.894  0.00  0.00    +0.000 OA
ATOM     13  C   UNL     1      46.519   3.486   7.230  0.00  0.00    +0.000 C 
ATOM     14  C   UNL     1      45.060   3.697   7.657  0.00  0.00    +0.000 C 
ENDBRANCH   4   9
ENDBRANCH   1   2
BRANCH   1  15
ATOM     15  O   UNL     1      44.721   7.335  11.009  0.00  0.00    +0.000 OA
BRANCH  15  19
ATOM     16  C   UNL     1      47.946   7.664  13.546  0.00  0.00    +0.000 A 
ATOM     17  C   UNL     1      47.951   6.677  12.557  0.00  0.00    +0.000 A 
ATOM     18  C   UNL     1      46.851   6.564  11.702  0.00  0.00    +0.000 A 
ATOM     19  C   UNL     1      45.792   7.447  11.871  0.00  0.00    +0.000 A 
ATOM     20  N   UNL     1      45.761   8.400  12.827  0.00  0.00    +0.000 NA
ATOM     21  C   UNL     1      46.830   8.481  13.647  0.00  0.00    +0.000 A 
BRANCH  16  23
ATOM     22  N   UNL     1      50.279   7.387  14.151  0.00  0.00    +0.000 N 
ATOM     23  C   UNL     1      49.051   7.872  14.500  0.00  0.00    +0.000 C 
ATOM     24  O   UNL     1      48.887   8.491  15.542  0.00  0.00    +0.000 OA
ATOM     25  H   UNL     1      51.046   7.645  14.759  0.00  0.00    +0.000 HD
ATOM     26  H   UNL     1      50.506   7.119  13.203  0.00  0.00    +0.000 HD
ENDBRANCH  16  23
ENDBRANCH  15  19
ENDBRANCH   1  15
TORSDOF 5
ENDMDL
MODEL 8
REMARK VINA RESULT:    -6.418      3.892      8.116
REMARK INTER + INTRA:          -9.231
REMARK INTER:                  -8.580
REMARK INTRA:                  -0.651
REMARK UNBOUND:                -0.937
REMARK  Name = 
REMARK  5 active torsions:
REMARK  status: ('A' for Active; 'I' for Inactive)
REMARK    1  A    between atoms: C_2  and  C_4
REMARK    2  A    between atoms: C_7  and  O_8
REMARK    3  A    between atoms: O_8  and  C_9
REMARK    4  A    between atoms: C_9  and  C_10
REMARK    5  A    between atoms: C_12  and  N_13
REMARK                            x       y       z     vdW  Elec       q    Type
REMARK                         _______ _______ _______ _____ _____    ______ ____
ROOT
ATOM      1  C   UNL     1      46.319   3.729  13.550  0.00  0.00    +0.000 C 
ENDROOT
BRANCH   1   2
ATOM      2  C   UNL     1      45.481   4.073  12.347  0.00  0.00    +0.000 A 
ATOM      3  C   UNL     1      45.651   3.404  11.127  0.00  0.00    +0.000 A 
ATOM      4  C   UNL     1      44.861   3.676   9.998  0.00  0.00    +0.000 A 
ATOM      5  C   UNL     1      43.877   4.666  10.133  0.00  0.00    +0.000 A 
ATOM      6  C   UNL     1      43.667   5.325  11.346  0.00  0.00    +0.000 A 
ATOM      7  C   UNL     1      44.462   5.017  12.442  0.00  0.00    +0.000 A 
ATOM      8  F   UNL     1      44.227   5.640  13.607  0.00  0.00    +0.000 F 
BRANCH   4   9
ATOM      9  N   UNL     1      45.050   2.980   8.828  0.00  0.00    +0.000 N 
ATOM     10  C   UNL     1      45.178   1.521   8.759  0.00  0.00    +0.000 C 
ATOM     11  C   UNL     1      46.477   1.140   8.036  0.00  0.00    +0.000 C 
ATOM     12  O   UNL     1      46.585   1.781   6.752  0.00  0.00    +0.000 OA
ATOM     13  C   UNL     1      46.547   3.209   6.903  0.00  0.00    +0.000 C 
ATOM     14  C   UNL     1      45.230   3.671   7.542  0.00  0.00    +0.000 C 
ENDBRANCH   4   9
ENDBRANCH   1   2
BRANCH   1  15
ATOM     15  O   UNL     1      47.226   4.802  13.862  0.00  0.00    +0.000 OA
BRANCH  15  19
ATOM     16  C   UNL     1      48.269   4.783  17.843  0.00  0.00    +0.000 A 
ATOM     17  C   UNL     1      47.332   3.858  17.377  0.00  0.00    +0.000 A 
ATOM     18  C   UNL     1      46.975   3.873  16.026  0.00  0.00    +0.000 A 
ATOM     19  C   UNL     1      47.575   4.811  15.196  0.00  0.00    +0.000 A 
ATOM     20  N   UNL     1      48.473   5.722  15.627  0.00  0.00    +0.000 NA
ATOM     21  C   UNL     1      48.792   5.695  16.939  0.00  0.00    +0.000 A 
BRANCH  16  23
ATOM     22  N   UNL     1      48.565   3.737  20.012  0.00  0.00    +0.000 N 
ATOM     23  C   UNL     1      48.718   4.858  19.246  0.00  0.00    +0.000 C 
ATOM     24  O   UNL     1      49.244   5.867  19.695  0.00  0.00    +0.000 OA
ATOM     25  H   UNL     1      48.988   3.770  20.932  0.00  0.00    +0.000 HD
ATOM     26  H   UNL     1      48.392   2.827  19.611  0.00  0.00    +0.000 HD
ENDBRANCH  16  23
ENDBRANCH  15  19
ENDBRANCH   1  15
TORSDOF 5
ENDMDL
MODEL 9
REMARK VINA RESULT:    -6.087      4.144      6.260
REMARK INTER + INTRA:          -8.803
REMARK INTER:                  -8.010
REMARK INTRA:                  -0.793
REMARK UNBOUND:                -0.937
REMARK  Name = 
REMARK  5 active torsions:
REMARK  status: ('A' for Active; 'I' for Inactive)
REMARK    1  A    between atoms: C_2  and  C_4
REMARK    2  A    between atoms: C_7  and  O_8
REMARK    3  A    between atoms: O_8  and  C_9
REMARK    4  A    between atoms: C_9  and  C_10
REMARK    5  A    between atoms: C_12  and  N_13
REMARK                            x       y       z     vdW  Elec       q    Type
REMARK                         _______ _______ _______ _____ _____    ______ ____
ROOT
ATOM      1  C   UNL     1      47.884   7.349  12.836  0.00  0.00    +0.000 C 
ENDROOT
BRANCH   1   2
ATOM      2  C   UNL     1      48.248   7.423  14.295  0.00  0.00    +0.000 A 
ATOM      3  C   UNL     1      48.354   6.264  15.078  0.00  0.00    +0.000 A 
ATOM      4  C   UNL     1      48.728   6.297  16.431  0.00  0.00    +0.000 A 
ATOM      5  C   UNL     1      48.992   7.555  16.989  0.00  0.00    +0.000 A 
ATOM      6  C   UNL     1      48.923   8.721  16.223  0.00  0.00    +0.000 A 
ATOM      7  C   UNL     1      48.562   8.644  14.885  0.00  0.00    +0.000 A 
ATOM      8  F   UNL     1      48.529   9.771  14.158  0.00  0.00    +0.000 F 
BRANCH   4   9
ATOM      9  N   UNL     1      48.839   5.132  17.154  0.00  0.00    +0.000 N 
ATOM     10  C   UNL     1      50.050   4.738  17.882  0.00  0.00    +0.000 C 
ATOM     11  C   UNL     1      50.498   3.338  17.438  0.00  0.00    +0.000 C 
ATOM     12  O   UNL     1      49.434   2.375  17.540  0.00  0.00    +0.000 OA
ATOM     13  C   UNL     1      48.318   2.778  16.729  0.00  0.00    +0.000 C 
ATOM     14  C   UNL     1      47.759   4.136  17.178  0.00  0.00    +0.000 C 
ENDBRANCH   4   9
ENDBRANCH   1   2
BRANCH   1  15
ATOM     15  O   UNL     1      46.469   7.543  12.655  0.00  0.00    +0.000 OA
BRANCH  15  19
ATOM     16  C   UNL     1      44.639   4.114  11.302  0.00  0.00    +0.000 A 
ATOM     17  C   UNL     1      45.198   5.001  10.379  0.00  0.00    +0.000 A 
ATOM     18  C   UNL     1      45.812   6.168  10.842  0.00  0.00    +0.000 A 
ATOM     19  C   UNL     1      45.844   6.397  12.211  0.00  0.00    +0.000 A 
ATOM     20  N   UNL     1      45.300   5.560  13.120  0.00  0.00    +0.000 NA
ATOM     21  C   UNL     1      44.703   4.446  12.647  0.00  0.00    +0.000 A 
BRANCH  16  23
ATOM     22  N   UNL     1      44.508   2.143   9.893  0.00  0.00    +0.000 N 
ATOM     23  C   UNL     1      43.967   2.856  10.925  0.00  0.00    +0.000 C 
ATOM     24  O   UNL     1      42.993   2.444  11.539  0.00  0.00    +0.000 OA
ATOM     25  H   UNL     1      44.107   1.228   9.730  0.00  0.00    +0.000 HD
ATOM     26  H   UNL     1      45.444   2.309   9.553  0.00  0.00    +0.000 HD
ENDBRANCH  16  23
ENDBRANCH  15  19
ENDBRANCH   1  15
TORSDOF 5
ENDMDL
