MODEL 1
REMARK VINA RESULT:    -7.521      0.000      0.000
REMARK INTER + INTRA:         -12.156
REMARK INTER:                 -10.819
REMARK INTRA:                  -1.337
REMARK UNBOUND:                -1.337
REMARK  Name = 
REMARK  12 active torsions:
REMARK  status: ('A' for Active; 'I' for Inactive)
REMARK    1  A    between atoms: C_1  and  C_2
REMARK    2  A    between atoms: C_2  and  C_3
REMARK    3  A    between atoms: C_5  and  O_6
REMARK    4  A    between atoms: O_6  and  C_7
REMARK    5  A    between atoms: C_11  and  C_12
REMARK    6  A    between atoms: C_12  and  C_13
REMARK    7  A    between atoms: C_12  and  C_14
REMARK    8  A    between atoms: C_12  and  C_15
REMARK    9  A    between atoms: C_15  and  N_16
REMARK   10  A    between atoms: N_16  and  C_17
REMARK   11  A    between atoms: C_20  and  S_21
REMARK   12  A    between atoms: S_21  and  N_22
REMARK                            x       y       z     vdW  Elec       q    Type
REMARK                         _______ _______ _______ _____ _____    ______ ____
ROOT
ATOM      1  C   UNL     1      43.713   4.871  12.299  0.00  0.00    +0.000 C 
ATOM      2  C   UNL     1      42.917   4.804  13.623  0.00  0.00    +0.000 C 
ATOM      3  C   UNL     1      43.007   5.866  11.350  0.00  0.00    +0.000 C 
ENDROOT
BRANCH   1   8
ATOM      4  C   UNL     1      47.204   5.259  13.912  0.00  0.00    +0.000 A 
ATOM      5  C   UNL     1      47.850   6.090  13.008  0.00  0.00    +0.000 A 
ATOM      6  C   UNL     1      47.144   6.607  11.924  0.00  0.00    +0.000 A 
ATOM      7  C   UNL     1      45.808   6.245  11.713  0.00  0.00    +0.000 A 
ATOM      8  C   UNL     1      45.144   5.367  12.588  0.00  0.00    +0.000 A 
ATOM      9  C   UNL     1      45.862   4.932  13.713  0.00  0.00    +0.000 A 
BRANCH   4  10
ATOM     10  O   UNL     1      47.950   4.767  14.957  0.00  0.00    +0.000 OA
BRANCH  10  15
ATOM     11  C   UNL     1      47.514   5.967  19.278  0.00  0.00    +0.000 C 
ATOM     12  C   UNL     1      48.176   4.944  18.353  0.00  0.00    +0.000 C 
ATOM     13  C   UNL     1      49.032   3.946  19.122  0.00  0.00    +0.000 C 
ATOM     14  C   UNL     1      48.907   5.594  17.155  0.00  0.00    +0.000 C 
ATOM     15  C   UNL     1      47.669   5.300  16.273  0.00  0.00    +0.000 C 
ATOM     16  C   UNL     1      47.219   4.271  17.330  0.00  0.00    +0.000 C 
ENDBRANCH  10  15
ENDBRANCH   4  10
ENDBRANCH   1   8
BRANCH   1  17
ATOM     17  C   UNL     1      43.632   3.437  11.666  0.00  0.00    +0.000 C 
BRANCH  17  18
ATOM     18  N   UNL     1      43.461   3.456  10.207  0.00  0.00    +0.000 N 
ATOM     19  H   UNL     1      42.874   4.210   9.856  0.00  0.00    +0.000 HD
BRANCH  18  20
ATOM     20  C   UNL     1      44.537   3.159   9.370  0.00  0.00    +0.000 A 
ATOM     21  C   UNL     1      45.009   1.856   9.167  0.00  0.00    +0.000 A 
ATOM     22  C   UNL     1      45.981   1.576   8.204  0.00  0.00    +0.000 A 
ATOM     23  C   UNL     1      46.473   2.608   7.408  0.00  0.00    +0.000 A 
ATOM     24  C   UNL     1      46.054   3.922   7.612  0.00  0.00    +0.000 A 
ATOM     25  C   UNL     1      45.082   4.186   8.581  0.00  0.00    +0.000 A 
BRANCH  23  26
ATOM     26  S   UNL     1      47.595   2.232   6.094  0.00  0.00    +0.000 S 
ATOM     27  O   UNL     1      47.883   0.816   6.107  0.00  0.00    +0.000 OA
ATOM     28  O   UNL     1      47.181   2.929   4.900  0.00  0.00    +0.000 OA
BRANCH  26  29
ATOM     29  N   UNL     1      48.985   3.001   6.630  0.00  0.00    +0.000 NA
ATOM     30  H   UNL     1      49.635   2.326   7.031  0.00  0.00    +0.000 HD
ATOM     31  H   UNL     1      49.378   3.584   5.894  0.00  0.00    +0.000 HD
ENDBRANCH  26  29
ENDBRANCH  23  26
ENDBRANCH  18  20
ENDBRANCH  17  18
ENDBRANCH   1  17
TORSDOF 8
ENDMDL
MODEL 2
REMARK VINA RESULT:    -6.733      4.443      8.434
REMARK INTER + INTRA:         -11.022
REMARK INTER:                  -9.650
REMARK INTRA:                  -1.372
REMARK UNBOUND:                -1.337
REMARK  Name = 
REMARK  12 active torsions:
REMARK  status: ('A' for Active; 'I' for Inactive)
REMARK    1  A    between atoms: C_1  and  C_2
REMARK    2  A    between atoms: C_2  and  C_3
REMARK    3  A    between atoms: C_5  and  O_6
REMARK    4  A    between atoms: O_6  and  C_7
REMARK    5  A    between atoms: C_11  and  C_12
REMARK    6  A    between atoms: C_12  and  C_13
REMARK    7  A    between atoms: C_12  and  C_14
REMARK    8  A    between atoms: C_12  and  C_15
REMARK    9  A    between atoms: C_15  and  N_16
REMARK   10  A    between atoms: N_16  and  C_17
REMARK   11  A    between atoms: C_20  and  S_21
REMARK   12  A    between atoms: S_21  and  N_22
REMARK                            x       y       z     vdW  Elec       q    Type
REMARK                         _______ _______ _______ _____ _____    ______ ____
ROOT
ATOM      1  C   UNL     1      49.471   9.097  12.064  0.00  0.00    +0.000 C 
ATOM      2  C   UNL     1      49.919   7.804  11.344  0.00  0.00    +0.000 C 
ATOM      3  C   UNL     1      50.100  10.309  11.338  0.00  0.00    +0.000 C 
ENDROOT
BRANCH   1   8
ATOM      4  C   UNL     1      45.720   8.175  12.204  0.00  0.00    +0.000 A 
ATOM      5  C   UNL     1      45.112   9.420  12.125  0.00  0.00    +0.000 A 
ATOM      6  C   UNL     1      45.895  10.556  11.932  0.00  0.00    +0.000 A 
ATOM      7  C   UNL     1      47.291  10.452  11.878  0.00  0.00    +0.000 A 
ATOM      8  C   UNL     1      47.933   9.207  12.003  0.00  0.00    +0.000 A 
ATOM      9  C   UNL     1      47.109   8.077  12.114  0.00  0.00    +0.000 A 
BRANCH   4  10
ATOM     10  O   UNL     1      44.901   7.088  12.406  0.00  0.00    +0.000 OA
BRANCH  10  15
ATOM     11  C   UNL     1      44.275   3.712   9.489  0.00  0.00    +0.000 C 
ATOM     12  C   UNL     1      44.080   4.118  10.951  0.00  0.00    +0.000 C 
ATOM     13  C   UNL     1      43.416   3.017  11.768  0.00  0.00    +0.000 C 
ATOM     14  C   UNL     1      43.406   5.501  11.113  0.00  0.00    +0.000 C 
ATOM     15  C   UNL     1      44.805   6.129  11.327  0.00  0.00    +0.000 C 
ATOM     16  C   UNL     1      45.339   4.716  11.638  0.00  0.00    +0.000 C 
ENDBRANCH  10  15
ENDBRANCH   4  10
ENDBRANCH   1   8
BRANCH   1  17
ATOM     17  C   UNL     1      50.066   9.021  13.513  0.00  0.00    +0.000 C 
BRANCH  17  18
ATOM     18  N   UNL     1      50.416   7.657  13.927  0.00  0.00    +0.000 N 
ATOM     19  H   UNL     1      51.414   7.491  14.047  0.00  0.00    +0.000 HD
BRANCH  18  20
ATOM     20  C   UNL     1      49.628   6.981  14.859  0.00  0.00    +0.000 A 
ATOM     21  C   UNL     1      48.432   6.336  14.520  0.00  0.00    +0.000 A 
ATOM     22  C   UNL     1      47.751   5.536  15.441  0.00  0.00    +0.000 A 
ATOM     23  C   UNL     1      48.285   5.352  16.715  0.00  0.00    +0.000 A 
ATOM     24  C   UNL     1      49.453   6.011  17.096  0.00  0.00    +0.000 A 
ATOM     25  C   UNL     1      50.121   6.810  16.163  0.00  0.00    +0.000 A 
BRANCH  23  26
ATOM     26  S   UNL     1      47.502   4.226  17.831  0.00  0.00    +0.000 S 
ATOM     27  O   UNL     1      46.631   3.346  17.085  0.00  0.00    +0.000 OA
ATOM     28  O   UNL     1      48.476   3.736  18.775  0.00  0.00    +0.000 OA
BRANCH  26  29
ATOM     29  N   UNL     1      46.501   5.267  18.684  0.00  0.00    +0.000 NA
ATOM     30  H   UNL     1      46.464   5.001  19.667  0.00  0.00    +0.000 HD
ATOM     31  H   UNL     1      46.767   6.235  18.516  0.00  0.00    +0.000 HD
ENDBRANCH  26  29
ENDBRANCH  23  26
ENDBRANCH  18  20
ENDBRANCH  17  18
ENDBRANCH   1  17
TORSDOF 8
ENDMDL
MODEL 3
REMARK VINA RESULT:    -6.447      2.051      3.748
REMARK INTER + INTRA:         -10.610
REMARK INTER:                 -10.025
REMARK INTRA:                  -0.585
REMARK UNBOUND:                -1.337
REMARK  Name = 
REMARK  12 active torsions:
REMARK  status: ('A' for Active; 'I' for Inactive)
REMARK    1  A    between atoms: C_1  and  C_2
REMARK    2  A    between atoms: C_2  and  C_3
REMARK    3  A    between atoms: C_5  and  O_6
REMARK    4  A    between atoms: O_6  and  C_7
REMARK    5  A    between atoms: C_11  and  C_12
REMARK    6  A    between atoms: C_12  and  C_13
REMARK    7  A    between atoms: C_12  and  C_14
REMARK    8  A    between atoms: C_12  and  C_15
REMARK    9  A    between atoms: C_15  and  N_16
REMARK   10  A    between atoms: N_16  and  C_17
REMARK   11  A    between atoms: C_20  and  S_21
REMARK   12  A    between atoms: S_21  and  N_22
REMARK                            x       y       z     vdW  Elec       q    Type
REMARK                         _______ _______ _______ _____ _____    ______ ____
ROOT
ATOM      1  C   UNL     1      43.988   5.057  12.344  0.00  0.00    +0.000 C 
ATOM      2  C   UNL     1      42.951   5.152  13.487  0.00  0.00    +0.000 C 
ATOM      3  C   UNL     1      43.532   5.977  11.188  0.00  0.00    +0.000 C 
ENDROOT
BRANCH   1   8
ATOM      4  C   UNL     1      47.111   7.240  12.990  0.00  0.00    +0.000 A 
ATOM      5  C   UNL     1      47.772   6.517  13.973  0.00  0.00    +0.000 A 
ATOM      6  C   UNL     1      47.270   5.279  14.370  0.00  0.00    +0.000 A 
ATOM      7  C   UNL     1      46.075   4.793  13.824  0.00  0.00    +0.000 A 
ATOM      8  C   UNL     1      45.362   5.528  12.861  0.00  0.00    +0.000 A 
ATOM      9  C   UNL     1      45.940   6.731  12.427  0.00  0.00    +0.000 A 
BRANCH   4  10
ATOM     10  O   UNL     1      47.642   8.460  12.643  0.00  0.00    +0.000 OA
BRANCH  10  15
ATOM     11  C   UNL     1      51.657   8.404  10.599  0.00  0.00    +0.000 C 
ATOM     12  C   UNL     1      50.983   8.470  11.971  0.00  0.00    +0.000 C 
ATOM     13  C   UNL     1      51.998   8.519  13.106  0.00  0.00    +0.000 C 
ATOM     14  C   UNL     1      49.891   7.392  12.163  0.00  0.00    +0.000 C 
ATOM     15  C   UNL     1      48.820   8.450  11.802  0.00  0.00    +0.000 C 
ATOM     16  C   UNL     1      49.866   9.542  12.101  0.00  0.00    +0.000 C 
ENDBRANCH  10  15
ENDBRANCH   4  10
ENDBRANCH   1   8
BRANCH   1  17
ATOM     17  C   UNL     1      43.950   3.571  11.841  0.00  0.00    +0.000 C 
BRANCH  17  18
ATOM     18  N   UNL     1      43.662   3.451  10.406  0.00  0.00    +0.000 N 
ATOM     19  H   UNL     1      42.993   4.130  10.047  0.00  0.00    +0.000 HD
BRANCH  18  20
ATOM     20  C   UNL     1      44.687   3.158   9.506  0.00  0.00    +0.000 A 
ATOM     21  C   UNL     1      45.119   1.852   9.241  0.00  0.00    +0.000 A 
ATOM     22  C   UNL     1      46.033   1.581   8.221  0.00  0.00    +0.000 A 
ATOM     23  C   UNL     1      46.507   2.626   7.430  0.00  0.00    +0.000 A 
ATOM     24  C   UNL     1      46.128   3.941   7.693  0.00  0.00    +0.000 A 
ATOM     25  C   UNL     1      45.213   4.196   8.719  0.00  0.00    +0.000 A 
BRANCH  23  26
ATOM     26  S   UNL     1      47.551   2.266   6.049  0.00  0.00    +0.000 S 
ATOM     27  O   UNL     1      47.782   0.841   5.987  0.00  0.00    +0.000 OA
ATOM     28  O   UNL     1      47.111   3.031   4.908  0.00  0.00    +0.000 OA
BRANCH  26  29
ATOM     29  N   UNL     1      48.994   2.957   6.551  0.00  0.00    +0.000 NA
ATOM     30  H   UNL     1      49.524   2.302   7.124  0.00  0.00    +0.000 HD
ATOM     31  H   UNL     1      49.504   3.337   5.756  0.00  0.00    +0.000 HD
ENDBRANCH  26  29
ENDBRANCH  23  26
ENDBRANCH  18  20
ENDBRANCH  17  18
ENDBRANCH   1  17
TORSDOF 8
ENDMDL
MODEL 4
REMARK VINA RESULT:    -6.276      3.321      5.419
REMARK INTER + INTRA:         -10.365
REMARK INTER:                  -8.849
REMARK INTRA:                  -1.516
REMARK UNBOUND:                -1.337
REMARK  Name = 
REMARK  12 active torsions:
REMARK  status: ('A' for Active; 'I' for Inactive)
REMARK    1  A    between atoms: C_1  and  C_2
REMARK    2  A    between atoms: C_2  and  C_3
REMARK    3  A    between atoms: C_5  and  O_6
REMARK    4  A    between atoms: O_6  and  C_7
REMARK    5  A    between atoms: C_11  and  C_12
REMARK    6  A    between atoms: C_12  and  C_13
REMARK    7  A    between atoms: C_12  and  C_14
REMARK    8  A    between atoms: C_12  and  C_15
REMARK    9  A    between atoms: C_15  and  N_16
REMARK   10  A    between atoms: N_16  and  C_17
REMARK   11  A    between atoms: C_20  and  S_21
REMARK   12  A    between atoms: S_21  and  N_22
REMARK                            x       y       z     vdW  Elec       q    Type
REMARK                         _______ _______ _______ _____ _____    ______ ____
ROOT
ATOM      1  C   UNL     1      49.100   8.940  12.623  0.00  0.00    +0.000 C 
ATOM      2  C   UNL     1      49.833  10.191  12.084  0.00  0.00    +0.000 C 
ATOM      3  C   UNL     1      49.533   7.716  11.784  0.00  0.00    +0.000 C 
ENDROOT
BRANCH   1   8
ATOM      4  C   UNL     1      50.430   7.283  15.851  0.00  0.00    +0.000 A 
ATOM      5  C   UNL     1      50.435   8.346  16.743  0.00  0.00    +0.000 A 
ATOM      6  C   UNL     1      49.924   9.580  16.343  0.00  0.00    +0.000 A 
ATOM      7  C   UNL     1      49.464   9.764  15.033  0.00  0.00    +0.000 A 
ATOM      8  C   UNL     1      49.493   8.715  14.097  0.00  0.00    +0.000 A 
ATOM      9  C   UNL     1      49.937   7.466  14.559  0.00  0.00    +0.000 A 
BRANCH   4  10
ATOM     10  O   UNL     1      50.956   6.091  16.293  0.00  0.00    +0.000 OA
BRANCH  10  15
ATOM     11  C   UNL     1      48.515   3.377  18.933  0.00  0.00    +0.000 C 
ATOM     12  C   UNL     1      49.030   3.553  17.504  0.00  0.00    +0.000 C 
ATOM     13  C   UNL     1      48.606   2.406  16.596  0.00  0.00    +0.000 C 
ATOM     14  C   UNL     1      50.544   3.868  17.439  0.00  0.00    +0.000 C 
ATOM     15  C   UNL     1      50.199   5.370  17.294  0.00  0.00    +0.000 C 
ATOM     16  C   UNL     1      48.772   4.954  16.883  0.00  0.00    +0.000 C 
ENDBRANCH  10  15
ENDBRANCH   4  10
ENDBRANCH   1   8
BRANCH   1  17
ATOM     17  C   UNL     1      47.570   9.191  12.382  0.00  0.00    +0.000 C 
BRANCH  17  18
ATOM     18  N   UNL     1      46.706   8.394  13.262  0.00  0.00    +0.000 N 
ATOM     19  H   UNL     1      46.186   8.934  13.952  0.00  0.00    +0.000 HD
BRANCH  18  20
ATOM     20  C   UNL     1      45.985   7.316  12.748  0.00  0.00    +0.000 A 
ATOM     21  C   UNL     1      44.885   7.471  11.895  0.00  0.00    +0.000 A 
ATOM     22  C   UNL     1      44.286   6.373  11.273  0.00  0.00    +0.000 A 
ATOM     23  C   UNL     1      44.809   5.098  11.483  0.00  0.00    +0.000 A 
ATOM     24  C   UNL     1      45.877   4.905  12.357  0.00  0.00    +0.000 A 
ATOM     25  C   UNL     1      46.464   6.014  12.973  0.00  0.00    +0.000 A 
BRANCH  23  26
ATOM     26  S   UNL     1      44.143   3.728  10.584  0.00  0.00    +0.000 S 
ATOM     27  O   UNL     1      45.210   2.806  10.267  0.00  0.00    +0.000 OA
ATOM     28  O   UNL     1      42.911   3.305  11.204  0.00  0.00    +0.000 OA
BRANCH  26  29
ATOM     29  N   UNL     1      43.715   4.469   9.142  0.00  0.00    +0.000 NA
ATOM     30  H   UNL     1      42.726   4.712   9.146  0.00  0.00    +0.000 HD
ATOM     31  H   UNL     1      44.343   5.244   8.939  0.00  0.00    +0.000 HD
ENDBRANCH  26  29
ENDBRANCH  23  26
ENDBRANCH  18  20
ENDBRANCH  17  18
ENDBRANCH   1  17
TORSDOF 8
ENDMDL
MODEL 5
REMARK VINA RESULT:    -6.106      3.773      6.229
REMARK INTER + INTRA:         -10.120
REMARK INTER:                  -9.064
REMARK INTRA:                  -1.056
REMARK UNBOUND:                -1.337
REMARK  Name = 
REMARK  12 active torsions:
REMARK  status: ('A' for Active; 'I' for Inactive)
REMARK    1  A    between atoms: C_1  and  C_2
REMARK    2  A    between atoms: C_2  and  C_3
REMARK    3  A    between atoms: C_5  and  O_6
REMARK    4  A    between atoms: O_6  and  C_7
REMARK    5  A    between atoms: C_11  and  C_12
REMARK    6  A    between atoms: C_12  and  C_13
REMARK    7  A    between atoms: C_12  and  C_14
REMARK    8  A    between atoms: C_12  and  C_15
REMARK    9  A    between atoms: C_15  and  N_16
REMARK   10  A    between atoms: N_16  and  C_17
REMARK   11  A    between atoms: C_20  and  S_21
REMARK   12  A    between atoms: S_21  and  N_22
REMARK                            x       y       z     vdW  Elec       q    Type
REMARK                         _______ _______ _______ _____ _____    ______ ____
ROOT
ATOM      1  C   UNL     1      49.455   7.136  15.675  0.00  0.00    +0.000 C 
ATOM      2  C   UNL     1      48.525   8.207  16.290  0.00  0.00    +0.000 C 
ATOM      3  C   UNL     1      50.904   7.675  15.687  0.00  0.00    +0.000 C 
ENDROOT
BRANCH   1   8
ATOM      4  C   UNL     1      50.451   4.215  18.001  0.00  0.00    +0.000 A 
ATOM      5  C   UNL     1      49.224   3.624  18.266  0.00  0.00    +0.000 A 
ATOM      6  C   UNL     1      48.080   4.099  17.629  0.00  0.00    +0.000 A 
ATOM      7  C   UNL     1      48.156   5.203  16.771  0.00  0.00    +0.000 A 
ATOM      8  C   UNL     1      49.380   5.849  16.522  0.00  0.00    +0.000 A 
ATOM      9  C   UNL     1      50.523   5.292  17.118  0.00  0.00    +0.000 A 
BRANCH   4  10
ATOM     10  O   UNL     1      51.546   3.714  18.666  0.00  0.00    +0.000 OA
BRANCH  10  15
ATOM     11  C   UNL     1      55.019   1.671  16.650  0.00  0.00    +0.000 C 
ATOM     12  C   UNL     1      54.223   1.728  17.955  0.00  0.00    +0.000 C 
ATOM     13  C   UNL     1      54.741   0.734  18.986  0.00  0.00    +0.000 C 
ATOM     14  C   UNL     1      52.693   1.653  17.736  0.00  0.00    +0.000 C 
ATOM     15  C   UNL     1      52.627   3.195  17.855  0.00  0.00    +0.000 C 
ATOM     16  C   UNL     1      54.012   3.155  18.531  0.00  0.00    +0.000 C 
ENDBRANCH  10  15
ENDBRANCH   4  10
ENDBRANCH   1   8
BRANCH   1  17
ATOM     17  C   UNL     1      49.000   6.966  14.182  0.00  0.00    +0.000 C 
BRANCH  17  18
ATOM     18  N   UNL     1      47.544   7.037  14.007  0.00  0.00    +0.000 N 
ATOM     19  H   UNL     1      47.167   7.981  13.947  0.00  0.00    +0.000 HD
BRANCH  18  20
ATOM     20  C   UNL     1      46.893   6.129  13.171  0.00  0.00    +0.000 A 
ATOM     21  C   UNL     1      46.374   4.911  13.627  0.00  0.00    +0.000 A 
ATOM     22  C   UNL     1      45.590   4.100  12.803  0.00  0.00    +0.000 A 
ATOM     23  C   UNL     1      45.293   4.523  11.509  0.00  0.00    +0.000 A 
ATOM     24  C   UNL     1      45.826   5.712  11.011  0.00  0.00    +0.000 A 
ATOM     25  C   UNL     1      46.611   6.510  11.849  0.00  0.00    +0.000 A 
BRANCH  23  26
ATOM     26  S   UNL     1      44.183   3.569  10.515  0.00  0.00    +0.000 S 
ATOM     27  O   UNL     1      44.936   2.575   9.785  0.00  0.00    +0.000 OA
ATOM     28  O   UNL     1      43.012   3.240  11.291  0.00  0.00    +0.000 OA
BRANCH  26  29
ATOM     29  N   UNL     1      43.697   4.714   9.391  0.00  0.00    +0.000 NA
ATOM     30  H   UNL     1      44.266   4.651   8.548  0.00  0.00    +0.000 HD
ATOM     31  H   UNL     1      42.693   4.655   9.232  0.00  0.00    +0.000 HD
ENDBRANCH  26  29
ENDBRANCH  23  26
ENDBRANCH  18  20
ENDBRANCH  17  18
ENDBRANCH   1  17
TORSDOF 8
ENDMDL
MODEL 6
REMARK VINA RESULT:    -6.035      3.902      6.099
REMARK INTER + INTRA:         -10.017
REMARK INTER:                  -8.549
REMARK INTRA:                  -1.468
REMARK UNBOUND:                -1.337
REMARK  Name = 
REMARK  12 active torsions:
REMARK  status: ('A' for Active; 'I' for Inactive)
REMARK    1  A    between atoms: C_1  and  C_2
REMARK    2  A    between atoms: C_2  and  C_3
REMARK    3  A    between atoms: C_5  and  O_6
REMARK    4  A    between atoms: O_6  and  C_7
REMARK    5  A    between atoms: C_11  and  C_12
REMARK    6  A    between atoms: C_12  and  C_13
REMARK    7  A    between atoms: C_12  and  C_14
REMARK    8  A    between atoms: C_12  and  C_15
REMARK    9  A    between atoms: C_15  and  N_16
REMARK   10  A    between atoms: N_16  and  C_17
REMARK   11  A    between atoms: C_20  and  S_21
REMARK   12  A    between atoms: S_21  and  N_22
REMARK                            x       y       z     vdW  Elec       q    Type
REMARK                         _______ _______ _______ _____ _____    ______ ____
ROOT
ATOM      1  C   UNL     1      49.841   9.061  13.186  0.00  0.00    +0.000 C 
ATOM      2  C   UNL     1      48.507   9.770  13.522  0.00  0.00    +0.000 C 
ATOM      3  C   UNL     1      50.808  10.097  12.570  0.00  0.00    +0.000 C 
ENDROOT
BRANCH   1   8
ATOM      4  C   UNL     1      50.188   7.606  16.750  0.00  0.00    +0.000 A 
ATOM      5  C   UNL     1      51.527   7.241  16.785  0.00  0.00    +0.000 A 
ATOM      6  C   UNL     1      52.350   7.543  15.702  0.00  0.00    +0.000 A 
ATOM      7  C   UNL     1      51.819   8.157  14.561  0.00  0.00    +0.000 A 
ATOM      8  C   UNL     1      50.456   8.495  14.482  0.00  0.00    +0.000 A 
ATOM      9  C   UNL     1      49.676   8.249  15.623  0.00  0.00    +0.000 A 
BRANCH   4  10
ATOM     10  O   UNL     1      49.418   7.274  17.840  0.00  0.00    +0.000 OA
BRANCH  10  15
ATOM     11  C   UNL     1      47.262   3.336  17.472  0.00  0.00    +0.000 C 
ATOM     12  C   UNL     1      48.653   3.964  17.573  0.00  0.00    +0.000 C 
ATOM     13  C   UNL     1      49.757   2.915  17.572  0.00  0.00    +0.000 C 
ATOM     14  C   UNL     1      48.774   4.988  18.727  0.00  0.00    +0.000 C 
ATOM     15  C   UNL     1      48.546   6.128  17.704  0.00  0.00    +0.000 C 
ATOM     16  C   UNL     1      48.917   5.133  16.585  0.00  0.00    +0.000 C 
ENDBRANCH  10  15
ENDBRANCH   4  10
ENDBRANCH   1   8
BRANCH   1  17
ATOM     17  C   UNL     1      49.503   7.986  12.095  0.00  0.00    +0.000 C 
BRANCH  17  18
ATOM     18  N   UNL     1      49.117   6.686  12.660  0.00  0.00    +0.000 N 
ATOM     19  H   UNL     1      49.622   6.422  13.505  0.00  0.00    +0.000 HD
BRANCH  18  20
ATOM     20  C   UNL     1      47.778   6.295  12.672  0.00  0.00    +0.000 A 
ATOM     21  C   UNL     1      46.825   6.814  11.787  0.00  0.00    +0.000 A 
ATOM     22  C   UNL     1      45.533   6.288  11.719  0.00  0.00    +0.000 A 
ATOM     23  C   UNL     1      45.191   5.206  12.528  0.00  0.00    +0.000 A 
ATOM     24  C   UNL     1      46.104   4.692  13.448  0.00  0.00    +0.000 A 
ATOM     25  C   UNL     1      47.392   5.231  13.505  0.00  0.00    +0.000 A 
BRANCH  23  26
ATOM     26  S   UNL     1      43.604   4.447  12.340  0.00  0.00    +0.000 S 
ATOM     27  O   UNL     1      43.174   4.581  10.967  0.00  0.00    +0.000 OA
ATOM     28  O   UNL     1      43.595   3.184  13.036  0.00  0.00    +0.000 OA
BRANCH  26  29
ATOM     29  N   UNL     1      42.644   5.488  13.239  0.00  0.00    +0.000 NA
ATOM     30  H   UNL     1      42.749   5.298  14.235  0.00  0.00    +0.000 HD
ATOM     31  H   UNL     1      42.815   6.454  12.969  0.00  0.00    +0.000 HD
ENDBRANCH  26  29
ENDBRANCH  23  26
ENDBRANCH  18  20
ENDBRANCH  17  18
ENDBRANCH   1  17
TORSDOF 8
ENDMDL
MODEL 7
REMARK VINA RESULT:    -5.965      3.969      6.370
REMARK INTER + INTRA:          -9.917
REMARK INTER:                  -8.603
REMARK INTRA:                  -1.313
REMARK UNBOUND:                -1.337
REMARK  Name = 
REMARK  12 active torsions:
REMARK  status: ('A' for Active; 'I' for Inactive)
REMARK    1  A    between atoms: C_1  and  C_2
REMARK    2  A    between atoms: C_2  and  C_3
REMARK    3  A    between atoms: C_5  and  O_6
REMARK    4  A    between atoms: O_6  and  C_7
REMARK    5  A    between atoms: C_11  and  C_12
REMARK    6  A    between atoms: C_12  and  C_13
REMARK    7  A    between atoms: C_12  and  C_14
REMARK    8  A    between atoms: C_12  and  C_15
REMARK    9  A    between atoms: C_15  and  N_16
REMARK   10  A    between atoms: N_16  and  C_17
REMARK   11  A    between atoms: C_20  and  S_21
REMARK   12  A    between atoms: S_21  and  N_22
REMARK                            x       y       z     vdW  Elec       q    Type
REMARK                         _______ _______ _______ _____ _____    ______ ____
ROOT
ATOM      1  C   UNL     1      50.384   8.835  14.546  0.00  0.00    +0.000 C 
ATOM      2  C   UNL     1      51.066  10.212  14.376  0.00  0.00    +0.000 C 
ATOM      3  C   UNL     1      51.479   7.769  14.781  0.00  0.00    +0.000 C 
ENDROOT
BRANCH   1   8
ATOM      4  C   UNL     1      48.474   7.800  17.743  0.00  0.00    +0.000 A 
ATOM      5  C   UNL     1      47.906   9.002  18.143  0.00  0.00    +0.000 A 
ATOM      6  C   UNL     1      48.054  10.132  17.342  0.00  0.00    +0.000 A 
ATOM      7  C   UNL     1      48.819  10.073  16.171  0.00  0.00    +0.000 A 
ATOM      8  C   UNL     1      49.444   8.879  15.768  0.00  0.00    +0.000 A 
ATOM      9  C   UNL     1      49.205   7.743  16.556  0.00  0.00    +0.000 A 
BRANCH   4  10
ATOM     10  O   UNL     1      48.307   6.718  18.576  0.00  0.00    +0.000 OA
BRANCH  10  15
ATOM     11  C   UNL     1      49.781   2.626  17.405  0.00  0.00    +0.000 C 
ATOM     12  C   UNL     1      48.529   3.406  17.807  0.00  0.00    +0.000 C 
ATOM     13  C   UNL     1      47.284   2.527  17.815  0.00  0.00    +0.000 C 
ATOM     14  C   UNL     1      48.353   4.722  17.014  0.00  0.00    +0.000 C 
ATOM     15  C   UNL     1      48.978   5.492  18.202  0.00  0.00    +0.000 C 
ATOM     16  C   UNL     1      48.679   4.268  19.091  0.00  0.00    +0.000 C 
ENDBRANCH  10  15
ENDBRANCH   4  10
ENDBRANCH   1   8
BRANCH   1  17
ATOM     17  C   UNL     1      49.673   8.525  13.182  0.00  0.00    +0.000 C 
BRANCH  17  18
ATOM     18  N   UNL     1      49.380   7.099  12.990  0.00  0.00    +0.000 N 
ATOM     19  H   UNL     1      49.970   6.467  13.528  0.00  0.00    +0.000 HD
BRANCH  18  20
ATOM     20  C   UNL     1      48.059   6.663  12.880  0.00  0.00    +0.000 A 
ATOM     21  C   UNL     1      47.260   6.926  11.761  0.00  0.00    +0.000 A 
ATOM     22  C   UNL     1      46.000   6.342  11.612  0.00  0.00    +0.000 A 
ATOM     23  C   UNL     1      45.538   5.455  12.583  0.00  0.00    +0.000 A 
ATOM     24  C   UNL     1      46.292   5.202  13.728  0.00  0.00    +0.000 A 
ATOM     25  C   UNL     1      47.550   5.797  13.862  0.00  0.00    +0.000 A 
BRANCH  23  26
ATOM     26  S   UNL     1      44.009   4.604  12.325  0.00  0.00    +0.000 S 
ATOM     27  O   UNL     1      43.560   4.835  10.971  0.00  0.00    +0.000 OA
ATOM     28  O   UNL     1      44.096   3.284  12.900  0.00  0.00    +0.000 OA
BRANCH  26  29
ATOM     29  N   UNL     1      42.983   5.484  13.319  0.00  0.00    +0.000 NA
ATOM     30  H   UNL     1      42.972   5.089  14.258  0.00  0.00    +0.000 HD
ATOM     31  H   UNL     1      43.209   6.476  13.276  0.00  0.00    +0.000 HD
ENDBRANCH  26  29
ENDBRANCH  23  26
ENDBRANCH  18  20
ENDBRANCH  17  18
ENDBRANCH   1  17
TORSDOF 8
ENDMDL
MODEL 8
REMARK VINA RESULT:    -5.849      3.398      6.497
REMARK INTER + INTRA:          -9.751
REMARK INTER:                  -8.606
REMARK INTRA:                  -1.144
REMARK UNBOUND:                -1.337
REMARK  Name = 
REMARK  12 active torsions:
REMARK  status: ('A' for Active; 'I' for Inactive)
REMARK    1  A    between atoms: C_1  and  C_2
REMARK    2  A    between atoms: C_2  and  C_3
REMARK    3  A    between atoms: C_5  and  O_6
REMARK    4  A    between atoms: O_6  and  C_7
REMARK    5  A    between atoms: C_11  and  C_12
REMARK    6  A    between atoms: C_12  and  C_13
REMARK    7  A    between atoms: C_12  and  C_14
REMARK    8  A    between atoms: C_12  and  C_15
REMARK    9  A    between atoms: C_15  and  N_16
REMARK   10  A    between atoms: N_16  and  C_17
REMARK   11  A    between atoms: C_20  and  S_21
REMARK   12  A    between atoms: S_21  and  N_22
REMARK                            x       y       z     vdW  Elec       q    Type
REMARK                         _______ _______ _______ _____ _____    ______ ____
ROOT
ATOM      1  C   UNL     1      48.589   5.250  17.442  0.00  0.00    +0.000 C 
ATOM      2  C   UNL     1      49.994   4.609  17.364  0.00  0.00    +0.000 C 
ATOM      3  C   UNL     1      47.934   4.841  18.782  0.00  0.00    +0.000 C 
ENDROOT
BRANCH   1   8
ATOM      4  C   UNL     1      49.611   8.803  16.315  0.00  0.00    +0.000 A 
ATOM      5  C   UNL     1      48.814   9.604  17.121  0.00  0.00    +0.000 A 
ATOM      6  C   UNL     1      48.011   9.014  18.096  0.00  0.00    +0.000 A 
ATOM      7  C   UNL     1      47.963   7.621  18.224  0.00  0.00    +0.000 A 
ATOM      8  C   UNL     1      48.726   6.786  17.388  0.00  0.00    +0.000 A 
ATOM      9  C   UNL     1      49.582   7.417  16.473  0.00  0.00    +0.000 A 
BRANCH   4  10
ATOM     10  O   UNL     1      50.374   9.435  15.361  0.00  0.00    +0.000 OA
BRANCH  10  15
ATOM     11  C   UNL     1      48.269  10.271  11.467  0.00  0.00    +0.000 C 
ATOM     12  C   UNL     1      48.984   9.176  12.260  0.00  0.00    +0.000 C 
ATOM     13  C   UNL     1      49.009   7.849  11.513  0.00  0.00    +0.000 C 
ATOM     14  C   UNL     1      48.481   9.056  13.718  0.00  0.00    +0.000 C 
ATOM     15  C   UNL     1      49.688   9.908  14.178  0.00  0.00    +0.000 C 
ATOM     16  C   UNL     1      50.370   9.582  12.834  0.00  0.00    +0.000 C 
ENDBRANCH  10  15
ENDBRANCH   4  10
ENDBRANCH   1   8
BRANCH   1  17
ATOM     17  C   UNL     1      47.754   4.624  16.271  0.00  0.00    +0.000 C 
BRANCH  17  18
ATOM     18  N   UNL     1      47.552   5.545  15.145  0.00  0.00    +0.000 N 
ATOM     19  H   UNL     1      48.351   6.140  14.932  0.00  0.00    +0.000 HD
BRANCH  18  20
ATOM     20  C   UNL     1      46.859   5.125  14.009  0.00  0.00    +0.000 A 
ATOM     21  C   UNL     1      46.658   3.774  13.695  0.00  0.00    +0.000 A 
ATOM     22  C   UNL     1      45.827   3.389  12.641  0.00  0.00    +0.000 A 
ATOM     23  C   UNL     1      45.161   4.364  11.902  0.00  0.00    +0.000 A 
ATOM     24  C   UNL     1      45.372   5.718  12.162  0.00  0.00    +0.000 A 
ATOM     25  C   UNL     1      46.208   6.087  13.220  0.00  0.00    +0.000 A 
BRANCH  23  26
ATOM     26  S   UNL     1      43.999   3.873  10.662  0.00  0.00    +0.000 S 
ATOM     27  O   UNL     1      43.196   5.015  10.286  0.00  0.00    +0.000 OA
ATOM     28  O   UNL     1      44.662   3.037   9.692  0.00  0.00    +0.000 OA
BRANCH  26  29
ATOM     29  N   UNL     1      42.996   2.863  11.549  0.00  0.00    +0.000 NA
ATOM     30  H   UNL     1      42.018   3.096  11.383  0.00  0.00    +0.000 HD
ATOM     31  H   UNL     1      43.235   1.887  11.382  0.00  0.00    +0.000 HD
ENDBRANCH  26  29
ENDBRANCH  23  26
ENDBRANCH  18  20
ENDBRANCH  17  18
ENDBRANCH   1  17
TORSDOF 8
ENDMDL
MODEL 9
REMARK VINA RESULT:    -5.826      3.380      6.468
REMARK INTER + INTRA:          -9.717
REMARK INTER:                  -9.040
REMARK INTRA:                  -0.676
REMARK UNBOUND:                -1.337
REMARK  Name = 
REMARK  12 active torsions:
REMARK  status: ('A' for Active; 'I' for Inactive)
REMARK    1  A    between atoms: C_1  and  C_2
REMARK    2  A    between atoms: C_2  and  C_3
REMARK    3  A    between atoms: C_5  and  O_6
REMARK    4  A    between atoms: O_6  and  C_7
REMARK    5  A    between atoms: C_11  and  C_12
REMARK    6  A    between atoms: C_12  and  C_13
REMARK    7  A    between atoms: C_12  and  C_14
REMARK    8  A    between atoms: C_12  and  C_15
REMARK    9  A    between atoms: C_15  and  N_16
REMARK   10  A    between atoms: N_16  and  C_17
REMARK   11  A    between atoms: C_20  and  S_21
REMARK   12  A    between atoms: S_21  and  N_22
REMARK                            x       y       z     vdW  Elec       q    Type
REMARK                         _______ _______ _______ _____ _____    ______ ____
ROOT
ATOM      1  C   UNL     1      48.365   4.648  17.555  0.00  0.00    +0.000 C 
ATOM      2  C   UNL     1      48.683   3.325  18.290  0.00  0.00    +0.000 C 
ATOM      3  C   UNL     1      47.611   5.583  18.529  0.00  0.00    +0.000 C 
ENDROOT
BRANCH   1   8
ATOM      4  C   UNL     1      50.876   7.223  16.140  0.00  0.00    +0.000 A 
ATOM      5  C   UNL     1      52.095   6.678  16.519  0.00  0.00    +0.000 A 
ATOM      6  C   UNL     1      52.126   5.436  17.150  0.00  0.00    +0.000 A 
ATOM      7  C   UNL     1      50.933   4.767  17.452  0.00  0.00    +0.000 A 
ATOM      8  C   UNL     1      49.684   5.320  17.121  0.00  0.00    +0.000 A 
ATOM      9  C   UNL     1      49.695   6.533  16.415  0.00  0.00    +0.000 A 
BRANCH   4  10
ATOM     10  O   UNL     1      50.902   8.457  15.532  0.00  0.00    +0.000 OA
BRANCH  10  15
ATOM     11  C   UNL     1      51.057   8.770  11.041  0.00  0.00    +0.000 C 
ATOM     12  C   UNL     1      50.129   8.924  12.246  0.00  0.00    +0.000 C 
ATOM     13  C   UNL     1      48.728   9.361  11.838  0.00  0.00    +0.000 C 
ATOM     14  C   UNL     1      50.741   9.783  13.378  0.00  0.00    +0.000 C 
ATOM     15  C   UNL     1      51.153   8.482  14.107  0.00  0.00    +0.000 C 
ATOM     16  C   UNL     1      50.133   7.724  13.234  0.00  0.00    +0.000 C 
ENDBRANCH  10  15
ENDBRANCH   4  10
ENDBRANCH   1   8
BRANCH   1  17
ATOM     17  C   UNL     1      47.399   4.275  16.377  0.00  0.00    +0.000 C 
BRANCH  17  18
ATOM     18  N   UNL     1      47.500   5.188  15.231  0.00  0.00    +0.000 N 
ATOM     19  H   UNL     1      48.426   5.585  15.084  0.00  0.00    +0.000 HD
BRANCH  18  20
ATOM     20  C   UNL     1      46.827   4.902  14.043  0.00  0.00    +0.000 A 
ATOM     21  C   UNL     1      46.514   3.598  13.639  0.00  0.00    +0.000 A 
ATOM     22  C   UNL     1      45.703   3.355  12.529  0.00  0.00    +0.000 A 
ATOM     23  C   UNL     1      45.168   4.431  11.823  0.00  0.00    +0.000 A 
ATOM     24  C   UNL     1      45.491   5.741  12.175  0.00  0.00    +0.000 A 
ATOM     25  C   UNL     1      46.307   5.967  13.288  0.00  0.00    +0.000 A 
BRANCH  23  26
ATOM     26  S   UNL     1      44.025   4.126  10.508  0.00  0.00    +0.000 S 
ATOM     27  O   UNL     1      44.750   4.037   9.261  0.00  0.00    +0.000 OA
ATOM     28  O   UNL     1      43.074   3.125  10.927  0.00  0.00    +0.000 OA
BRANCH  26  29
ATOM     29  N   UNL     1      43.192   5.580  10.466  0.00  0.00    +0.000 NA
ATOM     30  H   UNL     1      42.214   5.439  10.716  0.00  0.00    +0.000 HD
ATOM     31  H   UNL     1      43.674   6.285  11.020  0.00  0.00    +0.000 HD
ENDBRANCH  26  29
ENDBRANCH  23  26
ENDBRANCH  18  20
ENDBRANCH  17  18
ENDBRANCH   1  17
TORSDOF 8
ENDMDL
