MODEL 1
REMARK VINA RESULT:    -8.006      0.000      0.000
REMARK INTER + INTRA:         -11.925
REMARK INTER:                 -10.814
REMARK INTRA:                  -1.111
REMARK UNBOUND:                -1.111
REMARK  Name = 
REMARK  7 active torsions:
REMARK  status: ('A' for Active; 'I' for Inactive)
REMARK    1  A    between atoms: C_1  and  C_2
REMARK    2  A    between atoms: C_2  and  N_3
REMARK    3  A    between atoms: C_2  and  C_16
REMARK    4  A    between atoms: C_4  and  C_6
REMARK    5  A    between atoms: C_19  and  C_20
REMARK    6  A    between atoms: C_20  and  N_21
REMARK    7  A    between atoms: C_22  and  C_24
REMARK                            x       y       z     vdW  Elec       q    Type
REMARK                         _______ _______ _______ _____ _____    ______ ____
ROOT
ATOM      1  C   UNL     1      47.517   8.926  13.857  0.00  0.00    +0.000 C 
ATOM      2  C   UNL     1      47.881   7.435  13.827  0.00  0.00    +0.000 C 
ENDROOT
BRANCH   2   3
ATOM      3  C   UNL     1      46.908   6.673  12.933  0.00  0.00    +0.000 A 
ATOM      4  C   UNL     1      46.226   7.317  11.892  0.00  0.00    +0.000 A 
ATOM      5  C   UNL     1      45.350   6.605  11.060  0.00  0.00    +0.000 A 
ATOM      6  C   UNL     1      45.129   5.234  11.254  0.00  0.00    +0.000 A 
ATOM      7  C   UNL     1      45.817   4.586  12.287  0.00  0.00    +0.000 A 
ATOM      8  C   UNL     1      46.690   5.296  13.117  0.00  0.00    +0.000 A 
BRANCH   6   9
ATOM      9  C   UNL     1      44.204   4.459  10.351  0.00  0.00    +0.000 C 
BRANCH   9  10
ATOM     10  N   UNL     1      44.909   3.416   9.645  0.00  0.00    +0.000 N 
ATOM     11  C   UNL     1      45.640   3.685   8.514  0.00  0.00    +0.000 C 
ATOM     12  O   UNL     1      45.714   4.811   8.031  0.00  0.00    +0.000 OA
ATOM     13  H   UNL     1      44.927   2.494  10.056  0.00  0.00    +0.000 HD
BRANCH  11  14
ATOM     14  C   UNL     1      46.320   2.556   7.931  0.00  0.00    +0.000 A 
ATOM     15  C   UNL     1      47.332   2.440   6.998  0.00  0.00    +0.000 A 
ATOM     16  N   UNL     1      47.650   1.127   6.759  0.00  0.00    +0.000 NA
ATOM     17  C   UNL     1      46.850   0.434   7.535  0.00  0.00    +0.000 A 
ATOM     18  N   UNL     1      46.033   1.249   8.262  0.00  0.00    +0.000 N 
ATOM     19  H   UNL     1      45.333   0.960   8.934  0.00  0.00    +0.000 HD
ENDBRANCH  11  14
ENDBRANCH   9  10
ENDBRANCH   6   9
ENDBRANCH   2   3
BRANCH   2  20
ATOM     20  N   UNL     1      47.887   6.831  15.155  0.00  0.00    +0.000 N 
ATOM     21  C   UNL     1      49.030   6.431  15.800  0.00  0.00    +0.000 C 
ATOM     22  O   UNL     1      50.152   6.608  15.337  0.00  0.00    +0.000 OA
ATOM     23  H   UNL     1      47.012   6.398  15.440  0.00  0.00    +0.000 HD
BRANCH  21  24
ATOM     24  C   UNL     1      48.851   5.824  17.126  0.00  0.00    +0.000 A 
ATOM     25  C   UNL     1      49.113   4.472  17.305  0.00  0.00    +0.000 A 
ATOM     26  S   UNL     1      48.846   3.927  18.899  0.00  0.00    +0.000 S 
ATOM     27  C   UNL     1      48.334   5.470  19.397  0.00  0.00    +0.000 A 
ATOM     28  N   UNL     1      47.909   5.689  20.671  0.00  0.00    +0.000 NA
ATOM     29  C   UNL     1      47.519   6.899  20.902  0.00  0.00    +0.000 A 
ATOM     30  N   UNL     1      47.532   7.914  19.980  0.00  0.00    +0.000 N 
ATOM     31  C   UNL     1      47.995   7.750  18.696  0.00  0.00    +0.000 A 
ATOM     32  O   UNL     1      48.068   8.693  17.917  0.00  0.00    +0.000 OA
ATOM     33  C   UNL     1      48.405   6.398  18.373  0.00  0.00    +0.000 A 
ATOM     34  H   UNL     1      47.237   8.845  20.234  0.00  0.00    +0.000 HD
ENDBRANCH  21  24
ENDBRANCH   2  20
TORSDOF 6
ENDMDL
MODEL 2
REMARK VINA RESULT:    -7.719      1.328      2.118
REMARK INTER + INTRA:         -11.537
REMARK INTER:                 -10.600
REMARK INTRA:                  -0.937
REMARK UNBOUND:                -1.111
REMARK  Name = 
REMARK  7 active torsions:
REMARK  status: ('A' for Active; 'I' for Inactive)
REMARK    1  A    between atoms: C_1  and  C_2
REMARK    2  A    between atoms: C_2  and  N_3
REMARK    3  A    between atoms: C_2  and  C_16
REMARK    4  A    between atoms: C_4  and  C_6
REMARK    5  A    between atoms: C_19  and  C_20
REMARK    6  A    between atoms: C_20  and  N_21
REMARK    7  A    between atoms: C_22  and  C_24
REMARK                            x       y       z     vdW  Elec       q    Type
REMARK                         _______ _______ _______ _____ _____    ______ ____
ROOT
ATOM      1  C   UNL     1      47.503   9.159  13.253  0.00  0.00    +0.000 C 
ATOM      2  C   UNL     1      47.928   7.733  13.633  0.00  0.00    +0.000 C 
ENDROOT
BRANCH   2   3
ATOM      3  C   UNL     1      47.026   6.713  12.944  0.00  0.00    +0.000 A 
ATOM      4  C   UNL     1      46.728   5.486  13.551  0.00  0.00    +0.000 A 
ATOM      5  C   UNL     1      45.880   4.562  12.922  0.00  0.00    +0.000 A 
ATOM      6  C   UNL     1      45.317   4.841  11.669  0.00  0.00    +0.000 A 
ATOM      7  C   UNL     1      45.605   6.070  11.066  0.00  0.00    +0.000 A 
ATOM      8  C   UNL     1      46.451   6.991  11.692  0.00  0.00    +0.000 A 
BRANCH   6   9
ATOM      9  C   UNL     1      44.390   3.860  10.997  0.00  0.00    +0.000 C 
BRANCH   9  10
ATOM     10  N   UNL     1      45.112   2.967  10.124  0.00  0.00    +0.000 N 
ATOM     11  C   UNL     1      45.309   3.264   8.798  0.00  0.00    +0.000 C 
ATOM     12  O   UNL     1      44.865   4.286   8.281  0.00  0.00    +0.000 OA
ATOM     13  H   UNL     1      45.550   2.155  10.534  0.00  0.00    +0.000 HD
BRANCH  11  14
ATOM     14  C   UNL     1      46.076   2.300   8.052  0.00  0.00    +0.000 A 
ATOM     15  C   UNL     1      46.990   2.411   7.021  0.00  0.00    +0.000 A 
ATOM     16  N   UNL     1      47.464   1.183   6.633  0.00  0.00    +0.000 NA
ATOM     17  C   UNL     1      46.857   0.319   7.412  0.00  0.00    +0.000 A 
ATOM     18  N   UNL     1      46.014   0.942   8.285  0.00  0.00    +0.000 N 
ATOM     19  H   UNL     1      45.437   0.500   8.989  0.00  0.00    +0.000 HD
ENDBRANCH  11  14
ENDBRANCH   9  10
ENDBRANCH   6   9
ENDBRANCH   2   3
BRANCH   2  20
ATOM     20  N   UNL     1      47.901   7.502  15.073  0.00  0.00    +0.000 N 
ATOM     21  C   UNL     1      48.957   6.981  15.777  0.00  0.00    +0.000 C 
ATOM     22  O   UNL     1      50.039   6.723  15.259  0.00  0.00    +0.000 OA
ATOM     23  H   UNL     1      46.975   7.411  15.481  0.00  0.00    +0.000 HD
BRANCH  21  24
ATOM     24  C   UNL     1      48.751   6.798  17.220  0.00  0.00    +0.000 A 
ATOM     25  C   UNL     1      48.595   7.910  18.038  0.00  0.00    +0.000 A 
ATOM     26  S   UNL     1      48.376   7.524  19.685  0.00  0.00    +0.000 S 
ATOM     27  C   UNL     1      48.523   5.859  19.368  0.00  0.00    +0.000 A 
ATOM     28  N   UNL     1      48.475   4.948  20.377  0.00  0.00    +0.000 NA
ATOM     29  C   UNL     1      48.632   3.723  19.998  0.00  0.00    +0.000 A 
ATOM     30  N   UNL     1      48.814   3.325  18.698  0.00  0.00    +0.000 N 
ATOM     31  C   UNL     1      48.823   4.206  17.642  0.00  0.00    +0.000 A 
ATOM     32  O   UNL     1      48.909   3.815  16.483  0.00  0.00    +0.000 OA
ATOM     33  C   UNL     1      48.694   5.599  18.020  0.00  0.00    +0.000 A 
ATOM     34  H   UNL     1      48.904   2.348  18.466  0.00  0.00    +0.000 HD
ENDBRANCH  21  24
ENDBRANCH   2  20
TORSDOF 6
ENDMDL
MODEL 3
REMARK VINA RESULT:    -7.519      2.760      3.941
REMARK INTER + INTRA:         -11.268
REMARK INTER:                 -10.313
REMARK INTRA:                  -0.956
REMARK UNBOUND:                -1.111
REMARK  Name = 
REMARK  7 active torsions:
REMARK  status: ('A' for Active; 'I' for Inactive)
REMARK    1  A    between atoms: C_1  and  C_2
REMARK    2  A    between atoms: C_2  and  N_3
REMARK    3  A    between atoms: C_2  and  C_16
REMARK    4  A    between atoms: C_4  and  C_6
REMARK    5  A    between atoms: C_19  and  C_20
REMARK    6  A    between atoms: C_20  and  N_21
REMARK    7  A    between atoms: C_22  and  C_24
REMARK                            x       y       z     vdW  Elec       q    Type
REMARK                         _______ _______ _______ _____ _____    ______ ____
ROOT
ATOM      1  C   UNL     1      47.494   3.535  15.338  0.00  0.00    +0.000 C 
ATOM      2  C   UNL     1      46.895   4.863  14.853  0.00  0.00    +0.000 C 
ENDROOT
BRANCH   2   3
ATOM      3  C   UNL     1      46.126   4.651  13.552  0.00  0.00    +0.000 A 
ATOM      4  C   UNL     1      45.577   5.734  12.852  0.00  0.00    +0.000 A 
ATOM      5  C   UNL     1      44.890   5.534  11.646  0.00  0.00    +0.000 A 
ATOM      6  C   UNL     1      44.730   4.246  11.115  0.00  0.00    +0.000 A 
ATOM      7  C   UNL     1      45.286   3.164  11.807  0.00  0.00    +0.000 A 
ATOM      8  C   UNL     1      45.970   3.363  13.010  0.00  0.00    +0.000 A 
BRANCH   6   9
ATOM      9  C   UNL     1      44.009   4.027   9.809  0.00  0.00    +0.000 C 
BRANCH   9  10
ATOM     10  N   UNL     1      44.828   3.293   8.874  0.00  0.00    +0.000 N 
ATOM     11  C   UNL     1      45.837   3.905   8.172  0.00  0.00    +0.000 C 
ATOM     12  O   UNL     1      46.082   5.103   8.282  0.00  0.00    +0.000 OA
ATOM     13  H   UNL     1      44.699   2.294   8.814  0.00  0.00    +0.000 HD
BRANCH  11  14
ATOM     14  C   UNL     1      46.596   3.046   7.299  0.00  0.00    +0.000 A 
ATOM     15  C   UNL     1      47.069   1.754   7.421  0.00  0.00    +0.000 A 
ATOM     16  N   UNL     1      47.754   1.359   6.300  0.00  0.00    +0.000 NA
ATOM     17  C   UNL     1      47.706   2.389   5.488  0.00  0.00    +0.000 A 
ATOM     18  N   UNL     1      47.018   3.428   6.043  0.00  0.00    +0.000 N 
ATOM     19  H   UNL     1      46.837   4.329   5.619  0.00  0.00    +0.000 HD
ENDBRANCH  11  14
ENDBRANCH   9  10
ENDBRANCH   6   9
ENDBRANCH   2   3
BRANCH   2  20
ATOM     20  N   UNL     1      47.905   5.895  14.649  0.00  0.00    +0.000 N 
ATOM     21  C   UNL     1      48.645   6.443  15.667  0.00  0.00    +0.000 C 
ATOM     22  O   UNL     1      48.560   6.063  16.830  0.00  0.00    +0.000 OA
ATOM     23  H   UNL     1      47.805   6.440  13.797  0.00  0.00    +0.000 HD
BRANCH  21  24
ATOM     24  C   UNL     1      49.607   7.485  15.285  0.00  0.00    +0.000 A 
ATOM     25  C   UNL     1      50.950   7.332  15.607  0.00  0.00    +0.000 A 
ATOM     26  S   UNL     1      51.928   8.634  15.101  0.00  0.00    +0.000 S 
ATOM     27  C   UNL     1      50.587   9.467  14.469  0.00  0.00    +0.000 A 
ATOM     28  N   UNL     1      50.726  10.702  13.917  0.00  0.00    +0.000 NA
ATOM     29  C   UNL     1      49.621  11.230  13.507  0.00  0.00    +0.000 A 
ATOM     30  N   UNL     1      48.392  10.628  13.583  0.00  0.00    +0.000 N 
ATOM     31  C   UNL     1      48.210   9.363  14.091  0.00  0.00    +0.000 A 
ATOM     32  O   UNL     1      47.112   8.818  14.075  0.00  0.00    +0.000 OA
ATOM     33  C   UNL     1      49.415   8.743  14.605  0.00  0.00    +0.000 A 
ATOM     34  H   UNL     1      47.570  11.086  13.220  0.00  0.00    +0.000 HD
ENDBRANCH  21  24
ENDBRANCH   2  20
TORSDOF 6
ENDMDL
MODEL 4
REMARK VINA RESULT:    -7.168      3.995      8.648
REMARK INTER + INTRA:         -10.793
REMARK INTER:                  -9.789
REMARK INTRA:                  -1.005
REMARK UNBOUND:                -1.111
REMARK  Name = 
REMARK  7 active torsions:
REMARK  status: ('A' for Active; 'I' for Inactive)
REMARK    1  A    between atoms: C_1  and  C_2
REMARK    2  A    between atoms: C_2  and  N_3
REMARK    3  A    between atoms: C_2  and  C_16
REMARK    4  A    between atoms: C_4  and  C_6
REMARK    5  A    between atoms: C_19  and  C_20
REMARK    6  A    between atoms: C_20  and  N_21
REMARK    7  A    between atoms: C_22  and  C_24
REMARK                            x       y       z     vdW  Elec       q    Type
REMARK                         _______ _______ _______ _____ _____    ______ ____
ROOT
ATOM      1  C   UNL     1      49.283   7.611  13.114  0.00  0.00    +0.000 C 
ATOM      2  C   UNL     1      47.997   7.008  13.696  0.00  0.00    +0.000 C 
ENDROOT
BRANCH   2   3
ATOM      3  C   UNL     1      48.310   6.230  14.971  0.00  0.00    +0.000 A 
ATOM      4  C   UNL     1      47.536   5.126  15.352  0.00  0.00    +0.000 A 
ATOM      5  C   UNL     1      47.842   4.402  16.513  0.00  0.00    +0.000 A 
ATOM      6  C   UNL     1      48.926   4.769  17.324  0.00  0.00    +0.000 A 
ATOM      7  C   UNL     1      49.706   5.864  16.940  0.00  0.00    +0.000 A 
ATOM      8  C   UNL     1      49.401   6.587  15.783  0.00  0.00    +0.000 A 
BRANCH   6   9
ATOM      9  C   UNL     1      49.272   3.982  18.563  0.00  0.00    +0.000 C 
BRANCH   9  10
ATOM     10  N   UNL     1      50.566   3.355  18.443  0.00  0.00    +0.000 N 
ATOM     11  C   UNL     1      50.761   2.264  17.630  0.00  0.00    +0.000 C 
ATOM     12  O   UNL     1      49.850   1.753  16.986  0.00  0.00    +0.000 OA
ATOM     13  H   UNL     1      51.350   3.794  18.903  0.00  0.00    +0.000 HD
BRANCH  11  14
ATOM     14  C   UNL     1      52.111   1.762  17.579  0.00  0.00    +0.000 A 
ATOM     15  C   UNL     1      53.344   2.339  17.812  0.00  0.00    +0.000 A 
ATOM     16  N   UNL     1      54.364   1.438  17.634  0.00  0.00    +0.000 NA
ATOM     17  C   UNL     1      53.775   0.315  17.297  0.00  0.00    +0.000 A 
ATOM     18  N   UNL     1      52.419   0.458  17.253  0.00  0.00    +0.000 N 
ATOM     19  H   UNL     1      51.742  -0.259  17.024  0.00  0.00    +0.000 HD
ENDBRANCH  11  14
ENDBRANCH   9  10
ENDBRANCH   6   9
ENDBRANCH   2   3
BRANCH   2  20
ATOM     20  N   UNL     1      47.310   6.132  12.755  0.00  0.00    +0.000 N 
ATOM     21  C   UNL     1      46.310   6.554  11.916  0.00  0.00    +0.000 C 
ATOM     22  O   UNL     1      45.953   7.726  11.845  0.00  0.00    +0.000 OA
ATOM     23  H   UNL     1      47.346   5.140  12.978  0.00  0.00    +0.000 HD
BRANCH  21  24
ATOM     24  C   UNL     1      45.715   5.533  11.045  0.00  0.00    +0.000 A 
ATOM     25  C   UNL     1      45.839   5.648   9.666  0.00  0.00    +0.000 A 
ATOM     26  S   UNL     1      45.084   4.387   8.802  0.00  0.00    +0.000 S 
ATOM     27  C   UNL     1      44.530   3.663  10.238  0.00  0.00    +0.000 A 
ATOM     28  N   UNL     1      43.760   2.542  10.205  0.00  0.00    +0.000 NA
ATOM     29  C   UNL     1      43.385   2.119  11.367  0.00  0.00    +0.000 A 
ATOM     30  N   UNL     1      43.725   2.705  12.559  0.00  0.00    +0.000 N 
ATOM     31  C   UNL     1      44.537   3.811  12.642  0.00  0.00    +0.000 A 
ATOM     32  O   UNL     1      44.888   4.267  13.725  0.00  0.00    +0.000 OA
ATOM     33  C   UNL     1      44.951   4.351  11.363  0.00  0.00    +0.000 A 
ATOM     34  H   UNL     1      43.418   2.308  13.434  0.00  0.00    +0.000 HD
ENDBRANCH  21  24
ENDBRANCH   2  20
TORSDOF 6
ENDMDL
MODEL 5
REMARK VINA RESULT:    -6.976      2.669      3.906
REMARK INTER + INTRA:         -10.534
REMARK INTER:                  -9.657
REMARK INTRA:                  -0.877
REMARK UNBOUND:                -1.111
REMARK  Name = 
REMARK  7 active torsions:
REMARK  status: ('A' for Active; 'I' for Inactive)
REMARK    1  A    between atoms: C_1  and  C_2
REMARK    2  A    between atoms: C_2  and  N_3
REMARK    3  A    between atoms: C_2  and  C_16
REMARK    4  A    between atoms: C_4  and  C_6
REMARK    5  A    between atoms: C_19  and  C_20
REMARK    6  A    between atoms: C_20  and  N_21
REMARK    7  A    between atoms: C_22  and  C_24
REMARK                            x       y       z     vdW  Elec       q    Type
REMARK                         _______ _______ _______ _____ _____    ______ ____
ROOT
ATOM      1  C   UNL     1      47.702   3.349  15.494  0.00  0.00    +0.000 C 
ATOM      2  C   UNL     1      47.059   4.695  15.132  0.00  0.00    +0.000 C 
ENDROOT
BRANCH   2   3
ATOM      3  C   UNL     1      46.328   4.588  13.797  0.00  0.00    +0.000 A 
ATOM      4  C   UNL     1      46.117   3.345  13.186  0.00  0.00    +0.000 A 
ATOM      5  C   UNL     1      45.425   3.251  11.970  0.00  0.00    +0.000 A 
ATOM      6  C   UNL     1      44.936   4.400  11.331  0.00  0.00    +0.000 A 
ATOM      7  C   UNL     1      45.137   5.642  11.944  0.00  0.00    +0.000 A 
ATOM      8  C   UNL     1      45.827   5.735  13.157  0.00  0.00    +0.000 A 
BRANCH   6   9
ATOM      9  C   UNL     1      44.175   4.304  10.033  0.00  0.00    +0.000 C 
BRANCH   9  10
ATOM     10  N   UNL     1      44.892   3.516   9.060  0.00  0.00    +0.000 N 
ATOM     11  C   UNL     1      45.881   4.065   8.282  0.00  0.00    +0.000 C 
ATOM     12  O   UNL     1      46.191   5.251   8.353  0.00  0.00    +0.000 OA
ATOM     13  H   UNL     1      44.710   2.523   9.028  0.00  0.00    +0.000 HD
BRANCH  11  14
ATOM     14  C   UNL     1      46.537   3.155   7.377  0.00  0.00    +0.000 A 
ATOM     15  C   UNL     1      46.864   1.815   7.456  0.00  0.00    +0.000 A 
ATOM     16  N   UNL     1      47.496   1.382   6.318  0.00  0.00    +0.000 NA
ATOM     17  C   UNL     1      47.560   2.436   5.539  0.00  0.00    +0.000 A 
ATOM     18  N   UNL     1      46.993   3.527   6.131  0.00  0.00    +0.000 N 
ATOM     19  H   UNL     1      46.912   4.456   5.736  0.00  0.00    +0.000 HD
ENDBRANCH  11  14
ENDBRANCH   9  10
ENDBRANCH   6   9
ENDBRANCH   2   3
BRANCH   2  20
ATOM     20  N   UNL     1      48.029   5.782  15.062  0.00  0.00    +0.000 N 
ATOM     21  C   UNL     1      48.523   6.430  16.166  0.00  0.00    +0.000 C 
ATOM     22  O   UNL     1      48.235   6.103  17.313  0.00  0.00    +0.000 OA
ATOM     23  H   UNL     1      48.066   6.276  14.174  0.00  0.00    +0.000 HD
BRANCH  21  24
ATOM     24  C   UNL     1      49.481   7.514  15.912  0.00  0.00    +0.000 A 
ATOM     25  C   UNL     1      49.018   8.758  15.500  0.00  0.00    +0.000 A 
ATOM     26  S   UNL     1      50.259   9.898  15.240  0.00  0.00    +0.000 S 
ATOM     27  C   UNL     1      51.461   8.759  15.630  0.00  0.00    +0.000 A 
ATOM     28  N   UNL     1      52.780   9.083  15.560  0.00  0.00    +0.000 NA
ATOM     29  C   UNL     1      53.582   8.113  15.852  0.00  0.00    +0.000 A 
ATOM     30  N   UNL     1      53.185   6.855  16.224  0.00  0.00    +0.000 N 
ATOM     31  C   UNL     1      51.863   6.497  16.352  0.00  0.00    +0.000 A 
ATOM     32  O   UNL     1      51.537   5.388  16.762  0.00  0.00    +0.000 OA
ATOM     33  C   UNL     1      50.921   7.538  15.994  0.00  0.00    +0.000 A 
ATOM     34  H   UNL     1      53.865   6.149  16.465  0.00  0.00    +0.000 HD
ENDBRANCH  21  24
ENDBRANCH   2  20
TORSDOF 6
ENDMDL
MODEL 6
REMARK VINA RESULT:    -6.907      3.998      5.603
REMARK INTER + INTRA:         -10.441
REMARK INTER:                  -9.319
REMARK INTRA:                  -1.122
REMARK UNBOUND:                -1.111
REMARK  Name = 
REMARK  7 active torsions:
REMARK  status: ('A' for Active; 'I' for Inactive)
REMARK    1  A    between atoms: C_1  and  C_2
REMARK    2  A    between atoms: C_2  and  N_3
REMARK    3  A    between atoms: C_2  and  C_16
REMARK    4  A    between atoms: C_4  and  C_6
REMARK    5  A    between atoms: C_19  and  C_20
REMARK    6  A    between atoms: C_20  and  N_21
REMARK    7  A    between atoms: C_22  and  C_24
REMARK                            x       y       z     vdW  Elec       q    Type
REMARK                         _______ _______ _______ _____ _____    ______ ____
ROOT
ATOM      1  C   UNL     1      47.789   2.922  17.980  0.00  0.00    +0.000 C 
ATOM      2  C   UNL     1      48.655   4.144  17.641  0.00  0.00    +0.000 C 
ENDROOT
BRANCH   2   3
ATOM      3  C   UNL     1      48.160   4.801  16.356  0.00  0.00    +0.000 A 
ATOM      4  C   UNL     1      48.688   6.022  15.918  0.00  0.00    +0.000 A 
ATOM      5  C   UNL     1      48.244   6.610  14.725  0.00  0.00    +0.000 A 
ATOM      6  C   UNL     1      47.255   5.993  13.945  0.00  0.00    +0.000 A 
ATOM      7  C   UNL     1      46.734   4.767  14.375  0.00  0.00    +0.000 A 
ATOM      8  C   UNL     1      47.176   4.182  15.565  0.00  0.00    +0.000 A 
BRANCH   6   9
ATOM      9  C   UNL     1      46.788   6.609  12.651  0.00  0.00    +0.000 C 
BRANCH   9  10
ATOM     10  N   UNL     1      46.401   5.599  11.696  0.00  0.00    +0.000 N 
ATOM     11  C   UNL     1      45.152   5.594  11.125  0.00  0.00    +0.000 C 
ATOM     12  O   UNL     1      44.296   6.427  11.409  0.00  0.00    +0.000 OA
ATOM     13  H   UNL     1      47.104   4.943  11.388  0.00  0.00    +0.000 HD
BRANCH  11  14
ATOM     14  C   UNL     1      44.912   4.548  10.163  0.00  0.00    +0.000 A 
ATOM     15  C   UNL     1      44.506   3.233  10.279  0.00  0.00    +0.000 A 
ATOM     16  N   UNL     1      44.419   2.622   9.053  0.00  0.00    +0.000 NA
ATOM     17  C   UNL     1      44.765   3.544   8.185  0.00  0.00    +0.000 A 
ATOM     18  N   UNL     1      45.068   4.721   8.805  0.00  0.00    +0.000 N 
ATOM     19  H   UNL     1      45.356   5.583   8.358  0.00  0.00    +0.000 HD
ENDBRANCH  11  14
ENDBRANCH   9  10
ENDBRANCH   6   9
ENDBRANCH   2   3
BRANCH   2  20
ATOM     20  N   UNL     1      50.067   3.810  17.495  0.00  0.00    +0.000 N 
ATOM     21  C   UNL     1      51.010   4.064  18.460  0.00  0.00    +0.000 C 
ATOM     22  O   UNL     1      50.729   4.538  19.556  0.00  0.00    +0.000 OA
ATOM     23  H   UNL     1      50.393   3.706  16.538  0.00  0.00    +0.000 HD
BRANCH  21  24
ATOM     24  C   UNL     1      52.390   3.678  18.140  0.00  0.00    +0.000 A 
ATOM     25  C   UNL     1      53.401   4.629  18.196  0.00  0.00    +0.000 A 
ATOM     26  S   UNL     1      54.940   4.018  17.786  0.00  0.00    +0.000 S 
ATOM     27  C   UNL     1      54.304   2.470  17.482  0.00  0.00    +0.000 A 
ATOM     28  N   UNL     1      55.100   1.461  17.040  0.00  0.00    +0.000 NA
ATOM     29  C   UNL     1      54.480   0.349  16.819  0.00  0.00    +0.000 A 
ATOM     30  N   UNL     1      53.138   0.151  17.018  0.00  0.00    +0.000 N 
ATOM     31  C   UNL     1      52.303   1.129  17.506  0.00  0.00    +0.000 A 
ATOM     32  O   UNL     1      51.123   0.901  17.748  0.00  0.00    +0.000 OA
ATOM     33  C   UNL     1      52.943   2.410  17.729  0.00  0.00    +0.000 A 
ATOM     34  H   UNL     1      52.719  -0.751  16.851  0.00  0.00    +0.000 HD
ENDBRANCH  21  24
ENDBRANCH   2  20
TORSDOF 6
ENDMDL
MODEL 7
REMARK VINA RESULT:    -6.789      3.805      5.668
REMARK INTER + INTRA:         -10.282
REMARK INTER:                  -9.169
REMARK INTRA:                  -1.113
REMARK UNBOUND:                -1.111
REMARK  Name = 
REMARK  7 active torsions:
REMARK  status: ('A' for Active; 'I' for Inactive)
REMARK    1  A    between atoms: C_1  and  C_2
REMARK    2  A    between atoms: C_2  and  N_3
REMARK    3  A    between atoms: C_2  and  C_16
REMARK    4  A    between atoms: C_4  and  C_6
REMARK    5  A    between atoms: C_19  and  C_20
REMARK    6  A    between atoms: C_20  and  N_21
REMARK    7  A    between atoms: C_22  and  C_24
REMARK                            x       y       z     vdW  Elec       q    Type
REMARK                         _______ _______ _______ _____ _____    ______ ____
ROOT
ATOM      1  C   UNL     1      48.419   6.534  14.853  0.00  0.00    +0.000 C 
ATOM      2  C   UNL     1      47.816   7.465  13.792  0.00  0.00    +0.000 C 
ENDROOT
BRANCH   2   3
ATOM      3  C   UNL     1      46.848   6.692  12.902  0.00  0.00    +0.000 A 
ATOM      4  C   UNL     1      46.167   7.325  11.853  0.00  0.00    +0.000 A 
ATOM      5  C   UNL     1      45.295   6.603  11.025  0.00  0.00    +0.000 A 
ATOM      6  C   UNL     1      45.077   5.233  11.231  0.00  0.00    +0.000 A 
ATOM      7  C   UNL     1      45.764   4.597  12.271  0.00  0.00    +0.000 A 
ATOM      8  C   UNL     1      46.633   5.316  13.097  0.00  0.00    +0.000 A 
BRANCH   6   9
ATOM      9  C   UNL     1      44.156   4.448  10.332  0.00  0.00    +0.000 C 
BRANCH   9  10
ATOM     10  N   UNL     1      44.874   3.429   9.605  0.00  0.00    +0.000 N 
ATOM     11  C   UNL     1      45.659   3.739   8.522  0.00  0.00    +0.000 C 
ATOM     12  O   UNL     1      45.774   4.887   8.101  0.00  0.00    +0.000 OA
ATOM     13  H   UNL     1      44.857   2.487   9.969  0.00  0.00    +0.000 HD
BRANCH  11  14
ATOM     14  C   UNL     1      46.345   2.628   7.913  0.00  0.00    +0.000 A 
ATOM     15  C   UNL     1      47.316   2.538   6.934  0.00  0.00    +0.000 A 
ATOM     16  N   UNL     1      47.662   1.233   6.686  0.00  0.00    +0.000 NA
ATOM     17  C   UNL     1      46.919   0.521   7.500  0.00  0.00    +0.000 A 
ATOM     18  N   UNL     1      46.112   1.315   8.261  0.00  0.00    +0.000 N 
ATOM     19  H   UNL     1      45.452   1.009   8.965  0.00  0.00    +0.000 HD
ENDBRANCH  11  14
ENDBRANCH   9  10
ENDBRANCH   6   9
ENDBRANCH   2   3
BRANCH   2  20
ATOM     20  N   UNL     1      48.830   8.100  12.958  0.00  0.00    +0.000 N 
ATOM     21  C   UNL     1      48.968   9.460  12.835  0.00  0.00    +0.000 C 
ATOM     22  O   UNL     1      48.285  10.257  13.470  0.00  0.00    +0.000 OA
ATOM     23  H   UNL     1      49.202   7.522  12.209  0.00  0.00    +0.000 HD
BRANCH  21  24
ATOM     24  C   UNL     1      50.033   9.929  11.939  0.00  0.00    +0.000 A 
ATOM     25  C   UNL     1      49.725  10.803  10.904  0.00  0.00    +0.000 A 
ATOM     26  S   UNL     1      51.072  11.240   9.953  0.00  0.00    +0.000 S 
ATOM     27  C   UNL     1      52.107  10.247  10.867  0.00  0.00    +0.000 A 
ATOM     28  N   UNL     1      53.422  10.124  10.546  0.00  0.00    +0.000 NA
ATOM     29  C   UNL     1      54.083   9.313  11.304  0.00  0.00    +0.000 A 
ATOM     30  N   UNL     1      53.551   8.627  12.365  0.00  0.00    +0.000 N 
ATOM     31  C   UNL     1      52.238   8.756  12.755  0.00  0.00    +0.000 A 
ATOM     32  O   UNL     1      51.808   8.191  13.754  0.00  0.00    +0.000 OA
ATOM     33  C   UNL     1      51.442   9.623  11.908  0.00  0.00    +0.000 A 
ATOM     34  H   UNL     1      54.129   8.028  12.934  0.00  0.00    +0.000 HD
ENDBRANCH  21  24
ENDBRANCH   2  20
TORSDOF 6
ENDMDL
MODEL 8
REMARK VINA RESULT:    -6.615      2.154      2.685
REMARK INTER + INTRA:         -10.046
REMARK INTER:                  -8.768
REMARK INTRA:                  -1.278
REMARK UNBOUND:                -1.111
REMARK  Name = 
REMARK  7 active torsions:
REMARK  status: ('A' for Active; 'I' for Inactive)
REMARK    1  A    between atoms: C_1  and  C_2
REMARK    2  A    between atoms: C_2  and  N_3
REMARK    3  A    between atoms: C_2  and  C_16
REMARK    4  A    between atoms: C_4  and  C_6
REMARK    5  A    between atoms: C_19  and  C_20
REMARK    6  A    between atoms: C_20  and  N_21
REMARK    7  A    between atoms: C_22  and  C_24
REMARK                            x       y       z     vdW  Elec       q    Type
REMARK                         _______ _______ _______ _____ _____    ______ ____
ROOT
ATOM      1  C   UNL     1      48.826  10.346  14.456  0.00  0.00    +0.000 C 
ATOM      2  C   UNL     1      49.078   8.863  14.153  0.00  0.00    +0.000 C 
ENDROOT
BRANCH   2   3
ATOM      3  C   UNL     1      47.947   8.300  13.297  0.00  0.00    +0.000 A 
ATOM      4  C   UNL     1      48.161   7.210  12.443  0.00  0.00    +0.000 A 
ATOM      5  C   UNL     1      47.111   6.683  11.676  0.00  0.00    +0.000 A 
ATOM      6  C   UNL     1      45.826   7.240  11.739  0.00  0.00    +0.000 A 
ATOM      7  C   UNL     1      45.608   8.322  12.599  0.00  0.00    +0.000 A 
ATOM      8  C   UNL     1      46.654   8.847  13.363  0.00  0.00    +0.000 A 
BRANCH   6   9
ATOM      9  C   UNL     1      44.689   6.666  10.932  0.00  0.00    +0.000 C 
BRANCH   9  10
ATOM     10  N   UNL     1      45.139   5.590  10.082  0.00  0.00    +0.000 N 
ATOM     11  C   UNL     1      44.608   4.327  10.182  0.00  0.00    +0.000 C 
ATOM     12  O   UNL     1      43.746   4.041  11.009  0.00  0.00    +0.000 OA
ATOM     13  H   UNL     1      45.793   5.810   9.345  0.00  0.00    +0.000 HD
BRANCH  11  14
ATOM     14  C   UNL     1      45.125   3.360   9.249  0.00  0.00    +0.000 A 
ATOM     15  C   UNL     1      45.785   3.471   8.040  0.00  0.00    +0.000 A 
ATOM     16  N   UNL     1      46.082   2.239   7.512  0.00  0.00    +0.000 NA
ATOM     17  C   UNL     1      45.617   1.373   8.381  0.00  0.00    +0.000 A 
ATOM     18  N   UNL     1      45.035   1.998   9.445  0.00  0.00    +0.000 N 
ATOM     19  H   UNL     1      44.608   1.554  10.248  0.00  0.00    +0.000 HD
ENDBRANCH  11  14
ENDBRANCH   9  10
ENDBRANCH   6   9
ENDBRANCH   2   3
BRANCH   2  20
ATOM     20  N   UNL     1      49.213   8.056  15.361  0.00  0.00    +0.000 N 
ATOM     21  C   UNL     1      50.366   7.400  15.709  0.00  0.00    +0.000 C 
ATOM     22  O   UNL     1      51.405   7.490  15.062  0.00  0.00    +0.000 OA
ATOM     23  H   UNL     1      48.341   7.711  15.752  0.00  0.00    +0.000 HD
BRANCH  21  24
ATOM     24  C   UNL     1      50.321   6.618  16.952  0.00  0.00    +0.000 A 
ATOM     25  C   UNL     1      51.206   6.913  17.982  0.00  0.00    +0.000 A 
ATOM     26  S   UNL     1      51.026   5.906  19.347  0.00  0.00    +0.000 S 
ATOM     27  C   UNL     1      49.787   5.016  18.595  0.00  0.00    +0.000 A 
ATOM     28  N   UNL     1      49.213   3.952  19.218  0.00  0.00    +0.000 NA
ATOM     29  C   UNL     1      48.309   3.350  18.518  0.00  0.00    +0.000 A 
ATOM     30  N   UNL     1      47.915   3.725  17.260  0.00  0.00    +0.000 N 
ATOM     31  C   UNL     1      48.436   4.820  16.611  0.00  0.00    +0.000 A 
ATOM     32  O   UNL     1      48.010   5.179  15.518  0.00  0.00    +0.000 OA
ATOM     33  C   UNL     1      49.486   5.506  17.336  0.00  0.00    +0.000 A 
ATOM     34  H   UNL     1      47.183   3.226  16.778  0.00  0.00    +0.000 HD
ENDBRANCH  21  24
ENDBRANCH   2  20
TORSDOF 6
ENDMDL
MODEL 9
REMARK VINA RESULT:    -6.597      3.386      9.178
REMARK INTER + INTRA:         -10.023
REMARK INTER:                  -9.010
REMARK INTRA:                  -1.013
REMARK UNBOUND:                -1.111
REMARK  Name = 
REMARK  7 active torsions:
REMARK  status: ('A' for Active; 'I' for Inactive)
REMARK    1  A    between atoms: C_1  and  C_2
REMARK    2  A    between atoms: C_2  and  N_3
REMARK    3  A    between atoms: C_2  and  C_16
REMARK    4  A    between atoms: C_4  and  C_6
REMARK    5  A    between atoms: C_19  and  C_20
REMARK    6  A    between atoms: C_20  and  N_21
REMARK    7  A    between atoms: C_22  and  C_24
REMARK                            x       y       z     vdW  Elec       q    Type
REMARK                         _______ _______ _______ _____ _____    ______ ____
ROOT
ATOM      1  C   UNL     1      48.925   7.550  11.841  0.00  0.00    +0.000 C 
ATOM      2  C   UNL     1      47.832   7.189  12.856  0.00  0.00    +0.000 C 
ENDROOT
BRANCH   2   3
ATOM      3  C   UNL     1      48.456   6.857  14.208  0.00  0.00    +0.000 A 
ATOM      4  C   UNL     1      47.881   5.898  15.054  0.00  0.00    +0.000 A 
ATOM      5  C   UNL     1      48.472   5.582  16.285  0.00  0.00    +0.000 A 
ATOM      6  C   UNL     1      49.648   6.222  16.703  0.00  0.00    +0.000 A 
ATOM      7  C   UNL     1      50.229   7.172  15.856  0.00  0.00    +0.000 A 
ATOM      8  C   UNL     1      49.640   7.488  14.628  0.00  0.00    +0.000 A 
BRANCH   6   9
ATOM      9  C   UNL     1      50.299   5.872  18.017  0.00  0.00    +0.000 C 
BRANCH   9  10
ATOM     10  N   UNL     1      50.699   4.486  18.053  0.00  0.00    +0.000 N 
ATOM     11  C   UNL     1      51.994   4.106  17.794  0.00  0.00    +0.000 C 
ATOM     12  O   UNL     1      52.869   4.915  17.498  0.00  0.00    +0.000 OA
ATOM     13  H   UNL     1      50.021   3.805  18.363  0.00  0.00    +0.000 HD
BRANCH  11  14
ATOM     14  C   UNL     1      52.260   2.694  17.899  0.00  0.00    +0.000 A 
ATOM     15  C   UNL     1      51.479   1.569  17.718  0.00  0.00    +0.000 A 
ATOM     16  N   UNL     1      52.195   0.418  17.936  0.00  0.00    +0.000 NA
ATOM     17  C   UNL     1      53.405   0.821  18.245  0.00  0.00    +0.000 A 
ATOM     18  N   UNL     1      53.495   2.182  18.233  0.00  0.00    +0.000 N 
ATOM     19  H   UNL     1      54.320   2.735  18.432  0.00  0.00    +0.000 HD
ENDBRANCH  11  14
ENDBRANCH   9  10
ENDBRANCH   6   9
ENDBRANCH   2   3
BRANCH   2  20
ATOM     20  N   UNL     1      47.007   6.068  12.420  0.00  0.00    +0.000 N 
ATOM     21  C   UNL     1      45.792   6.216  11.799  0.00  0.00    +0.000 C 
ATOM     22  O   UNL     1      45.327   7.312  11.501  0.00  0.00    +0.000 OA
ATOM     23  H   UNL     1      47.186   5.186  12.893  0.00  0.00    +0.000 HD
BRANCH  21  24
ATOM     24  C   UNL     1      45.087   4.978  11.443  0.00  0.00    +0.000 A 
ATOM     25  C   UNL     1      44.322   4.323  12.400  0.00  0.00    +0.000 A 
ATOM     26  S   UNL     1      43.579   2.900  11.826  0.00  0.00    +0.000 S 
ATOM     27  C   UNL     1      44.285   3.087  10.289  0.00  0.00    +0.000 A 
ATOM     28  N   UNL     1      44.088   2.163   9.311  0.00  0.00    +0.000 NA
ATOM     29  C   UNL     1      44.708   2.415   8.207  0.00  0.00    +0.000 A 
ATOM     30  N   UNL     1      45.493   3.517   7.986  0.00  0.00    +0.000 N 
ATOM     31  C   UNL     1      45.684   4.500   8.929  0.00  0.00    +0.000 A 
ATOM     32  O   UNL     1      46.327   5.512   8.678  0.00  0.00    +0.000 OA
ATOM     33  C   UNL     1      45.042   4.242  10.203  0.00  0.00    +0.000 A 
ATOM     34  H   UNL     1      45.930   3.668   7.089  0.00  0.00    +0.000 HD
ENDBRANCH  21  24
ENDBRANCH   2  20
TORSDOF 6
ENDMDL
