MODEL 1
REMARK VINA RESULT:    -7.265      0.000      0.000
REMARK INTER + INTRA:         -11.455
REMARK INTER:                 -10.238
REMARK INTRA:                  -1.217
REMARK UNBOUND:                -1.217
REMARK  Name = 
REMARK  8 active torsions:
REMARK  status: ('A' for Active; 'I' for Inactive)
REMARK    1  A    between atoms: C_1  and  O_2
REMARK    2  A    between atoms: O_2  and  C_3
REMARK    3  A    between atoms: C_8  and  C_9
REMARK    4  A    between atoms: N_11  and  C_12
REMARK    5  A    between atoms: C_12  and  C_13
REMARK    6  A    between atoms: C_16  and  C_17
REMARK    7  A    between atoms: C_17  and  N_18
REMARK    8  A    between atoms: C_19  and  C_21
REMARK                            x       y       z     vdW  Elec       q    Type
REMARK                         _______ _______ _______ _____ _____    ______ ____
ROOT
ATOM      1  C   UNL     1      50.273   7.413  15.345  0.00  0.00    +0.000 A 
ATOM      2  C   UNL     1      50.632   8.162  14.216  0.00  0.00    +0.000 A 
ATOM      3  C   UNL     1      49.759   8.280  13.123  0.00  0.00    +0.000 A 
ATOM      4  C   UNL     1      48.497   7.667  13.148  0.00  0.00    +0.000 A 
ATOM      5  C   UNL     1      48.139   6.927  14.283  0.00  0.00    +0.000 A 
ATOM      6  C   UNL     1      49.009   6.813  15.373  0.00  0.00    +0.000 A 
ENDROOT
BRANCH   1   7
ATOM      7  C   UNL     1      51.226   7.248  16.502  0.00  0.00    +0.000 C 
BRANCH   7  10
ATOM      8  C   UNL     1      51.310   5.111  17.716  0.00  0.00    +0.000 C 
ATOM      9  O   UNL     1      50.592   5.545  18.614  0.00  0.00    +0.000 OA
ATOM     10  N   UNL     1      51.687   5.890  16.648  0.00  0.00    +0.000 N 
ATOM     11  H   UNL     1      52.303   5.494  15.945  0.00  0.00    +0.000 HD
BRANCH   8  17
ATOM     12  C   UNL     1      51.020   2.583  17.278  0.00  0.00    +0.000 A 
ATOM     13  C   UNL     1      51.526   1.283  17.441  0.00  0.00    +0.000 A 
ATOM     14  C   UNL     1      52.760   1.064  18.054  0.00  0.00    +0.000 A 
ATOM     15  C   UNL     1      53.518   2.142  18.491  0.00  0.00    +0.000 A 
ATOM     16  C   UNL     1      53.027   3.440  18.338  0.00  0.00    +0.000 A 
ATOM     17  C   UNL     1      51.771   3.680  17.745  0.00  0.00    +0.000 A 
BRANCH  12  19
ATOM     18  C   UNL     1      48.651   2.740  17.419  0.00  0.00    +0.000 C 
ATOM     19  O   UNL     1      49.834   2.831  16.630  0.00  0.00    +0.000 OA
ENDBRANCH  12  19
ENDBRANCH   8  17
ENDBRANCH   7  10
ENDBRANCH   1   7
BRANCH   4  20
ATOM     20  C   UNL     1      47.542   7.767  11.982  0.00  0.00    +0.000 C 
BRANCH  20  21
ATOM     21  N   UNL     1      46.816   6.537  11.779  0.00  0.00    +0.000 N 
ATOM     22  C   UNL     1      45.446   6.510  11.677  0.00  0.00    +0.000 C 
ATOM     23  O   UNL     1      44.765   7.529  11.715  0.00  0.00    +0.000 OA
ATOM     24  H   UNL     1      47.295   5.684  12.050  0.00  0.00    +0.000 HD
BRANCH  22  25
ATOM     25  C   UNL     1      44.840   5.189  11.455  0.00  0.00    +0.000 A 
ATOM     26  C   UNL     1      44.066   4.597  12.444  0.00  0.00    +0.000 A 
ATOM     27  S   UNL     1      43.413   3.086  11.987  0.00  0.00    +0.000 S 
ATOM     28  C   UNL     1      44.183   3.146  10.467  0.00  0.00    +0.000 A 
ATOM     29  N   UNL     1      44.060   2.130   9.578  0.00  0.00    +0.000 NA
ATOM     30  C   UNL     1      44.719   2.299   8.477  0.00  0.00    +0.000 A 
ATOM     31  N   UNL     1      45.480   3.401   8.188  0.00  0.00    +0.000 N 
ATOM     32  C   UNL     1      45.604   4.468   9.043  0.00  0.00    +0.000 A 
ATOM     33  O   UNL     1      46.250   5.463   8.733  0.00  0.00    +0.000 OA
ATOM     34  C   UNL     1      44.903   4.318  10.304  0.00  0.00    +0.000 A 
ATOM     35  H   UNL     1      45.958   3.483   7.302  0.00  0.00    +0.000 HD
ENDBRANCH  22  25
ENDBRANCH  20  21
ENDBRANCH   4  20
TORSDOF 7
ENDMDL
MODEL 2
REMARK VINA RESULT:    -6.949      2.884      8.907
REMARK INTER + INTRA:         -11.010
REMARK INTER:                  -9.901
REMARK INTRA:                  -1.108
REMARK UNBOUND:                -1.217
REMARK  Name = 
REMARK  8 active torsions:
REMARK  status: ('A' for Active; 'I' for Inactive)
REMARK    1  A    between atoms: C_1  and  O_2
REMARK    2  A    between atoms: O_2  and  C_3
REMARK    3  A    between atoms: C_8  and  C_9
REMARK    4  A    between atoms: N_11  and  C_12
REMARK    5  A    between atoms: C_12  and  C_13
REMARK    6  A    between atoms: C_16  and  C_17
REMARK    7  A    between atoms: C_17  and  N_18
REMARK    8  A    between atoms: C_19  and  C_21
REMARK                            x       y       z     vdW  Elec       q    Type
REMARK                         _______ _______ _______ _____ _____    ______ ____
ROOT
ATOM      1  C   UNL     1      47.925   7.808  13.362  0.00  0.00    +0.000 A 
ATOM      2  C   UNL     1      48.265   6.606  13.998  0.00  0.00    +0.000 A 
ATOM      3  C   UNL     1      48.665   6.592  15.344  0.00  0.00    +0.000 A 
ATOM      4  C   UNL     1      48.712   7.781  16.087  0.00  0.00    +0.000 A 
ATOM      5  C   UNL     1      48.363   8.979  15.449  0.00  0.00    +0.000 A 
ATOM      6  C   UNL     1      47.961   8.991  14.108  0.00  0.00    +0.000 A 
ENDROOT
BRANCH   1   7
ATOM      7  C   UNL     1      47.538   7.832  11.905  0.00  0.00    +0.000 C 
BRANCH   7  10
ATOM      8  C   UNL     1      45.673   6.450  11.093  0.00  0.00    +0.000 C 
ATOM      9  O   UNL     1      44.888   7.394  11.165  0.00  0.00    +0.000 OA
ATOM     10  N   UNL     1      46.993   6.576  11.458  0.00  0.00    +0.000 N 
ATOM     11  H   UNL     1      47.595   5.760  11.406  0.00  0.00    +0.000 HD
BRANCH   8  17
ATOM     12  C   UNL     1      44.635   4.099  11.342  0.00  0.00    +0.000 A 
ATOM     13  C   UNL     1      44.323   2.868  10.741  0.00  0.00    +0.000 A 
ATOM     14  C   UNL     1      44.569   2.647   9.385  0.00  0.00    +0.000 A 
ATOM     15  C   UNL     1      45.107   3.662   8.604  0.00  0.00    +0.000 A 
ATOM     16  C   UNL     1      45.425   4.889   9.188  0.00  0.00    +0.000 A 
ATOM     17  C   UNL     1      45.209   5.123  10.561  0.00  0.00    +0.000 A 
BRANCH  12  19
ATOM     18  C   UNL     1      43.015   4.743  12.960  0.00  0.00    +0.000 C 
ATOM     19  O   UNL     1      44.355   4.362  12.661  0.00  0.00    +0.000 OA
ENDBRANCH  12  19
ENDBRANCH   8  17
ENDBRANCH   7  10
ENDBRANCH   1   7
BRANCH   4  20
ATOM     20  C   UNL     1      49.149   7.798  17.533  0.00  0.00    +0.000 C 
BRANCH  20  21
ATOM     21  N   UNL     1      50.167   6.809  17.795  0.00  0.00    +0.000 N 
ATOM     22  C   UNL     1      49.909   5.680  18.535  0.00  0.00    +0.000 C 
ATOM     23  O   UNL     1      48.795   5.429  18.982  0.00  0.00    +0.000 OA
ATOM     24  H   UNL     1      51.129   7.125  17.719  0.00  0.00    +0.000 HD
BRANCH  22  25
ATOM     25  C   UNL     1      51.035   4.750  18.710  0.00  0.00    +0.000 A 
ATOM     26  C   UNL     1      52.126   5.109  19.490  0.00  0.00    +0.000 A 
ATOM     27  S   UNL     1      53.311   3.885  19.610  0.00  0.00    +0.000 S 
ATOM     28  C   UNL     1      52.430   2.849  18.582  0.00  0.00    +0.000 A 
ATOM     29  N   UNL     1      52.908   1.627  18.242  0.00  0.00    +0.000 NA
ATOM     30  C   UNL     1      52.147   0.960  17.435  0.00  0.00    +0.000 A 
ATOM     31  N   UNL     1      50.947   1.409  16.949  0.00  0.00    +0.000 N 
ATOM     32  C   UNL     1      50.409   2.624  17.294  0.00  0.00    +0.000 A 
ATOM     33  O   UNL     1      49.309   2.974  16.883  0.00  0.00    +0.000 OA
ATOM     34  C   UNL     1      51.235   3.423  18.180  0.00  0.00    +0.000 A 
ATOM     35  H   UNL     1      50.389   0.834  16.335  0.00  0.00    +0.000 HD
ENDBRANCH  22  25
ENDBRANCH  20  21
ENDBRANCH   4  20
TORSDOF 7
ENDMDL
MODEL 3
REMARK VINA RESULT:    -6.667      1.634      2.646
REMARK INTER + INTRA:         -10.612
REMARK INTER:                  -9.337
REMARK INTRA:                  -1.275
REMARK UNBOUND:                -1.217
REMARK  Name = 
REMARK  8 active torsions:
REMARK  status: ('A' for Active; 'I' for Inactive)
REMARK    1  A    between atoms: C_1  and  O_2
REMARK    2  A    between atoms: O_2  and  C_3
REMARK    3  A    between atoms: C_8  and  C_9
REMARK    4  A    between atoms: N_11  and  C_12
REMARK    5  A    between atoms: C_12  and  C_13
REMARK    6  A    between atoms: C_16  and  C_17
REMARK    7  A    between atoms: C_17  and  N_18
REMARK    8  A    between atoms: C_19  and  C_21
REMARK                            x       y       z     vdW  Elec       q    Type
REMARK                         _______ _______ _______ _____ _____    ______ ____
ROOT
ATOM      1  C   UNL     1      49.302   7.687  16.167  0.00  0.00    +0.000 A 
ATOM      2  C   UNL     1      49.834   6.953  15.097  0.00  0.00    +0.000 A 
ATOM      3  C   UNL     1      49.390   7.175  13.783  0.00  0.00    +0.000 A 
ATOM      4  C   UNL     1      48.421   8.151  13.512  0.00  0.00    +0.000 A 
ATOM      5  C   UNL     1      47.899   8.888  14.584  0.00  0.00    +0.000 A 
ATOM      6  C   UNL     1      48.344   8.669  15.893  0.00  0.00    +0.000 A 
ENDROOT
BRANCH   1   7
ATOM      7  C   UNL     1      49.743   7.422  17.585  0.00  0.00    +0.000 C 
BRANCH   7  10
ATOM      8  C   UNL     1      49.973   5.003  17.964  0.00  0.00    +0.000 C 
ATOM      9  O   UNL     1      48.765   4.875  18.148  0.00  0.00    +0.000 OA
ATOM     10  N   UNL     1      50.541   6.227  17.700  0.00  0.00    +0.000 N 
ATOM     11  H   UNL     1      51.547   6.286  17.581  0.00  0.00    +0.000 HD
BRANCH   8  17
ATOM     12  C   UNL     1      52.181   3.779  18.505  0.00  0.00    +0.000 A 
ATOM     13  C   UNL     1      52.952   2.611  18.386  0.00  0.00    +0.000 A 
ATOM     14  C   UNL     1      52.439   1.470  17.767  0.00  0.00    +0.000 A 
ATOM     15  C   UNL     1      51.139   1.473  17.278  0.00  0.00    +0.000 A 
ATOM     16  C   UNL     1      50.362   2.627  17.387  0.00  0.00    +0.000 A 
ATOM     17  C   UNL     1      50.871   3.797  17.985  0.00  0.00    +0.000 A 
BRANCH  12  19
ATOM     18  C   UNL     1      54.016   5.220  18.967  0.00  0.00    +0.000 C 
ATOM     19  O   UNL     1      52.642   4.897  19.156  0.00  0.00    +0.000 OA
ENDBRANCH  12  19
ENDBRANCH   8  17
ENDBRANCH   7  10
ENDBRANCH   1   7
BRANCH   4  20
ATOM     20  C   UNL     1      47.917   8.403  12.110  0.00  0.00    +0.000 C 
BRANCH  20  21
ATOM     21  N   UNL     1      47.324   7.221  11.534  0.00  0.00    +0.000 N 
ATOM     22  C   UNL     1      45.962   7.072  11.423  0.00  0.00    +0.000 C 
ATOM     23  O   UNL     1      45.176   7.947  11.770  0.00  0.00    +0.000 OA
ATOM     24  H   UNL     1      47.901   6.385  11.532  0.00  0.00    +0.000 HD
BRANCH  22  25
ATOM     25  C   UNL     1      45.497   5.823  10.802  0.00  0.00    +0.000 A 
ATOM     26  C   UNL     1      45.761   5.565   9.464  0.00  0.00    +0.000 A 
ATOM     27  S   UNL     1      45.179   4.048   8.933  0.00  0.00    +0.000 S 
ATOM     28  C   UNL     1      44.510   3.704  10.463  0.00  0.00    +0.000 A 
ATOM     29  N   UNL     1      43.832   2.552  10.688  0.00  0.00    +0.000 NA
ATOM     30  C   UNL     1      43.357   2.435  11.886  0.00  0.00    +0.000 A 
ATOM     31  N   UNL     1      43.512   3.368  12.878  0.00  0.00    +0.000 N 
ATOM     32  C   UNL     1      44.221   4.531  12.705  0.00  0.00    +0.000 A 
ATOM     33  O   UNL     1      44.387   5.320  13.628  0.00  0.00    +0.000 OA
ATOM     34  C   UNL     1      44.755   4.722  11.370  0.00  0.00    +0.000 A 
ATOM     35  H   UNL     1      43.133   3.212  13.800  0.00  0.00    +0.000 HD
ENDBRANCH  22  25
ENDBRANCH  20  21
ENDBRANCH   4  20
TORSDOF 7
ENDMDL
MODEL 4
REMARK VINA RESULT:    -6.661      3.550      9.213
REMARK INTER + INTRA:         -10.604
REMARK INTER:                  -9.989
REMARK INTRA:                  -0.616
REMARK UNBOUND:                -1.217
REMARK  Name = 
REMARK  8 active torsions:
REMARK  status: ('A' for Active; 'I' for Inactive)
REMARK    1  A    between atoms: C_1  and  O_2
REMARK    2  A    between atoms: O_2  and  C_3
REMARK    3  A    between atoms: C_8  and  C_9
REMARK    4  A    between atoms: N_11  and  C_12
REMARK    5  A    between atoms: C_12  and  C_13
REMARK    6  A    between atoms: C_16  and  C_17
REMARK    7  A    between atoms: C_17  and  N_18
REMARK    8  A    between atoms: C_19  and  C_21
REMARK                            x       y       z     vdW  Elec       q    Type
REMARK                         _______ _______ _______ _____ _____    ______ ____
ROOT
ATOM      1  C   UNL     1      44.874   4.730  12.157  0.00  0.00    +0.000 A 
ATOM      2  C   UNL     1      46.003   4.862  12.978  0.00  0.00    +0.000 A 
ATOM      3  C   UNL     1      46.496   6.131  13.323  0.00  0.00    +0.000 A 
ATOM      4  C   UNL     1      45.855   7.293  12.872  0.00  0.00    +0.000 A 
ATOM      5  C   UNL     1      44.722   7.155  12.058  0.00  0.00    +0.000 A 
ATOM      6  C   UNL     1      44.229   5.891  11.717  0.00  0.00    +0.000 A 
ENDROOT
BRANCH   1   7
ATOM      7  C   UNL     1      44.368   3.370  11.747  0.00  0.00    +0.000 C 
BRANCH   7  10
ATOM      8  C   UNL     1      44.868   2.995   9.368  0.00  0.00    +0.000 C 
ATOM      9  O   UNL     1      43.902   3.669   9.017  0.00  0.00    +0.000 OA
ATOM     10  N   UNL     1      45.158   2.781  10.696  0.00  0.00    +0.000 N 
ATOM     11  H   UNL     1      45.951   2.195  10.935  0.00  0.00    +0.000 HD
BRANCH   8  17
ATOM     12  C   UNL     1      46.414   3.141   7.306  0.00  0.00    +0.000 A 
ATOM     13  C   UNL     1      47.189   2.462   6.352  0.00  0.00    +0.000 A 
ATOM     14  C   UNL     1      47.355   1.078   6.413  0.00  0.00    +0.000 A 
ATOM     15  C   UNL     1      46.769   0.355   7.444  0.00  0.00    +0.000 A 
ATOM     16  C   UNL     1      45.995   1.016   8.399  0.00  0.00    +0.000 A 
ATOM     17  C   UNL     1      45.793   2.409   8.339  0.00  0.00    +0.000 A 
BRANCH  12  19
ATOM     18  C   UNL     1      46.830   5.204   8.414  0.00  0.00    +0.000 C 
ATOM     19  O   UNL     1      46.278   4.508   7.301  0.00  0.00    +0.000 OA
ENDBRANCH  12  19
ENDBRANCH   8  17
ENDBRANCH   7  10
ENDBRANCH   1   7
BRANCH   4  20
ATOM     20  C   UNL     1      46.369   8.671  13.219  0.00  0.00    +0.000 C 
BRANCH  20  21
ATOM     21  N   UNL     1      47.019   8.690  14.507  0.00  0.00    +0.000 N 
ATOM     22  C   UNL     1      48.342   9.033  14.648  0.00  0.00    +0.000 C 
ATOM     23  O   UNL     1      49.035   9.379  13.698  0.00  0.00    +0.000 OA
ATOM     24  H   UNL     1      46.587   8.128  15.235  0.00  0.00    +0.000 HD
BRANCH  22  25
ATOM     25  C   UNL     1      48.869   9.025  16.021  0.00  0.00    +0.000 A 
ATOM     26  C   UNL     1      49.093  10.219  16.693  0.00  0.00    +0.000 A 
ATOM     27  S   UNL     1      49.666  10.008  18.288  0.00  0.00    +0.000 S 
ATOM     28  C   UNL     1      49.681   8.311  18.121  0.00  0.00    +0.000 A 
ATOM     29  N   UNL     1      50.103   7.511  19.131  0.00  0.00    +0.000 NA
ATOM     30  C   UNL     1      50.085   6.247  18.855  0.00  0.00    +0.000 A 
ATOM     31  N   UNL     1      49.674   5.717  17.660  0.00  0.00    +0.000 N 
ATOM     32  C   UNL     1      49.206   6.487  16.624  0.00  0.00    +0.000 A 
ATOM     33  O   UNL     1      48.795   5.979  15.587  0.00  0.00    +0.000 OA
ATOM     34  C   UNL     1      49.227   7.916  16.873  0.00  0.00    +0.000 A 
ATOM     35  H   UNL     1      49.666   4.719  17.511  0.00  0.00    +0.000 HD
ENDBRANCH  22  25
ENDBRANCH  20  21
ENDBRANCH   4  20
TORSDOF 7
ENDMDL
MODEL 5
REMARK VINA RESULT:    -6.567      3.499      9.269
REMARK INTER + INTRA:         -10.472
REMARK INTER:                  -9.791
REMARK INTRA:                  -0.680
REMARK UNBOUND:                -1.217
REMARK  Name = 
REMARK  8 active torsions:
REMARK  status: ('A' for Active; 'I' for Inactive)
REMARK    1  A    between atoms: C_1  and  O_2
REMARK    2  A    between atoms: O_2  and  C_3
REMARK    3  A    between atoms: C_8  and  C_9
REMARK    4  A    between atoms: N_11  and  C_12
REMARK    5  A    between atoms: C_12  and  C_13
REMARK    6  A    between atoms: C_16  and  C_17
REMARK    7  A    between atoms: C_17  and  N_18
REMARK    8  A    between atoms: C_19  and  C_21
REMARK                            x       y       z     vdW  Elec       q    Type
REMARK                         _______ _______ _______ _____ _____    ______ ____
ROOT
ATOM      1  C   UNL     1      45.172   5.907  11.387  0.00  0.00    +0.000 A 
ATOM      2  C   UNL     1      46.053   5.454  12.379  0.00  0.00    +0.000 A 
ATOM      3  C   UNL     1      46.794   6.363  13.152  0.00  0.00    +0.000 A 
ATOM      4  C   UNL     1      46.649   7.745  12.963  0.00  0.00    +0.000 A 
ATOM      5  C   UNL     1      45.760   8.192  11.975  0.00  0.00    +0.000 A 
ATOM      6  C   UNL     1      45.021   7.286  11.207  0.00  0.00    +0.000 A 
ENDROOT
BRANCH   1   7
ATOM      7  C   UNL     1      44.409   4.933  10.524  0.00  0.00    +0.000 C 
BRANCH   7  10
ATOM      8  C   UNL     1      45.473   3.234   9.101  0.00  0.00    +0.000 C 
ATOM      9  O   UNL     1      45.188   2.335   9.890  0.00  0.00    +0.000 OA
ATOM     10  N   UNL     1      45.144   4.546   9.347  0.00  0.00    +0.000 N 
ATOM     11  H   UNL     1      45.424   5.256   8.678  0.00  0.00    +0.000 HD
BRANCH   8  17
ATOM     12  C   UNL     1      46.625   1.628   7.440  0.00  0.00    +0.000 A 
ATOM     13  C   UNL     1      47.340   1.470   6.241  0.00  0.00    +0.000 A 
ATOM     14  C   UNL     1      47.600   2.561   5.411  0.00  0.00    +0.000 A 
ATOM     15  C   UNL     1      47.129   3.821   5.754  0.00  0.00    +0.000 A 
ATOM     16  C   UNL     1      46.419   3.994   6.943  0.00  0.00    +0.000 A 
ATOM     17  C   UNL     1      46.169   2.909   7.808  0.00  0.00    +0.000 A 
BRANCH  12  19
ATOM     18  C   UNL     1      46.528  -0.734   7.704  0.00  0.00    +0.000 C 
ATOM     19  O   UNL     1      46.309   0.564   8.249  0.00  0.00    +0.000 OA
ENDBRANCH  12  19
ENDBRANCH   8  17
ENDBRANCH   7  10
ENDBRANCH   1   7
BRANCH   4  20
ATOM     20  C   UNL     1      47.440   8.745  13.772  0.00  0.00    +0.000 C 
BRANCH  20  21
ATOM     21  N   UNL     1      47.610   8.313  15.139  0.00  0.00    +0.000 N 
ATOM     22  C   UNL     1      48.789   8.498  15.819  0.00  0.00    +0.000 C 
ATOM     23  O   UNL     1      49.750   9.074  15.320  0.00  0.00    +0.000 OA
ATOM     24  H   UNL     1      46.979   7.584  15.459  0.00  0.00    +0.000 HD
BRANCH  22  25
ATOM     25  C   UNL     1      48.816   8.022  17.209  0.00  0.00    +0.000 A 
ATOM     26  C   UNL     1      48.872   8.929  18.259  0.00  0.00    +0.000 A 
ATOM     27  S   UNL     1      48.852   8.191  19.800  0.00  0.00    +0.000 S 
ATOM     28  C   UNL     1      48.817   6.630  19.117  0.00  0.00    +0.000 A 
ATOM     29  N   UNL     1      48.818   5.522  19.899  0.00  0.00    +0.000 NA
ATOM     30  C   UNL     1      48.817   4.405  19.246  0.00  0.00    +0.000 A 
ATOM     31  N   UNL     1      48.805   4.304  17.879  0.00  0.00    +0.000 N 
ATOM     32  C   UNL     1      48.768   5.398  17.050  0.00  0.00    +0.000 A 
ATOM     33  O   UNL     1      48.704   5.272  15.833  0.00  0.00    +0.000 OA
ATOM     34  C   UNL     1      48.792   6.677  17.733  0.00  0.00    +0.000 A 
ATOM     35  H   UNL     1      48.786   3.402  17.427  0.00  0.00    +0.000 HD
ENDBRANCH  22  25
ENDBRANCH  20  21
ENDBRANCH   4  20
TORSDOF 7
ENDMDL
MODEL 6
REMARK VINA RESULT:    -6.559      2.081      2.479
REMARK INTER + INTRA:         -10.460
REMARK INTER:                  -9.109
REMARK INTRA:                  -1.351
REMARK UNBOUND:                -1.217
REMARK  Name = 
REMARK  8 active torsions:
REMARK  status: ('A' for Active; 'I' for Inactive)
REMARK    1  A    between atoms: C_1  and  O_2
REMARK    2  A    between atoms: O_2  and  C_3
REMARK    3  A    between atoms: C_8  and  C_9
REMARK    4  A    between atoms: N_11  and  C_12
REMARK    5  A    between atoms: C_12  and  C_13
REMARK    6  A    between atoms: C_16  and  C_17
REMARK    7  A    between atoms: C_17  and  N_18
REMARK    8  A    between atoms: C_19  and  C_21
REMARK                            x       y       z     vdW  Elec       q    Type
REMARK                         _______ _______ _______ _____ _____    ______ ____
ROOT
ATOM      1  C   UNL     1      49.401   7.053  17.521  0.00  0.00    +0.000 A 
ATOM      2  C   UNL     1      49.291   6.322  16.329  0.00  0.00    +0.000 A 
ATOM      3  C   UNL     1      48.716   6.895  15.184  0.00  0.00    +0.000 A 
ATOM      4  C   UNL     1      48.259   8.221  15.202  0.00  0.00    +0.000 A 
ATOM      5  C   UNL     1      48.379   8.951  16.393  0.00  0.00    +0.000 A 
ATOM      6  C   UNL     1      48.955   8.379  17.533  0.00  0.00    +0.000 A 
ENDROOT
BRANCH   1   7
ATOM      7  C   UNL     1      49.977   6.427  18.765  0.00  0.00    +0.000 C 
BRANCH   7  10
ATOM      8  C   UNL     1      51.775   4.834  18.233  0.00  0.00    +0.000 C 
ATOM      9  O   UNL     1      52.596   5.740  18.107  0.00  0.00    +0.000 OA
ATOM     10  N   UNL     1      50.457   5.087  18.537  0.00  0.00    +0.000 N 
ATOM     11  H   UNL     1      49.811   4.307  18.604  0.00  0.00    +0.000 HD
BRANCH   8  17
ATOM     12  C   UNL     1      51.486   2.410  17.394  0.00  0.00    +0.000 A 
ATOM     13  C   UNL     1      51.950   1.084  17.410  0.00  0.00    +0.000 A 
ATOM     14  C   UNL     1      53.112   0.736  18.100  0.00  0.00    +0.000 A 
ATOM     15  C   UNL     1      53.840   1.714  18.766  0.00  0.00    +0.000 A 
ATOM     16  C   UNL     1      53.390   3.035  18.762  0.00  0.00    +0.000 A 
ATOM     17  C   UNL     1      52.205   3.401  18.092  0.00  0.00    +0.000 A 
BRANCH  12  19
ATOM     18  C   UNL     1      49.151   2.148  17.023  0.00  0.00    +0.000 C 
ATOM     19  O   UNL     1      50.376   2.789  16.679  0.00  0.00    +0.000 OA
ENDBRANCH  12  19
ENDBRANCH   8  17
ENDBRANCH   7  10
ENDBRANCH   1   7
BRANCH   4  20
ATOM     20  C   UNL     1      47.626   8.861  13.988  0.00  0.00    +0.000 C 
BRANCH  20  21
ATOM     21  N   UNL     1      46.485   8.110  13.522  0.00  0.00    +0.000 N 
ATOM     22  C   UNL     1      46.562   7.270  12.437  0.00  0.00    +0.000 C 
ATOM     23  O   UNL     1      47.609   7.081  11.827  0.00  0.00    +0.000 OA
ATOM     24  H   UNL     1      45.573   8.468  13.790  0.00  0.00    +0.000 HD
BRANCH  22  25
ATOM     25  C   UNL     1      45.327   6.556  12.083  0.00  0.00    +0.000 A 
ATOM     26  C   UNL     1      44.256   7.242  11.524  0.00  0.00    +0.000 A 
ATOM     27  S   UNL     1      42.928   6.238  11.142  0.00  0.00    +0.000 S 
ATOM     28  C   UNL     1      43.719   4.857  11.756  0.00  0.00    +0.000 A 
ATOM     29  N   UNL     1      43.111   3.645  11.759  0.00  0.00    +0.000 NA
ATOM     30  C   UNL     1      43.818   2.694  12.278  0.00  0.00    +0.000 A 
ATOM     31  N   UNL     1      45.082   2.852  12.784  0.00  0.00    +0.000 N 
ATOM     32  C   UNL     1      45.748   4.052  12.769  0.00  0.00    +0.000 A 
ATOM     33  O   UNL     1      46.898   4.149  13.181  0.00  0.00    +0.000 OA
ATOM     34  C   UNL     1      44.989   5.159  12.218  0.00  0.00    +0.000 A 
ATOM     35  H   UNL     1      45.591   2.065  13.161  0.00  0.00    +0.000 HD
ENDBRANCH  22  25
ENDBRANCH  20  21
ENDBRANCH   4  20
TORSDOF 7
ENDMDL
MODEL 7
REMARK VINA RESULT:    -6.373      2.900      8.847
REMARK INTER + INTRA:         -10.199
REMARK INTER:                  -9.379
REMARK INTRA:                  -0.820
REMARK UNBOUND:                -1.217
REMARK  Name = 
REMARK  8 active torsions:
REMARK  status: ('A' for Active; 'I' for Inactive)
REMARK    1  A    between atoms: C_1  and  O_2
REMARK    2  A    between atoms: O_2  and  C_3
REMARK    3  A    between atoms: C_8  and  C_9
REMARK    4  A    between atoms: N_11  and  C_12
REMARK    5  A    between atoms: C_12  and  C_13
REMARK    6  A    between atoms: C_16  and  C_17
REMARK    7  A    between atoms: C_17  and  N_18
REMARK    8  A    between atoms: C_19  and  C_21
REMARK                            x       y       z     vdW  Elec       q    Type
REMARK                         _______ _______ _______ _____ _____    ______ ____
ROOT
ATOM      1  C   UNL     1      46.240   8.029  12.264  0.00  0.00    +0.000 A 
ATOM      2  C   UNL     1      47.063   7.088  12.900  0.00  0.00    +0.000 A 
ATOM      3  C   UNL     1      48.157   7.499  13.678  0.00  0.00    +0.000 A 
ATOM      4  C   UNL     1      48.437   8.862  13.854  0.00  0.00    +0.000 A 
ATOM      5  C   UNL     1      47.607   9.799  13.223  0.00  0.00    +0.000 A 
ATOM      6  C   UNL     1      46.514   9.389  12.451  0.00  0.00    +0.000 A 
ENDROOT
BRANCH   1   7
ATOM      7  C   UNL     1      45.091   7.592  11.392  0.00  0.00    +0.000 C 
BRANCH   7  10
ATOM      8  C   UNL     1      44.312   5.486  10.389  0.00  0.00    +0.000 C 
ATOM      9  O   UNL     1      43.139   5.754  10.636  0.00  0.00    +0.000 OA
ATOM     10  N   UNL     1      45.340   6.328  10.745  0.00  0.00    +0.000 N 
ATOM     11  H   UNL     1      46.294   6.050  10.542  0.00  0.00    +0.000 HD
BRANCH   8  17
ATOM     12  C   UNL     1      44.192   2.939   9.984  0.00  0.00    +0.000 A 
ATOM     13  C   UNL     1      44.657   1.827   9.262  0.00  0.00    +0.000 A 
ATOM     14  C   UNL     1      45.567   1.979   8.214  0.00  0.00    +0.000 A 
ATOM     15  C   UNL     1      46.007   3.247   7.858  0.00  0.00    +0.000 A 
ATOM     16  C   UNL     1      45.556   4.361   8.567  0.00  0.00    +0.000 A 
ATOM     17  C   UNL     1      44.657   4.226   9.645  0.00  0.00    +0.000 A 
BRANCH  12  19
ATOM     18  C   UNL     1      43.759   2.658  12.305  0.00  0.00    +0.000 C 
ATOM     19  O   UNL     1      43.257   2.824  10.982  0.00  0.00    +0.000 OA
ENDBRANCH  12  19
ENDBRANCH   8  17
ENDBRANCH   7  10
ENDBRANCH   1   7
BRANCH   4  20
ATOM     20  C   UNL     1      49.614   9.332  14.677  0.00  0.00    +0.000 C 
BRANCH  20  21
ATOM     21  N   UNL     1      50.376   8.224  15.202  0.00  0.00    +0.000 N 
ATOM     22  C   UNL     1      50.302   7.853  16.522  0.00  0.00    +0.000 C 
ATOM     23  O   UNL     1      49.560   8.414  17.321  0.00  0.00    +0.000 OA
ATOM     24  H   UNL     1      51.199   7.956  14.671  0.00  0.00    +0.000 HD
BRANCH  22  25
ATOM     25  C   UNL     1      51.121   6.697  16.916  0.00  0.00    +0.000 A 
ATOM     26  C   UNL     1      52.489   6.839  17.106  0.00  0.00    +0.000 A 
ATOM     27  S   UNL     1      53.262   5.398  17.601  0.00  0.00    +0.000 S 
ATOM     28  C   UNL     1      51.801   4.521  17.531  0.00  0.00    +0.000 A 
ATOM     29  N   UNL     1      51.766   3.195  17.814  0.00  0.00    +0.000 NA
ATOM     30  C   UNL     1      50.597   2.654  17.695  0.00  0.00    +0.000 A 
ATOM     31  N   UNL     1      49.461   3.328  17.328  0.00  0.00    +0.000 N 
ATOM     32  C   UNL     1      49.445   4.676  17.067  0.00  0.00    +0.000 A 
ATOM     33  O   UNL     1      48.403   5.259  16.793  0.00  0.00    +0.000 OA
ATOM     34  C   UNL     1      50.737   5.327  17.163  0.00  0.00    +0.000 A 
ATOM     35  H   UNL     1      48.573   2.852  17.270  0.00  0.00    +0.000 HD
ENDBRANCH  22  25
ENDBRANCH  20  21
ENDBRANCH   4  20
TORSDOF 7
ENDMDL
MODEL 8
REMARK VINA RESULT:    -5.954      1.406      2.232
REMARK INTER + INTRA:          -9.608
REMARK INTER:                  -8.704
REMARK INTRA:                  -0.904
REMARK UNBOUND:                -1.217
REMARK  Name = 
REMARK  8 active torsions:
REMARK  status: ('A' for Active; 'I' for Inactive)
REMARK    1  A    between atoms: C_1  and  O_2
REMARK    2  A    between atoms: O_2  and  C_3
REMARK    3  A    between atoms: C_8  and  C_9
REMARK    4  A    between atoms: N_11  and  C_12
REMARK    5  A    between atoms: C_12  and  C_13
REMARK    6  A    between atoms: C_16  and  C_17
REMARK    7  A    between atoms: C_17  and  N_18
REMARK    8  A    between atoms: C_19  and  C_21
REMARK                            x       y       z     vdW  Elec       q    Type
REMARK                         _______ _______ _______ _____ _____    ______ ____
ROOT
ATOM      1  C   UNL     1      49.459   7.941  15.756  0.00  0.00    +0.000 A 
ATOM      2  C   UNL     1      49.010   6.739  15.191  0.00  0.00    +0.000 A 
ATOM      3  C   UNL     1      48.190   6.742  14.051  0.00  0.00    +0.000 A 
ATOM      4  C   UNL     1      47.821   7.950  13.440  0.00  0.00    +0.000 A 
ATOM      5  C   UNL     1      48.280   9.148  14.004  0.00  0.00    +0.000 A 
ATOM      6  C   UNL     1      49.100   9.144  15.138  0.00  0.00    +0.000 A 
ENDROOT
BRANCH   1   7
ATOM      7  C   UNL     1      50.303   7.943  17.005  0.00  0.00    +0.000 C 
BRANCH   7  10
ATOM      8  C   UNL     1      51.904   6.077  16.953  0.00  0.00    +0.000 C 
ATOM      9  O   UNL     1      52.646   6.681  16.182  0.00  0.00    +0.000 OA
ATOM     10  N   UNL     1      50.719   6.619  17.393  0.00  0.00    +0.000 N 
ATOM     11  H   UNL     1      50.127   6.069  18.008  0.00  0.00    +0.000 HD
BRANCH   8  17
ATOM     12  C   UNL     1      53.561   4.403  18.010  0.00  0.00    +0.000 A 
ATOM     13  C   UNL     1      53.836   3.077  18.381  0.00  0.00    +0.000 A 
ATOM     14  C   UNL     1      52.878   2.074  18.229  0.00  0.00    +0.000 A 
ATOM     15  C   UNL     1      51.622   2.387  17.725  0.00  0.00    +0.000 A 
ATOM     16  C   UNL     1      51.335   3.701  17.350  0.00  0.00    +0.000 A 
ATOM     17  C   UNL     1      52.298   4.722  17.472  0.00  0.00    +0.000 A 
BRANCH  12  19
ATOM     18  C   UNL     1      55.649   5.370  17.407  0.00  0.00    +0.000 C 
ATOM     19  O   UNL     1      54.466   5.419  18.200  0.00  0.00    +0.000 OA
ENDBRANCH  12  19
ENDBRANCH   8  17
ENDBRANCH   7  10
ENDBRANCH   1   7
BRANCH   4  20
ATOM     20  C   UNL     1      46.931   7.984  12.220  0.00  0.00    +0.000 C 
BRANCH  20  21
ATOM     21  N   UNL     1      46.368   6.687  11.932  0.00  0.00    +0.000 N 
ATOM     22  C   UNL     1      45.048   6.528  11.588  0.00  0.00    +0.000 C 
ATOM     23  O   UNL     1      44.282   7.479  11.468  0.00  0.00    +0.000 OA
ATOM     24  H   UNL     1      46.865   5.889  12.315  0.00  0.00    +0.000 HD
BRANCH  22  25
ATOM     25  C   UNL     1      44.613   5.153  11.307  0.00  0.00    +0.000 A 
ATOM     26  C   UNL     1      43.827   4.465  12.221  0.00  0.00    +0.000 A 
ATOM     27  S   UNL     1      43.388   2.898  11.701  0.00  0.00    +0.000 S 
ATOM     28  C   UNL     1      44.274   3.065  10.255  0.00  0.00    +0.000 A 
ATOM     29  N   UNL     1      44.342   2.054   9.353  0.00  0.00    +0.000 NA
ATOM     30  C   UNL     1      45.071   2.311   8.315  0.00  0.00    +0.000 A 
ATOM     31  N   UNL     1      45.728   3.495   8.100  0.00  0.00    +0.000 N 
ATOM     32  C   UNL     1      45.658   4.556   8.968  0.00  0.00    +0.000 A 
ATOM     33  O   UNL     1      46.214   5.620   8.720  0.00  0.00    +0.000 OA
ATOM     34  C   UNL     1      44.871   4.311  10.162  0.00  0.00    +0.000 A 
ATOM     35  H   UNL     1      46.268   3.641   7.260  0.00  0.00    +0.000 HD
ENDBRANCH  22  25
ENDBRANCH  20  21
ENDBRANCH   4  20
TORSDOF 7
ENDMDL
MODEL 9
REMARK VINA RESULT:    -5.737      3.043      9.293
REMARK INTER + INTRA:          -9.302
REMARK INTER:                  -8.407
REMARK INTRA:                  -0.895
REMARK UNBOUND:                -1.217
REMARK  Name = 
REMARK  8 active torsions:
REMARK  status: ('A' for Active; 'I' for Inactive)
REMARK    1  A    between atoms: C_1  and  O_2
REMARK    2  A    between atoms: O_2  and  C_3
REMARK    3  A    between atoms: C_8  and  C_9
REMARK    4  A    between atoms: N_11  and  C_12
REMARK    5  A    between atoms: C_12  and  C_13
REMARK    6  A    between atoms: C_16  and  C_17
REMARK    7  A    between atoms: C_17  and  N_18
REMARK    8  A    between atoms: C_19  and  C_21
REMARK                            x       y       z     vdW  Elec       q    Type
REMARK                         _______ _______ _______ _____ _____    ______ ____
ROOT
ATOM      1  C   UNL     1      45.723   6.685  11.935  0.00  0.00    +0.000 A 
ATOM      2  C   UNL     1      46.408   5.714  12.679  0.00  0.00    +0.000 A 
ATOM      3  C   UNL     1      47.556   6.049  13.414  0.00  0.00    +0.000 A 
ATOM      4  C   UNL     1      48.031   7.369  13.436  0.00  0.00    +0.000 A 
ATOM      5  C   UNL     1      47.338   8.337  12.697  0.00  0.00    +0.000 A 
ATOM      6  C   UNL     1      46.191   8.004  11.967  0.00  0.00    +0.000 A 
ENDROOT
BRANCH   1   7
ATOM      7  C   UNL     1      44.515   6.321  11.109  0.00  0.00    +0.000 C 
BRANCH   7  10
ATOM      8  C   UNL     1      45.663   5.132   9.287  0.00  0.00    +0.000 C 
ATOM      9  O   UNL     1      46.326   6.126   9.001  0.00  0.00    +0.000 OA
ATOM     10  N   UNL     1      44.733   5.148  10.301  0.00  0.00    +0.000 N 
ATOM     11  H   UNL     1      44.191   4.309  10.482  0.00  0.00    +0.000 HD
BRANCH   8  17
ATOM     12  C   UNL     1      45.669   2.558   9.092  0.00  0.00    +0.000 A 
ATOM     13  C   UNL     1      45.995   1.425   8.328  0.00  0.00    +0.000 A 
ATOM     14  C   UNL     1      46.521   1.552   7.042  0.00  0.00    +0.000 A 
ATOM     15  C   UNL     1      46.707   2.813   6.491  0.00  0.00    +0.000 A 
ATOM     16  C   UNL     1      46.390   3.948   7.239  0.00  0.00    +0.000 A 
ATOM     17  C   UNL     1      45.882   3.841   8.549  0.00  0.00    +0.000 A 
BRANCH  12  19
ATOM     18  C   UNL     1      43.785   1.915  10.394  0.00  0.00    +0.000 C 
ATOM     19  O   UNL     1      45.100   2.461  10.338  0.00  0.00    +0.000 OA
ENDBRANCH  12  19
ENDBRANCH   8  17
ENDBRANCH   7  10
ENDBRANCH   1   7
BRANCH   4  20
ATOM     20  C   UNL     1      49.270   7.755  14.209  0.00  0.00    +0.000 C 
BRANCH  20  21
ATOM     21  N   UNL     1      49.472   6.903  15.355  0.00  0.00    +0.000 N 
ATOM     22  C   UNL     1      50.569   7.032  16.173  0.00  0.00    +0.000 C 
ATOM     23  O   UNL     1      51.417   7.901  15.999  0.00  0.00    +0.000 OA
ATOM     24  H   UNL     1      48.984   6.012  15.343  0.00  0.00    +0.000 HD
BRANCH  22  25
ATOM     25  C   UNL     1      50.639   6.107  17.313  0.00  0.00    +0.000 A 
ATOM     26  C   UNL     1      51.651   5.159  17.386  0.00  0.00    +0.000 A 
ATOM     27  S   UNL     1      51.592   4.205  18.802  0.00  0.00    +0.000 S 
ATOM     28  C   UNL     1      50.181   4.994  19.345  0.00  0.00    +0.000 A 
ATOM     29  N   UNL     1      49.579   4.632  20.505  0.00  0.00    +0.000 NA
ATOM     30  C   UNL     1      48.504   5.297  20.779  0.00  0.00    +0.000 A 
ATOM     31  N   UNL     1      47.988   6.298  19.998  0.00  0.00    +0.000 N 
ATOM     32  C   UNL     1      48.584   6.720  18.836  0.00  0.00    +0.000 A 
ATOM     33  O   UNL     1      48.126   7.654  18.187  0.00  0.00    +0.000 OA
ATOM     34  C   UNL     1      49.782   5.989  18.469  0.00  0.00    +0.000 A 
ATOM     35  H   UNL     1      47.153   6.793  20.276  0.00  0.00    +0.000 HD
ENDBRANCH  22  25
ENDBRANCH  20  21
ENDBRANCH   4  20
TORSDOF 7
ENDMDL
