MODEL 1
REMARK VINA RESULT:    -8.642      0.000      0.000
REMARK INTER + INTRA:         -12.391
REMARK INTER:                 -11.673
REMARK INTRA:                  -0.718
REMARK UNBOUND:                -0.718
REMARK  Name = 
REMARK  7 active torsions:
REMARK  status: ('A' for Active; 'I' for Inactive)
REMARK    1  A    between atoms: C_1  and  C_2
REMARK    2  A    between atoms: C_7  and  C_8
REMARK    3  A    between atoms: N_10  and  C_11
REMARK    4  A    between atoms: C_11  and  C_12
REMARK    5  A    between atoms: C_15  and  O_16
REMARK    6  A    between atoms: O_16  and  C_17
REMARK    7  A    between atoms: C_17  and  C_18
REMARK                            x       y       z     vdW  Elec       q    Type
REMARK                         _______ _______ _______ _____ _____    ______ ____
ROOT
ATOM      1  C   UNL     1      47.266   4.310  16.229  0.00  0.00    +0.000 C 
ATOM      2  O   UNL     1      46.454   3.673  16.899  0.00  0.00    +0.000 OA
ATOM      3  N   UNL     1      46.921   4.836  15.014  0.00  0.00    +0.000 N 
ATOM      4  H   UNL     1      47.588   5.373  14.466  0.00  0.00    +0.000 HD
ENDROOT
BRANCH   1  11
ATOM      5  C   UNL     1      53.318   1.581  17.942  0.00  0.00    +0.000 C 
ATOM      6  C   UNL     1      52.087   2.374  17.615  0.00  0.00    +0.000 A 
ATOM      7  N   UNL     1      52.060   3.662  17.749  0.00  0.00    +0.000 NA
ATOM      8  C   UNL     1      50.875   4.242  17.417  0.00  0.00    +0.000 A 
ATOM      9  S   UNL     1      50.668   5.926  17.541  0.00  0.00    +0.000 S 
ATOM     10  C   UNL     1      49.059   5.825  16.993  0.00  0.00    +0.000 A 
ATOM     11  C   UNL     1      48.641   4.530  16.706  0.00  0.00    +0.000 A 
ATOM     12  C   UNL     1      49.729   3.611  16.961  0.00  0.00    +0.000 A 
ATOM     13  C   UNL     1      49.816   2.171  16.820  0.00  0.00    +0.000 A 
ATOM     14  O   UNL     1      48.902   1.458  16.416  0.00  0.00    +0.000 OA
ATOM     15  N   UNL     1      51.025   1.627  17.172  0.00  0.00    +0.000 N 
ATOM     16  H   UNL     1      51.095   0.625  17.080  0.00  0.00    +0.000 HD
ENDBRANCH   1  11
BRANCH   3  17
ATOM     17  C   UNL     1      45.599   4.665  14.469  0.00  0.00    +0.000 C 
BRANCH  17  18
ATOM     18  C   UNL     1      45.607   4.743  12.966  0.00  0.00    +0.000 A 
ATOM     19  C   UNL     1      45.133   3.685  12.178  0.00  0.00    +0.000 A 
ATOM     20  C   UNL     1      45.125   3.788  10.783  0.00  0.00    +0.000 A 
ATOM     21  C   UNL     1      45.590   4.949  10.162  0.00  0.00    +0.000 A 
ATOM     22  C   UNL     1      46.128   5.973  10.940  0.00  0.00    +0.000 A 
ATOM     23  C   UNL     1      46.128   5.875  12.330  0.00  0.00    +0.000 A 
BRANCH  21  24
ATOM     24  O   UNL     1      45.475   4.990   8.798  0.00  0.00    +0.000 OA
BRANCH  24  25
ATOM     25  C   UNL     1      44.878   3.827   8.217  0.00  0.00    +0.000 C 
BRANCH  25  26
ATOM     26  C   UNL     1      45.945   2.956   7.612  0.00  0.00    +0.000 A 
ATOM     27  C   UNL     1      46.173   1.673   8.117  0.00  0.00    +0.000 A 
ATOM     28  C   UNL     1      47.129   0.879   7.505  0.00  0.00    +0.000 A 
ATOM     29  N   UNL     1      47.855   1.269   6.435  0.00  0.00    +0.000 NA
ATOM     30  C   UNL     1      47.614   2.510   5.959  0.00  0.00    +0.000 A 
ATOM     31  C   UNL     1      46.680   3.378   6.502  0.00  0.00    +0.000 A 
ENDBRANCH  25  26
ENDBRANCH  24  25
ENDBRANCH  21  24
ENDBRANCH  17  18
ENDBRANCH   3  17
TORSDOF 6
ENDMDL
MODEL 2
REMARK VINA RESULT:    -8.222      2.058      2.771
REMARK INTER + INTRA:         -11.825
REMARK INTER:                 -10.762
REMARK INTRA:                  -1.063
REMARK UNBOUND:                -0.718
REMARK  Name = 
REMARK  7 active torsions:
REMARK  status: ('A' for Active; 'I' for Inactive)
REMARK    1  A    between atoms: C_1  and  C_2
REMARK    2  A    between atoms: C_7  and  C_8
REMARK    3  A    between atoms: N_10  and  C_11
REMARK    4  A    between atoms: C_11  and  C_12
REMARK    5  A    between atoms: C_15  and  O_16
REMARK    6  A    between atoms: O_16  and  C_17
REMARK    7  A    between atoms: C_17  and  C_18
REMARK                            x       y       z     vdW  Elec       q    Type
REMARK                         _______ _______ _______ _____ _____    ______ ____
ROOT
ATOM      1  C   UNL     1      48.090   7.055  13.801  0.00  0.00    +0.000 C 
ATOM      2  O   UNL     1      48.710   7.084  12.739  0.00  0.00    +0.000 OA
ATOM      3  N   UNL     1      46.768   7.406  13.857  0.00  0.00    +0.000 N 
ATOM      4  H   UNL     1      46.252   7.369  14.732  0.00  0.00    +0.000 HD
ENDROOT
BRANCH   1  11
ATOM      5  C   UNL     1      48.275   2.689  19.085  0.00  0.00    +0.000 C 
ATOM      6  C   UNL     1      48.412   3.740  18.023  0.00  0.00    +0.000 A 
ATOM      7  N   UNL     1      49.336   4.646  18.085  0.00  0.00    +0.000 NA
ATOM      8  C   UNL     1      49.334   5.531  17.053  0.00  0.00    +0.000 A 
ATOM      9  S   UNL     1      50.479   6.787  16.984  0.00  0.00    +0.000 S 
ATOM     10  C   UNL     1      49.831   7.373  15.522  0.00  0.00    +0.000 A 
ATOM     11  C   UNL     1      48.743   6.643  15.055  0.00  0.00    +0.000 A 
ATOM     12  C   UNL     1      48.468   5.559  15.972  0.00  0.00    +0.000 A 
ATOM     13  C   UNL     1      47.459   4.519  15.945  0.00  0.00    +0.000 A 
ATOM     14  O   UNL     1      46.623   4.387  15.056  0.00  0.00    +0.000 OA
ATOM     15  N   UNL     1      47.493   3.652  17.008  0.00  0.00    +0.000 N 
ATOM     16  H   UNL     1      46.792   2.926  17.001  0.00  0.00    +0.000 HD
ENDBRANCH   1  11
BRANCH   3  17
ATOM     17  C   UNL     1      46.052   7.825  12.681  0.00  0.00    +0.000 C 
BRANCH  17  18
ATOM     18  C   UNL     1      45.610   6.647  11.854  0.00  0.00    +0.000 A 
ATOM     19  C   UNL     1      46.080   6.456  10.547  0.00  0.00    +0.000 A 
ATOM     20  C   UNL     1      45.678   5.339   9.806  0.00  0.00    +0.000 A 
ATOM     21  C   UNL     1      44.802   4.405  10.362  0.00  0.00    +0.000 A 
ATOM     22  C   UNL     1      44.276   4.631  11.634  0.00  0.00    +0.000 A 
ATOM     23  C   UNL     1      44.684   5.738  12.377  0.00  0.00    +0.000 A 
BRANCH  21  24
ATOM     24  O   UNL     1      44.522   3.308   9.591  0.00  0.00    +0.000 OA
BRANCH  24  25
ATOM     25  C   UNL     1      44.611   3.535   8.181  0.00  0.00    +0.000 C 
BRANCH  25  26
ATOM     26  C   UNL     1      45.793   2.792   7.620  0.00  0.00    +0.000 A 
ATOM     27  C   UNL     1      46.135   1.535   8.125  0.00  0.00    +0.000 A 
ATOM     28  C   UNL     1      47.197   0.856   7.552  0.00  0.00    +0.000 A 
ATOM     29  N   UNL     1      47.925   1.335   6.521  0.00  0.00    +0.000 NA
ATOM     30  C   UNL     1      47.575   2.550   6.044  0.00  0.00    +0.000 A 
ATOM     31  C   UNL     1      46.528   3.305   6.550  0.00  0.00    +0.000 A 
ENDBRANCH  25  26
ENDBRANCH  24  25
ENDBRANCH  21  24
ENDBRANCH  17  18
ENDBRANCH   3  17
TORSDOF 6
ENDMDL
MODEL 3
REMARK VINA RESULT:    -8.175      2.810      3.895
REMARK INTER + INTRA:         -11.761
REMARK INTER:                 -10.576
REMARK INTRA:                  -1.185
REMARK UNBOUND:                -0.718
REMARK  Name = 
REMARK  7 active torsions:
REMARK  status: ('A' for Active; 'I' for Inactive)
REMARK    1  A    between atoms: C_1  and  C_2
REMARK    2  A    between atoms: C_7  and  C_8
REMARK    3  A    between atoms: N_10  and  C_11
REMARK    4  A    between atoms: C_11  and  C_12
REMARK    5  A    between atoms: C_15  and  O_16
REMARK    6  A    between atoms: O_16  and  C_17
REMARK    7  A    between atoms: C_17  and  C_18
REMARK                            x       y       z     vdW  Elec       q    Type
REMARK                         _______ _______ _______ _____ _____    ______ ____
ROOT
ATOM      1  C   UNL     1      48.224   5.447  15.719  0.00  0.00    +0.000 C 
ATOM      2  O   UNL     1      48.461   4.354  16.234  0.00  0.00    +0.000 OA
ATOM      3  N   UNL     1      47.223   5.591  14.797  0.00  0.00    +0.000 N 
ATOM      4  H   UNL     1      47.020   6.496  14.382  0.00  0.00    +0.000 HD
ENDROOT
BRANCH   1  11
ATOM      5  C   UNL     1      52.097  10.683  13.576  0.00  0.00    +0.000 C 
ATOM      6  C   UNL     1      51.280   9.620  14.249  0.00  0.00    +0.000 A 
ATOM      7  N   UNL     1      51.127   9.601  15.535  0.00  0.00    +0.000 NA
ATOM      8  C   UNL     1      50.362   8.576  16.000  0.00  0.00    +0.000 A 
ATOM      9  S   UNL     1      50.066   8.401  17.666  0.00  0.00    +0.000 S 
ATOM     10  C   UNL     1      49.123   7.006  17.408  0.00  0.00    +0.000 A 
ATOM     11  C   UNL     1      49.010   6.641  16.071  0.00  0.00    +0.000 A 
ATOM     12  C   UNL     1      49.747   7.582  15.257  0.00  0.00    +0.000 A 
ATOM     13  C   UNL     1      49.942   7.656  13.822  0.00  0.00    +0.000 A 
ATOM     14  O   UNL     1      49.458   6.867  13.016  0.00  0.00    +0.000 OA
ATOM     15  N   UNL     1      50.725   8.699  13.397  0.00  0.00    +0.000 N 
ATOM     16  H   UNL     1      50.869   8.757  12.400  0.00  0.00    +0.000 HD
ENDBRANCH   1  11
BRANCH   3  17
ATOM     17  C   UNL     1      46.409   4.475  14.392  0.00  0.00    +0.000 C 
BRANCH  17  18
ATOM     18  C   UNL     1      46.006   4.583  12.945  0.00  0.00    +0.000 A 
ATOM     19  C   UNL     1      46.333   5.710  12.179  0.00  0.00    +0.000 A 
ATOM     20  C   UNL     1      45.972   5.778  10.829  0.00  0.00    +0.000 A 
ATOM     21  C   UNL     1      45.280   4.722  10.233  0.00  0.00    +0.000 A 
ATOM     22  C   UNL     1      44.890   3.632  11.011  0.00  0.00    +0.000 A 
ATOM     23  C   UNL     1      45.258   3.559  12.353  0.00  0.00    +0.000 A 
BRANCH  21  24
ATOM     24  O   UNL     1      45.034   4.844   8.891  0.00  0.00    +0.000 OA
BRANCH  24  25
ATOM     25  C   UNL     1      44.621   3.633   8.250  0.00  0.00    +0.000 C 
BRANCH  25  26
ATOM     26  C   UNL     1      45.827   2.879   7.761  0.00  0.00    +0.000 A 
ATOM     27  C   UNL     1      46.021   1.547   8.135  0.00  0.00    +0.000 A 
ATOM     28  C   UNL     1      47.115   0.868   7.627  0.00  0.00    +0.000 A 
ATOM     29  N   UNL     1      48.011   1.416   6.778  0.00  0.00    +0.000 NA
ATOM     30  C   UNL     1      47.803   2.703   6.425  0.00  0.00    +0.000 A 
ATOM     31  C   UNL     1      46.738   3.466   6.880  0.00  0.00    +0.000 A 
ENDBRANCH  25  26
ENDBRANCH  24  25
ENDBRANCH  21  24
ENDBRANCH  17  18
ENDBRANCH   3  17
TORSDOF 6
ENDMDL
MODEL 4
REMARK VINA RESULT:    -8.039      2.126      2.730
REMARK INTER + INTRA:         -11.577
REMARK INTER:                 -10.446
REMARK INTRA:                  -1.131
REMARK UNBOUND:                -0.718
REMARK  Name = 
REMARK  7 active torsions:
REMARK  status: ('A' for Active; 'I' for Inactive)
REMARK    1  A    between atoms: C_1  and  C_2
REMARK    2  A    between atoms: C_7  and  C_8
REMARK    3  A    between atoms: N_10  and  C_11
REMARK    4  A    between atoms: C_11  and  C_12
REMARK    5  A    between atoms: C_15  and  O_16
REMARK    6  A    between atoms: O_16  and  C_17
REMARK    7  A    between atoms: C_17  and  C_18
REMARK                            x       y       z     vdW  Elec       q    Type
REMARK                         _______ _______ _______ _____ _____    ______ ____
ROOT
ATOM      1  C   UNL     1      48.194   7.989  14.465  0.00  0.00    +0.000 C 
ATOM      2  O   UNL     1      47.743   9.132  14.541  0.00  0.00    +0.000 OA
ATOM      3  N   UNL     1      47.490   6.991  13.848  0.00  0.00    +0.000 N 
ATOM      4  H   UNL     1      47.869   6.051  13.773  0.00  0.00    +0.000 HD
ENDROOT
BRANCH   1  11
ATOM      5  C   UNL     1      51.866   3.849  18.512  0.00  0.00    +0.000 C 
ATOM      6  C   UNL     1      51.255   4.860  17.588  0.00  0.00    +0.000 A 
ATOM      7  N   UNL     1      51.968   5.796  17.046  0.00  0.00    +0.000 NA
ATOM      8  C   UNL     1      51.275   6.638  16.234  0.00  0.00    +0.000 A 
ATOM      9  S   UNL     1      52.060   7.927  15.447  0.00  0.00    +0.000 S 
ATOM     10  C   UNL     1      50.611   8.433  14.709  0.00  0.00    +0.000 A 
ATOM     11  C   UNL     1      49.509   7.650  15.035  0.00  0.00    +0.000 A 
ATOM     12  C   UNL     1      49.923   6.595  15.934  0.00  0.00    +0.000 A 
ATOM     13  C   UNL     1      49.174   5.523  16.558  0.00  0.00    +0.000 A 
ATOM     14  O   UNL     1      47.973   5.328  16.391  0.00  0.00    +0.000 OA
ATOM     15  N   UNL     1      49.909   4.701  17.375  0.00  0.00    +0.000 N 
ATOM     16  H   UNL     1      49.396   3.954  17.816  0.00  0.00    +0.000 HD
ENDBRANCH   1  11
BRANCH   3  17
ATOM     17  C   UNL     1      46.195   7.234  13.267  0.00  0.00    +0.000 C 
BRANCH  17  18
ATOM     18  C   UNL     1      45.721   6.054  12.462  0.00  0.00    +0.000 A 
ATOM     19  C   UNL     1      45.118   6.221  11.208  0.00  0.00    +0.000 A 
ATOM     20  C   UNL     1      44.709   5.109  10.464  0.00  0.00    +0.000 A 
ATOM     21  C   UNL     1      44.896   3.820  10.967  0.00  0.00    +0.000 A 
ATOM     22  C   UNL     1      45.428   3.654  12.246  0.00  0.00    +0.000 A 
ATOM     23  C   UNL     1      45.846   4.761  12.983  0.00  0.00    +0.000 A 
BRANCH  21  24
ATOM     24  O   UNL     1      44.532   2.791  10.140  0.00  0.00    +0.000 OA
BRANCH  24  25
ATOM     25  C   UNL     1      44.530   3.122   8.748  0.00  0.00    +0.000 C 
BRANCH  25  26
ATOM     26  C   UNL     1      45.759   2.556   8.089  0.00  0.00    +0.000 A 
ATOM     27  C   UNL     1      46.042   1.191   8.189  0.00  0.00    +0.000 A 
ATOM     28  C   UNL     1      47.154   0.694   7.529  0.00  0.00    +0.000 A 
ATOM     29  N   UNL     1      47.984   1.453   6.781  0.00  0.00    +0.000 NA
ATOM     30  C   UNL     1      47.689   2.768   6.693  0.00  0.00    +0.000 A 
ATOM     31  C   UNL     1      46.601   3.359   7.316  0.00  0.00    +0.000 A 
ENDBRANCH  25  26
ENDBRANCH  24  25
ENDBRANCH  21  24
ENDBRANCH  17  18
ENDBRANCH   3  17
TORSDOF 6
ENDMDL
MODEL 5
REMARK VINA RESULT:    -7.860      3.504      5.233
REMARK INTER + INTRA:         -11.335
REMARK INTER:                 -10.224
REMARK INTRA:                  -1.112
REMARK UNBOUND:                -0.718
REMARK  Name = 
REMARK  7 active torsions:
REMARK  status: ('A' for Active; 'I' for Inactive)
REMARK    1  A    between atoms: C_1  and  C_2
REMARK    2  A    between atoms: C_7  and  C_8
REMARK    3  A    between atoms: N_10  and  C_11
REMARK    4  A    between atoms: C_11  and  C_12
REMARK    5  A    between atoms: C_15  and  O_16
REMARK    6  A    between atoms: O_16  and  C_17
REMARK    7  A    between atoms: C_17  and  C_18
REMARK                            x       y       z     vdW  Elec       q    Type
REMARK                         _______ _______ _______ _____ _____    ______ ____
ROOT
ATOM      1  C   UNL     1      48.179   6.620  14.634  0.00  0.00    +0.000 C 
ATOM      2  O   UNL     1      48.763   5.752  15.282  0.00  0.00    +0.000 OA
ATOM      3  N   UNL     1      46.979   6.363  14.030  0.00  0.00    +0.000 N 
ATOM      4  H   UNL     1      46.491   7.085  13.505  0.00  0.00    +0.000 HD
ENDROOT
BRANCH   1  11
ATOM      5  C   UNL     1      50.491  11.493  10.400  0.00  0.00    +0.000 C 
ATOM      6  C   UNL     1      50.031  10.570  11.490  0.00  0.00    +0.000 A 
ATOM      7  N   UNL     1      50.098  10.913  12.738  0.00  0.00    +0.000 NA
ATOM      8  C   UNL     1      49.646   9.973  13.610  0.00  0.00    +0.000 A 
ATOM      9  S   UNL     1      49.669  10.262  15.286  0.00  0.00    +0.000 S 
ATOM     10  C   UNL     1      49.003   8.730  15.616  0.00  0.00    +0.000 A 
ATOM     11  C   UNL     1      48.750   7.968  14.480  0.00  0.00    +0.000 A 
ATOM     12  C   UNL     1      49.135   8.722  13.307  0.00  0.00    +0.000 A 
ATOM     13  C   UNL     1      49.073   8.391  11.897  0.00  0.00    +0.000 A 
ATOM     14  O   UNL     1      48.635   7.334  11.452  0.00  0.00    +0.000 OA
ATOM     15  N   UNL     1      49.545   9.364  11.053  0.00  0.00    +0.000 N 
ATOM     16  H   UNL     1      49.509   9.142  10.069  0.00  0.00    +0.000 HD
ENDBRANCH   1  11
BRANCH   3  17
ATOM     17  C   UNL     1      46.351   5.071  14.125  0.00  0.00    +0.000 C 
BRANCH  17  18
ATOM     18  C   UNL     1      45.743   4.654  12.812  0.00  0.00    +0.000 A 
ATOM     19  C   UNL     1      45.460   5.591  11.809  0.00  0.00    +0.000 A 
ATOM     20  C   UNL     1      44.920   5.179  10.586  0.00  0.00    +0.000 A 
ATOM     21  C   UNL     1      44.658   3.827  10.354  0.00  0.00    +0.000 A 
ATOM     22  C   UNL     1      44.870   2.903  11.376  0.00  0.00    +0.000 A 
ATOM     23  C   UNL     1      45.417   3.311  12.592  0.00  0.00    +0.000 A 
BRANCH  21  24
ATOM     24  O   UNL     1      44.200   3.509   9.103  0.00  0.00    +0.000 OA
BRANCH  24  25
ATOM     25  C   UNL     1      44.978   4.049   8.031  0.00  0.00    +0.000 C 
BRANCH  25  26
ATOM     26  C   UNL     1      45.927   3.002   7.513  0.00  0.00    +0.000 A 
ATOM     27  C   UNL     1      46.797   3.303   6.462  0.00  0.00    +0.000 A 
ATOM     28  C   UNL     1      47.692   2.332   6.044  0.00  0.00    +0.000 A 
ATOM     29  N   UNL     1      47.782   1.105   6.599  0.00  0.00    +0.000 NA
ATOM     30  C   UNL     1      46.936   0.837   7.617  0.00  0.00    +0.000 A 
ATOM     31  C   UNL     1      46.006   1.741   8.107  0.00  0.00    +0.000 A 
ENDBRANCH  25  26
ENDBRANCH  24  25
ENDBRANCH  21  24
ENDBRANCH  17  18
ENDBRANCH   3  17
TORSDOF 6
ENDMDL
MODEL 6
REMARK VINA RESULT:    -7.844      3.166      4.649
REMARK INTER + INTRA:         -11.314
REMARK INTER:                 -10.183
REMARK INTRA:                  -1.131
REMARK UNBOUND:                -0.718
REMARK  Name = 
REMARK  7 active torsions:
REMARK  status: ('A' for Active; 'I' for Inactive)
REMARK    1  A    between atoms: C_1  and  C_2
REMARK    2  A    between atoms: C_7  and  C_8
REMARK    3  A    between atoms: N_10  and  C_11
REMARK    4  A    between atoms: C_11  and  C_12
REMARK    5  A    between atoms: C_15  and  O_16
REMARK    6  A    between atoms: O_16  and  C_17
REMARK    7  A    between atoms: C_17  and  C_18
REMARK                            x       y       z     vdW  Elec       q    Type
REMARK                         _______ _______ _______ _____ _____    ______ ____
ROOT
ATOM      1  C   UNL     1      48.869   6.653  15.851  0.00  0.00    +0.000 C 
ATOM      2  O   UNL     1      49.988   6.276  15.505  0.00  0.00    +0.000 OA
ATOM      3  N   UNL     1      47.930   7.023  14.927  0.00  0.00    +0.000 N 
ATOM      4  H   UNL     1      47.002   7.322  15.213  0.00  0.00    +0.000 HD
ENDROOT
BRANCH   1  11
ATOM      5  C   UNL     1      46.879  10.538  21.139  0.00  0.00    +0.000 C 
ATOM      6  C   UNL     1      47.303   9.518  20.125  0.00  0.00    +0.000 A 
ATOM      7  N   UNL     1      47.440   8.269  20.440  0.00  0.00    +0.000 NA
ATOM      8  C   UNL     1      47.833   7.465  19.417  0.00  0.00    +0.000 A 
ATOM      9  S   UNL     1      48.065   5.797  19.663  0.00  0.00    +0.000 S 
ATOM     10  C   UNL     1      48.511   5.562  18.037  0.00  0.00    +0.000 A 
ATOM     11  C   UNL     1      48.496   6.724  17.274  0.00  0.00    +0.000 A 
ATOM     12  C   UNL     1      48.092   7.836  18.108  0.00  0.00    +0.000 A 
ATOM     13  C   UNL     1      47.914   9.241  17.804  0.00  0.00    +0.000 A 
ATOM     14  O   UNL     1      48.085   9.738  16.695  0.00  0.00    +0.000 OA
ATOM     15  N   UNL     1      47.525  10.018  18.866  0.00  0.00    +0.000 N 
ATOM     16  H   UNL     1      47.401  10.999  18.666  0.00  0.00    +0.000 HD
ENDBRANCH   1  11
BRANCH   3  17
ATOM     17  C   UNL     1      48.212   6.988  13.515  0.00  0.00    +0.000 C 
BRANCH  17  18
ATOM     18  C   UNL     1      47.189   6.173  12.769  0.00  0.00    +0.000 A 
ATOM     19  C   UNL     1      46.629   6.630  11.568  0.00  0.00    +0.000 A 
ATOM     20  C   UNL     1      45.699   5.845  10.876  0.00  0.00    +0.000 A 
ATOM     21  C   UNL     1      45.321   4.598  11.378  0.00  0.00    +0.000 A 
ATOM     22  C   UNL     1      45.821   4.175  12.609  0.00  0.00    +0.000 A 
ATOM     23  C   UNL     1      46.754   4.951  13.294  0.00  0.00    +0.000 A 
BRANCH  21  24
ATOM     24  O   UNL     1      44.463   3.870  10.597  0.00  0.00    +0.000 OA
BRANCH  24  25
ATOM     25  C   UNL     1      44.501   4.201   9.206  0.00  0.00    +0.000 C 
BRANCH  25  26
ATOM     26  C   UNL     1      45.471   3.298   8.494  0.00  0.00    +0.000 A 
ATOM     27  C   UNL     1      45.474   1.926   8.757  0.00  0.00    +0.000 A 
ATOM     28  C   UNL     1      46.345   1.116   8.048  0.00  0.00    +0.000 A 
ATOM     29  N   UNL     1      47.195   1.574   7.103  0.00  0.00    +0.000 NA
ATOM     30  C   UNL     1      47.171   2.902   6.860  0.00  0.00    +0.000 A 
ATOM     31  C   UNL     1      46.336   3.793   7.516  0.00  0.00    +0.000 A 
ENDBRANCH  25  26
ENDBRANCH  24  25
ENDBRANCH  21  24
ENDBRANCH  17  18
ENDBRANCH   3  17
TORSDOF 6
ENDMDL
MODEL 7
REMARK VINA RESULT:    -7.616      2.223      2.598
REMARK INTER + INTRA:         -11.006
REMARK INTER:                 -10.043
REMARK INTRA:                  -0.962
REMARK UNBOUND:                -0.718
REMARK  Name = 
REMARK  7 active torsions:
REMARK  status: ('A' for Active; 'I' for Inactive)
REMARK    1  A    between atoms: C_1  and  C_2
REMARK    2  A    between atoms: C_7  and  C_8
REMARK    3  A    between atoms: N_10  and  C_11
REMARK    4  A    between atoms: C_11  and  C_12
REMARK    5  A    between atoms: C_15  and  O_16
REMARK    6  A    between atoms: O_16  and  C_17
REMARK    7  A    between atoms: C_17  and  C_18
REMARK                            x       y       z     vdW  Elec       q    Type
REMARK                         _______ _______ _______ _____ _____    ______ ____
ROOT
ATOM      1  C   UNL     1      48.633   6.873  15.917  0.00  0.00    +0.000 C 
ATOM      2  O   UNL     1      48.609   8.100  16.011  0.00  0.00    +0.000 OA
ATOM      3  N   UNL     1      48.184   6.243  14.788  0.00  0.00    +0.000 N 
ATOM      4  H   UNL     1      48.217   5.230  14.706  0.00  0.00    +0.000 HD
ENDROOT
BRANCH   1  11
ATOM      5  C   UNL     1      54.069   4.155  19.092  0.00  0.00    +0.000 C 
ATOM      6  C   UNL     1      52.758   4.648  18.554  0.00  0.00    +0.000 A 
ATOM      7  N   UNL     1      51.634   4.317  19.106  0.00  0.00    +0.000 NA
ATOM      8  C   UNL     1      50.531   4.839  18.506  0.00  0.00    +0.000 A 
ATOM      9  S   UNL     1      48.975   4.498  19.103  0.00  0.00    +0.000 S 
ATOM     10  C   UNL     1      48.242   5.445  17.892  0.00  0.00    +0.000 A 
ATOM     11  C   UNL     1      49.145   6.035  17.014  0.00  0.00    +0.000 A 
ATOM     12  C   UNL     1      50.491   5.666  17.396  0.00  0.00    +0.000 A 
ATOM     13  C   UNL     1      51.775   6.014  16.822  0.00  0.00    +0.000 A 
ATOM     14  O   UNL     1      51.923   6.746  15.848  0.00  0.00    +0.000 OA
ATOM     15  N   UNL     1      52.860   5.461  17.453  0.00  0.00    +0.000 N 
ATOM     16  H   UNL     1      53.759   5.695  17.059  0.00  0.00    +0.000 HD
ENDBRANCH   1  11
BRANCH   3  17
ATOM     17  C   UNL     1      47.664   6.985  13.670  0.00  0.00    +0.000 C 
BRANCH  17  18
ATOM     18  C   UNL     1      46.754   6.138  12.820  0.00  0.00    +0.000 A 
ATOM     19  C   UNL     1      46.246   6.609  11.602  0.00  0.00    +0.000 A 
ATOM     20  C   UNL     1      45.424   5.796  10.815  0.00  0.00    +0.000 A 
ATOM     21  C   UNL     1      45.101   4.505  11.238  0.00  0.00    +0.000 A 
ATOM     22  C   UNL     1      45.544   4.061  12.483  0.00  0.00    +0.000 A 
ATOM     23  C   UNL     1      46.372   4.867  13.264  0.00  0.00    +0.000 A 
BRANCH  21  24
ATOM     24  O   UNL     1      44.351   3.757  10.370  0.00  0.00    +0.000 OA
BRANCH  24  25
ATOM     25  C   UNL     1      44.518   4.103   8.991  0.00  0.00    +0.000 C 
BRANCH  25  26
ATOM     26  C   UNL     1      45.548   3.206   8.362  0.00  0.00    +0.000 A 
ATOM     27  C   UNL     1      45.545   1.835   8.633  0.00  0.00    +0.000 A 
ATOM     28  C   UNL     1      46.476   1.031   7.999  0.00  0.00    +0.000 A 
ATOM     29  N   UNL     1      47.391   1.492   7.119  0.00  0.00    +0.000 NA
ATOM     30  C   UNL     1      47.374   2.819   6.867  0.00  0.00    +0.000 A 
ATOM     31  C   UNL     1      46.482   3.705   7.451  0.00  0.00    +0.000 A 
ENDBRANCH  25  26
ENDBRANCH  24  25
ENDBRANCH  21  24
ENDBRANCH  17  18
ENDBRANCH   3  17
TORSDOF 6
ENDMDL
MODEL 8
REMARK VINA RESULT:    -7.249      4.011      8.585
REMARK INTER + INTRA:         -10.509
REMARK INTER:                  -8.974
REMARK INTRA:                  -1.535
REMARK UNBOUND:                -0.718
REMARK  Name = 
REMARK  7 active torsions:
REMARK  status: ('A' for Active; 'I' for Inactive)
REMARK    1  A    between atoms: C_1  and  C_2
REMARK    2  A    between atoms: C_7  and  C_8
REMARK    3  A    between atoms: N_10  and  C_11
REMARK    4  A    between atoms: C_11  and  C_12
REMARK    5  A    between atoms: C_15  and  O_16
REMARK    6  A    between atoms: O_16  and  C_17
REMARK    7  A    between atoms: C_17  and  C_18
REMARK                            x       y       z     vdW  Elec       q    Type
REMARK                         _______ _______ _______ _____ _____    ______ ____
ROOT
ATOM      1  C   UNL     1      47.688   8.147  13.670  0.00  0.00    +0.000 C 
ATOM      2  O   UNL     1      48.823   7.893  13.268  0.00  0.00    +0.000 OA
ATOM      3  N   UNL     1      47.489   8.897  14.798  0.00  0.00    +0.000 N 
ATOM      4  H   UNL     1      46.551   9.118  15.122  0.00  0.00    +0.000 HD
ENDROOT
BRANCH   1  11
ATOM      5  C   UNL     1      43.607   2.846  12.168  0.00  0.00    +0.000 C 
ATOM      6  C   UNL     1      44.362   4.127  12.370  0.00  0.00    +0.000 A 
ATOM      7  N   UNL     1      43.985   5.229  11.804  0.00  0.00    +0.000 NA
ATOM      8  C   UNL     1      44.769   6.306  12.079  0.00  0.00    +0.000 A 
ATOM      9  S   UNL     1      44.417   7.830  11.410  0.00  0.00    +0.000 S 
ATOM     10  C   UNL     1      45.758   8.541  12.182  0.00  0.00    +0.000 A 
ATOM     11  C   UNL     1      46.498   7.654  12.956  0.00  0.00    +0.000 A 
ATOM     12  C   UNL     1      45.896   6.341  12.883  0.00  0.00    +0.000 A 
ATOM     13  C   UNL     1      46.269   5.084  13.501  0.00  0.00    +0.000 A 
ATOM     14  O   UNL     1      47.229   4.939  14.253  0.00  0.00    +0.000 OA
ATOM     15  N   UNL     1      45.456   4.023  13.191  0.00  0.00    +0.000 N 
ATOM     16  H   UNL     1      45.709   3.143  13.614  0.00  0.00    +0.000 HD
ENDBRANCH   1  11
BRANCH   3  17
ATOM     17  C   UNL     1      48.595   9.416  15.560  0.00  0.00    +0.000 C 
BRANCH  17  18
ATOM     18  C   UNL     1      49.069   8.425  16.590  0.00  0.00    +0.000 A 
ATOM     19  C   UNL     1      48.301   8.127  17.723  0.00  0.00    +0.000 A 
ATOM     20  C   UNL     1      48.747   7.183  18.654  0.00  0.00    +0.000 A 
ATOM     21  C   UNL     1      49.967   6.530  18.463  0.00  0.00    +0.000 A 
ATOM     22  C   UNL     1      50.767   6.878  17.375  0.00  0.00    +0.000 A 
ATOM     23  C   UNL     1      50.318   7.811  16.441  0.00  0.00    +0.000 A 
BRANCH  21  24
ATOM     24  O   UNL     1      50.287   5.571  19.386  0.00  0.00    +0.000 OA
BRANCH  24  25
ATOM     25  C   UNL     1      49.310   4.535  19.530  0.00  0.00    +0.000 C 
BRANCH  25  26
ATOM     26  C   UNL     1      49.357   3.622  18.336  0.00  0.00    +0.000 A 
ATOM     27  C   UNL     1      50.541   2.955  18.008  0.00  0.00    +0.000 A 
ATOM     28  C   UNL     1      50.535   2.084  16.932  0.00  0.00    +0.000 A 
ATOM     29  N   UNL     1      49.444   1.830  16.178  0.00  0.00    +0.000 NA
ATOM     30  C   UNL     1      48.309   2.479  16.515  0.00  0.00    +0.000 A 
ATOM     31  C   UNL     1      48.214   3.370  17.573  0.00  0.00    +0.000 A 
ENDBRANCH  25  26
ENDBRANCH  24  25
ENDBRANCH  21  24
ENDBRANCH  17  18
ENDBRANCH   3  17
TORSDOF 6
ENDMDL
MODEL 9
REMARK VINA RESULT:    -7.168      2.749      3.515
REMARK INTER + INTRA:         -10.400
REMARK INTER:                  -9.205
REMARK INTRA:                  -1.196
REMARK UNBOUND:                -0.718
REMARK  Name = 
REMARK  7 active torsions:
REMARK  status: ('A' for Active; 'I' for Inactive)
REMARK    1  A    between atoms: C_1  and  C_2
REMARK    2  A    between atoms: C_7  and  C_8
REMARK    3  A    between atoms: N_10  and  C_11
REMARK    4  A    between atoms: C_11  and  C_12
REMARK    5  A    between atoms: C_15  and  O_16
REMARK    6  A    between atoms: O_16  and  C_17
REMARK    7  A    between atoms: C_17  and  C_18
REMARK                            x       y       z     vdW  Elec       q    Type
REMARK                         _______ _______ _______ _____ _____    ______ ____
ROOT
ATOM      1  C   UNL     1      48.359   8.518  15.782  0.00  0.00    +0.000 C 
ATOM      2  O   UNL     1      48.572   9.624  15.288  0.00  0.00    +0.000 OA
ATOM      3  N   UNL     1      47.978   7.458  15.004  0.00  0.00    +0.000 N 
ATOM      4  H   UNL     1      47.815   6.541  15.411  0.00  0.00    +0.000 HD
ENDROOT
BRANCH   1  11
ATOM      5  C   UNL     1      51.114   4.770  20.820  0.00  0.00    +0.000 C 
ATOM      6  C   UNL     1      50.419   5.711  19.880  0.00  0.00    +0.000 A 
ATOM      7  N   UNL     1      49.667   6.670  20.319  0.00  0.00    +0.000 NA
ATOM      8  C   UNL     1      49.103   7.438  19.349  0.00  0.00    +0.000 A 
ATOM      9  S   UNL     1      48.083   8.738  19.755  0.00  0.00    +0.000 S 
ATOM     10  C   UNL     1      47.830   9.124  18.116  0.00  0.00    +0.000 A 
ATOM     11  C   UNL     1      48.502   8.290  17.230  0.00  0.00    +0.000 A 
ATOM     12  C   UNL     1      49.249   7.303  17.978  0.00  0.00    +0.000 A 
ATOM     13  C   UNL     1      50.108   6.221  17.540  0.00  0.00    +0.000 A 
ATOM     14  O   UNL     1      50.359   5.968  16.365  0.00  0.00    +0.000 OA
ATOM     15  N   UNL     1      50.651   5.467  18.550  0.00  0.00    +0.000 N 
ATOM     16  H   UNL     1      51.248   4.709  18.255  0.00  0.00    +0.000 HD
ENDBRANCH   1  11
BRANCH   3  17
ATOM     17  C   UNL     1      47.810   7.593  13.581  0.00  0.00    +0.000 C 
BRANCH  17  18
ATOM     18  C   UNL     1      46.784   6.627  13.052  0.00  0.00    +0.000 A 
ATOM     19  C   UNL     1      45.729   7.057  12.235  0.00  0.00    +0.000 A 
ATOM     20  C   UNL     1      44.802   6.138  11.733  0.00  0.00    +0.000 A 
ATOM     21  C   UNL     1      44.919   4.781  12.042  0.00  0.00    +0.000 A 
ATOM     22  C   UNL     1      45.924   4.361  12.912  0.00  0.00    +0.000 A 
ATOM     23  C   UNL     1      46.854   5.275  13.406  0.00  0.00    +0.000 A 
BRANCH  21  24
ATOM     24  O   UNL     1      44.011   3.947  11.446  0.00  0.00    +0.000 OA
BRANCH  24  25
ATOM     25  C   UNL     1      43.761   4.230  10.066  0.00  0.00    +0.000 C 
BRANCH  25  26
ATOM     26  C   UNL     1      44.802   3.559   9.212  0.00  0.00    +0.000 A 
ATOM     27  C   UNL     1      44.931   2.167   9.228  0.00  0.00    +0.000 A 
ATOM     28  C   UNL     1      45.865   1.578   8.393  0.00  0.00    +0.000 A 
ATOM     29  N   UNL     1      46.661   2.271   7.551  0.00  0.00    +0.000 NA
ATOM     30  C   UNL     1      46.517   3.614   7.547  0.00  0.00    +0.000 A 
ATOM     31  C   UNL     1      45.611   4.295   8.345  0.00  0.00    +0.000 A 
ENDBRANCH  25  26
ENDBRANCH  24  25
ENDBRANCH  21  24
ENDBRANCH  17  18
ENDBRANCH   3  17
TORSDOF 6
ENDMDL
