MODEL 1
REMARK VINA RESULT:    -8.181      0.000      0.000
REMARK INTER + INTRA:         -11.791
REMARK INTER:                 -10.811
REMARK INTRA:                  -0.980
REMARK UNBOUND:                -0.980
REMARK  Name = 
REMARK  6 active torsions:
REMARK  status: ('A' for Active; 'I' for Inactive)
REMARK    1  A    between atoms: C_2  and  C_19
REMARK    2  A    between atoms: N_3  and  C_4
REMARK    3  A    between atoms: C_4  and  C_5
REMARK    4  A    between atoms: C_8  and  C_9
REMARK    5  A    between atoms: C_9  and  O_10
REMARK    6  A    between atoms: C_9  and  C_11
REMARK                            x       y       z     vdW  Elec       q    Type
REMARK                         _______ _______ _______ _____ _____    ______ ____
ROOT
ATOM      1  C   UNL     1      46.093   7.416  12.790  0.00  0.00    +0.000 C 
ENDROOT
BRANCH   1   2
ATOM      2  C   UNL     1      45.708   6.287  11.877  0.00  0.00    +0.000 A 
ATOM      3  C   UNL     1      45.018   5.165  12.345  0.00  0.00    +0.000 A 
ATOM      4  C   UNL     1      44.698   4.128  11.470  0.00  0.00    +0.000 A 
ATOM      5  C   UNL     1      45.063   4.244  10.132  0.00  0.00    +0.000 A 
ATOM      6  N   UNL     1      45.737   5.325   9.651  0.00  0.00    +0.000 NA
ATOM      7  C   UNL     1      46.031   6.317  10.526  0.00  0.00    +0.000 A 
BRANCH   5   8
ATOM      8  C   UNL     1      44.700   3.163   9.124  0.00  0.00    +0.000 C 
BRANCH   8   9
ATOM      9  C   UNL     1      45.933   2.600   8.381  0.00  0.00    +0.000 C 
ATOM     10  C   UNL     1      46.041   3.205   6.969  0.00  0.00    +0.000 C 
ATOM     11  C   UNL     1      47.206   2.600   6.196  0.00  0.00    +0.000 C 
ATOM     12  O   UNL     1      47.093   1.180   6.130  0.00  0.00    +0.000 OA
ATOM     13  C   UNL     1      47.102   0.578   7.422  0.00  0.00    +0.000 C 
ATOM     14  C   UNL     1      45.926   1.064   8.259  0.00  0.00    +0.000 C 
ENDBRANCH   8   9
BRANCH   8  15
ATOM     15  O   UNL     1      44.012   2.101   9.790  0.00  0.00    +0.000 OA
ATOM     16  H   UNL     1      44.673   1.727  10.412  0.00  0.00    +0.000 HD
ENDBRANCH   8  15
ENDBRANCH   5   8
ENDBRANCH   1   2
BRANCH   1  19
ATOM     17  O   UNL     1      48.850   6.795  13.002  0.00  0.00    +0.000 OA
ATOM     18  C   UNL     1      48.139   6.709  13.996  0.00  0.00    +0.000 C 
ATOM     19  N   UNL     1      46.791   6.963  13.965  0.00  0.00    +0.000 N 
ATOM     20  H   UNL     1      46.278   7.018  14.835  0.00  0.00    +0.000 HD
BRANCH  18  21
ATOM     21  C   UNL     1      48.669   6.279  15.294  0.00  0.00    +0.000 A 
ATOM     22  C   UNL     1      49.667   7.011  15.928  0.00  0.00    +0.000 A 
ATOM     23  S   UNL     1      50.150   6.345  17.426  0.00  0.00    +0.000 S 
ATOM     24  C   UNL     1      49.021   5.080  17.293  0.00  0.00    +0.000 A 
ATOM     25  N   UNL     1      48.891   4.146  18.274  0.00  0.00    +0.000 NA
ATOM     26  C   UNL     1      47.971   3.266  18.057  0.00  0.00    +0.000 A 
ATOM     27  N   UNL     1      47.174   3.229  16.942  0.00  0.00    +0.000 N 
ATOM     28  C   UNL     1      47.322   4.098  15.896  0.00  0.00    +0.000 A 
ATOM     29  O   UNL     1      46.690   3.945  14.853  0.00  0.00    +0.000 OA
ATOM     30  C   UNL     1      48.307   5.146  16.112  0.00  0.00    +0.000 A 
ATOM     31  H   UNL     1      46.501   2.487  16.810  0.00  0.00    +0.000 HD
ENDBRANCH  18  21
ENDBRANCH   1  19
TORSDOF 6
ENDMDL
MODEL 2
REMARK VINA RESULT:    -7.753      1.140      1.685
REMARK INTER + INTRA:         -11.225
REMARK INTER:                 -10.527
REMARK INTRA:                  -0.699
REMARK UNBOUND:                -0.980
REMARK  Name = 
REMARK  6 active torsions:
REMARK  status: ('A' for Active; 'I' for Inactive)
REMARK    1  A    between atoms: C_2  and  C_19
REMARK    2  A    between atoms: N_3  and  C_4
REMARK    3  A    between atoms: C_4  and  C_5
REMARK    4  A    between atoms: C_8  and  C_9
REMARK    5  A    between atoms: C_9  and  O_10
REMARK    6  A    between atoms: C_9  and  C_11
REMARK                            x       y       z     vdW  Elec       q    Type
REMARK                         _______ _______ _______ _____ _____    ______ ____
ROOT
ATOM      1  C   UNL     1      46.954   7.768  13.207  0.00  0.00    +0.000 C 
ENDROOT
BRANCH   1   2
ATOM      2  C   UNL     1      46.084   6.841  12.408  0.00  0.00    +0.000 A 
ATOM      3  C   UNL     1      44.981   7.306  11.687  0.00  0.00    +0.000 A 
ATOM      4  C   UNL     1      44.184   6.410  10.975  0.00  0.00    +0.000 A 
ATOM      5  C   UNL     1      44.521   5.060  10.986  0.00  0.00    +0.000 A 
ATOM      6  N   UNL     1      45.589   4.581  11.681  0.00  0.00    +0.000 NA
ATOM      7  C   UNL     1      46.344   5.477  12.360  0.00  0.00    +0.000 A 
BRANCH   5   8
ATOM      8  C   UNL     1      43.714   4.045  10.190  0.00  0.00    +0.000 C 
BRANCH   8   9
ATOM      9  C   UNL     1      44.491   3.480   8.979  0.00  0.00    +0.000 C 
ATOM     10  C   UNL     1      45.157   2.138   9.337  0.00  0.00    +0.000 C 
ATOM     11  C   UNL     1      45.992   1.610   8.177  0.00  0.00    +0.000 C 
ATOM     12  O   UNL     1      46.970   2.565   7.774  0.00  0.00    +0.000 OA
ATOM     13  C   UNL     1      46.380   3.785   7.331  0.00  0.00    +0.000 C 
ATOM     14  C   UNL     1      45.573   4.438   8.445  0.00  0.00    +0.000 C 
ENDBRANCH   8   9
BRANCH   8  15
ATOM     15  O   UNL     1      43.315   2.973  11.049  0.00  0.00    +0.000 OA
ATOM     16  H   UNL     1      43.835   2.200  10.741  0.00  0.00    +0.000 HD
ENDBRANCH   8  15
ENDBRANCH   5   8
ENDBRANCH   1   2
BRANCH   1  19
ATOM     17  O   UNL     1      49.590   6.918  13.808  0.00  0.00    +0.000 OA
ATOM     18  C   UNL     1      48.718   6.812  14.662  0.00  0.00    +0.000 C 
ATOM     19  N   UNL     1      47.414   7.173  14.435  0.00  0.00    +0.000 N 
ATOM     20  H   UNL     1      46.766   7.201  15.212  0.00  0.00    +0.000 HD
BRANCH  18  21
ATOM     21  C   UNL     1      48.993   6.244  15.986  0.00  0.00    +0.000 A 
ATOM     22  C   UNL     1      49.898   6.858  16.845  0.00  0.00    +0.000 A 
ATOM     23  S   UNL     1      50.081   6.041  18.335  0.00  0.00    +0.000 S 
ATOM     24  C   UNL     1      48.936   4.863  17.895  0.00  0.00    +0.000 A 
ATOM     25  N   UNL     1      48.594   3.860  18.749  0.00  0.00    +0.000 NA
ATOM     26  C   UNL     1      47.687   3.058  18.298  0.00  0.00    +0.000 A 
ATOM     27  N   UNL     1      47.096   3.164  17.065  0.00  0.00    +0.000 N 
ATOM     28  C   UNL     1      47.464   4.106  16.145  0.00  0.00    +0.000 A 
ATOM     29  O   UNL     1      47.017   4.080  15.001  0.00  0.00    +0.000 OA
ATOM     30  C   UNL     1      48.443   5.071  16.621  0.00  0.00    +0.000 A 
ATOM     31  H   UNL     1      46.423   2.478  16.753  0.00  0.00    +0.000 HD
ENDBRANCH  18  21
ENDBRANCH   1  19
TORSDOF 6
ENDMDL
MODEL 3
REMARK VINA RESULT:    -7.318      2.327      3.116
REMARK INTER + INTRA:         -10.651
REMARK INTER:                 -10.073
REMARK INTRA:                  -0.578
REMARK UNBOUND:                -0.980
REMARK  Name = 
REMARK  6 active torsions:
REMARK  status: ('A' for Active; 'I' for Inactive)
REMARK    1  A    between atoms: C_2  and  C_19
REMARK    2  A    between atoms: N_3  and  C_4
REMARK    3  A    between atoms: C_4  and  C_5
REMARK    4  A    between atoms: C_8  and  C_9
REMARK    5  A    between atoms: C_9  and  O_10
REMARK    6  A    between atoms: C_9  and  C_11
REMARK                            x       y       z     vdW  Elec       q    Type
REMARK                         _______ _______ _______ _____ _____    ______ ____
ROOT
ATOM      1  C   UNL     1      47.899   6.850  13.748  0.00  0.00    +0.000 C 
ENDROOT
BRANCH   1   2
ATOM      2  C   UNL     1      46.796   6.315  12.880  0.00  0.00    +0.000 A 
ATOM      3  C   UNL     1      46.158   7.112  11.925  0.00  0.00    +0.000 A 
ATOM      4  C   UNL     1      45.123   6.584  11.156  0.00  0.00    +0.000 A 
ATOM      5  C   UNL     1      44.756   5.256  11.347  0.00  0.00    +0.000 A 
ATOM      6  N   UNL     1      45.360   4.459  12.271  0.00  0.00    +0.000 NA
ATOM      7  C   UNL     1      46.364   5.001  13.001  0.00  0.00    +0.000 A 
BRANCH   5   8
ATOM      8  C   UNL     1      43.664   4.615  10.503  0.00  0.00    +0.000 C 
BRANCH   8   9
ATOM      9  C   UNL     1      44.227   3.789   9.323  0.00  0.00    +0.000 C 
ATOM     10  C   UNL     1      44.600   2.367   9.783  0.00  0.00    +0.000 C 
ATOM     11  C   UNL     1      45.230   1.568   8.650  0.00  0.00    +0.000 C 
ATOM     12  O   UNL     1      46.369   2.242   8.121  0.00  0.00    +0.000 OA
ATOM     13  C   UNL     1      46.037   3.520   7.585  0.00  0.00    +0.000 C 
ATOM     14  C   UNL     1      45.460   4.431   8.660  0.00  0.00    +0.000 C 
ENDBRANCH   8   9
BRANCH   8  15
ATOM     15  O   UNL     1      42.849   3.781  11.330  0.00  0.00    +0.000 OA
ATOM     16  H   UNL     1      42.435   3.142  10.710  0.00  0.00    +0.000 HD
ENDBRANCH   8  15
ENDBRANCH   5   8
ENDBRANCH   1   2
BRANCH   1  19
ATOM     17  O   UNL     1      50.091   6.637  15.531  0.00  0.00    +0.000 OA
ATOM     18  C   UNL     1      48.988   6.241  15.888  0.00  0.00    +0.000 C 
ATOM     19  N   UNL     1      47.887   6.284  15.071  0.00  0.00    +0.000 N 
ATOM     20  H   UNL     1      46.975   6.080  15.458  0.00  0.00    +0.000 HD
BRANCH  18  21
ATOM     21  C   UNL     1      48.768   5.646  17.211  0.00  0.00    +0.000 A 
ATOM     22  C   UNL     1      48.982   4.288  17.420  0.00  0.00    +0.000 A 
ATOM     23  S   UNL     1      48.667   3.790  19.024  0.00  0.00    +0.000 S 
ATOM     24  C   UNL     1      48.268   5.373  19.498  0.00  0.00    +0.000 A 
ATOM     25  N   UNL     1      47.921   5.658  20.784  0.00  0.00    +0.000 NA
ATOM     26  C   UNL     1      47.679   6.906  21.009  0.00  0.00    +0.000 A 
ATOM     27  N   UNL     1      47.742   7.897  20.063  0.00  0.00    +0.000 N 
ATOM     28  C   UNL     1      48.008   7.647  18.745  0.00  0.00    +0.000 A 
ATOM     29  O   UNL     1      47.912   8.535  17.901  0.00  0.00    +0.000 OA
ATOM     30  C   UNL     1      48.344   6.264  18.444  0.00  0.00    +0.000 A 
ATOM     31  H   UNL     1      47.498   8.850  20.293  0.00  0.00    +0.000 HD
ENDBRANCH  18  21
ENDBRANCH   1  19
TORSDOF 6
ENDMDL
MODEL 4
REMARK VINA RESULT:    -7.181      2.206      3.690
REMARK INTER + INTRA:         -10.469
REMARK INTER:                  -9.596
REMARK INTRA:                  -0.873
REMARK UNBOUND:                -0.980
REMARK  Name = 
REMARK  6 active torsions:
REMARK  status: ('A' for Active; 'I' for Inactive)
REMARK    1  A    between atoms: C_2  and  C_19
REMARK    2  A    between atoms: N_3  and  C_4
REMARK    3  A    between atoms: C_4  and  C_5
REMARK    4  A    between atoms: C_8  and  C_9
REMARK    5  A    between atoms: C_9  and  O_10
REMARK    6  A    between atoms: C_9  and  C_11
REMARK                            x       y       z     vdW  Elec       q    Type
REMARK                         _______ _______ _______ _____ _____    ______ ____
ROOT
ATOM      1  C   UNL     1      45.792   6.073  13.639  0.00  0.00    +0.000 C 
ENDROOT
BRANCH   1   2
ATOM      2  C   UNL     1      45.604   5.509  12.260  0.00  0.00    +0.000 A 
ATOM      3  C   UNL     1      45.874   6.262  11.113  0.00  0.00    +0.000 A 
ATOM      4  C   UNL     1      45.665   5.710   9.851  0.00  0.00    +0.000 A 
ATOM      5  C   UNL     1      45.203   4.400   9.761  0.00  0.00    +0.000 A 
ATOM      6  N   UNL     1      44.931   3.646  10.861  0.00  0.00    +0.000 NA
ATOM      7  C   UNL     1      45.147   4.210  12.073  0.00  0.00    +0.000 A 
BRANCH   5   8
ATOM      8  C   UNL     1      45.001   3.732   8.408  0.00  0.00    +0.000 C 
BRANCH   8   9
ATOM      9  C   UNL     1      46.250   2.956   7.932  0.00  0.00    +0.000 C 
ATOM     10  C   UNL     1      46.554   3.267   6.454  0.00  0.00    +0.000 C 
ATOM     11  C   UNL     1      47.735   2.448   5.950  0.00  0.00    +0.000 C 
ATOM     12  O   UNL     1      47.506   1.053   6.135  0.00  0.00    +0.000 OA
ATOM     13  C   UNL     1      47.330   0.714   7.508  0.00  0.00    +0.000 C 
ATOM     14  C   UNL     1      46.122   1.429   8.097  0.00  0.00    +0.000 C 
ENDBRANCH   8   9
BRANCH   8  15
ATOM     15  O   UNL     1      43.880   2.846   8.476  0.00  0.00    +0.000 OA
ATOM     16  H   UNL     1      44.005   2.349   9.313  0.00  0.00    +0.000 HD
ENDBRANCH   8  15
ENDBRANCH   5   8
ENDBRANCH   1   2
BRANCH   1  19
ATOM     17  O   UNL     1      48.105   5.167  15.003  0.00  0.00    +0.000 OA
ATOM     18  C   UNL     1      48.130   6.254  14.440  0.00  0.00    +0.000 C 
ATOM     19  N   UNL     1      47.041   6.773  13.785  0.00  0.00    +0.000 N 
ATOM     20  H   UNL     1      47.154   7.603  13.218  0.00  0.00    +0.000 HD
BRANCH  18  21
ATOM     21  C   UNL     1      49.320   7.111  14.461  0.00  0.00    +0.000 A 
ATOM     22  C   UNL     1      49.978   7.379  15.655  0.00  0.00    +0.000 A 
ATOM     23  S   UNL     1      51.336   8.399  15.469  0.00  0.00    +0.000 S 
ATOM     24  C   UNL     1      51.109   8.489  13.786  0.00  0.00    +0.000 A 
ATOM     25  N   UNL     1      51.962   9.199  12.996  0.00  0.00    +0.000 NA
ATOM     26  C   UNL     1      51.690   9.150  11.735  0.00  0.00    +0.000 A 
ATOM     27  N   UNL     1      50.635   8.463  11.190  0.00  0.00    +0.000 N 
ATOM     28  C   UNL     1      49.710   7.802  11.949  0.00  0.00    +0.000 A 
ATOM     29  O   UNL     1      48.700   7.322  11.439  0.00  0.00    +0.000 OA
ATOM     30  C   UNL     1      49.998   7.778  13.375  0.00  0.00    +0.000 A 
ATOM     31  H   UNL     1      50.450   8.500  10.197  0.00  0.00    +0.000 HD
ENDBRANCH  18  21
ENDBRANCH   1  19
TORSDOF 6
ENDMDL
MODEL 5
REMARK VINA RESULT:    -7.022      4.145      9.374
REMARK INTER + INTRA:         -10.259
REMARK INTER:                  -9.399
REMARK INTRA:                  -0.861
REMARK UNBOUND:                -0.980
REMARK  Name = 
REMARK  6 active torsions:
REMARK  status: ('A' for Active; 'I' for Inactive)
REMARK    1  A    between atoms: C_2  and  C_19
REMARK    2  A    between atoms: N_3  and  C_4
REMARK    3  A    between atoms: C_4  and  C_5
REMARK    4  A    between atoms: C_8  and  C_9
REMARK    5  A    between atoms: C_9  and  O_10
REMARK    6  A    between atoms: C_9  and  C_11
REMARK                            x       y       z     vdW  Elec       q    Type
REMARK                         _______ _______ _______ _____ _____    ______ ____
ROOT
ATOM      1  C   UNL     1      47.097   3.387  16.898  0.00  0.00    +0.000 C 
ENDROOT
BRANCH   1   2
ATOM      2  C   UNL     1      48.564   3.191  17.153  0.00  0.00    +0.000 A 
ATOM      3  C   UNL     1      49.352   4.192  17.730  0.00  0.00    +0.000 A 
ATOM      4  C   UNL     1      50.715   3.978  17.929  0.00  0.00    +0.000 A 
ATOM      5  C   UNL     1      51.262   2.753  17.561  0.00  0.00    +0.000 A 
ATOM      6  N   UNL     1      50.518   1.763  16.996  0.00  0.00    +0.000 NA
ATOM      7  C   UNL     1      49.196   2.000  16.817  0.00  0.00    +0.000 A 
BRANCH   5   8
ATOM      8  C   UNL     1      52.735   2.450  17.797  0.00  0.00    +0.000 C 
BRANCH   8   9
ATOM      9  C   UNL     1      53.456   3.568  18.583  0.00  0.00    +0.000 C 
ATOM     10  C   UNL     1      54.833   3.869  17.961  0.00  0.00    +0.000 C 
ATOM     11  C   UNL     1      55.589   4.913  18.773  0.00  0.00    +0.000 C 
ATOM     12  O   UNL     1      55.728   4.503  20.131  0.00  0.00    +0.000 OA
ATOM     13  C   UNL     1      54.467   4.322  20.770  0.00  0.00    +0.000 C 
ATOM     14  C   UNL     1      53.652   3.240  20.075  0.00  0.00    +0.000 C 
ENDBRANCH   8   9
BRANCH   8  15
ATOM     15  O   UNL     1      52.860   1.210  18.498  0.00  0.00    +0.000 OA
ATOM     16  H   UNL     1      53.825   1.100  18.641  0.00  0.00    +0.000 HD
ENDBRANCH   8  15
ENDBRANCH   5   8
ENDBRANCH   1   2
BRANCH   1  19
ATOM     17  O   UNL     1      47.275   3.083  14.086  0.00  0.00    +0.000 OA
ATOM     18  C   UNL     1      46.920   4.159  14.551  0.00  0.00    +0.000 C 
ATOM     19  N   UNL     1      46.839   4.392  15.900  0.00  0.00    +0.000 N 
ATOM     20  H   UNL     1      46.406   5.245  16.230  0.00  0.00    +0.000 HD
BRANCH  18  21
ATOM     21  C   UNL     1      46.595   5.305  13.693  0.00  0.00    +0.000 A 
ATOM     22  C   UNL     1      47.518   6.325  13.497  0.00  0.00    +0.000 A 
ATOM     23  S   UNL     1      46.949   7.567  12.470  0.00  0.00    +0.000 S 
ATOM     24  C   UNL     1      45.467   6.768  12.230  0.00  0.00    +0.000 A 
ATOM     25  N   UNL     1      44.509   7.290  11.415  0.00  0.00    +0.000 NA
ATOM     26  C   UNL     1      43.451   6.559  11.297  0.00  0.00    +0.000 A 
ATOM     27  N   UNL     1      43.258   5.357  11.928  0.00  0.00    +0.000 N 
ATOM     28  C   UNL     1      44.158   4.833  12.815  0.00  0.00    +0.000 A 
ATOM     29  O   UNL     1      43.888   3.828  13.469  0.00  0.00    +0.000 OA
ATOM     30  C   UNL     1      45.394   5.587  12.944  0.00  0.00    +0.000 A 
ATOM     31  H   UNL     1      42.388   4.853  11.828  0.00  0.00    +0.000 HD
ENDBRANCH  18  21
ENDBRANCH   1  19
TORSDOF 6
ENDMDL
MODEL 6
REMARK VINA RESULT:    -6.934      3.679      8.297
REMARK INTER + INTRA:         -10.144
REMARK INTER:                  -9.219
REMARK INTRA:                  -0.925
REMARK UNBOUND:                -0.980
REMARK  Name = 
REMARK  6 active torsions:
REMARK  status: ('A' for Active; 'I' for Inactive)
REMARK    1  A    between atoms: C_2  and  C_19
REMARK    2  A    between atoms: N_3  and  C_4
REMARK    3  A    between atoms: C_4  and  C_5
REMARK    4  A    between atoms: C_8  and  C_9
REMARK    5  A    between atoms: C_9  and  O_10
REMARK    6  A    between atoms: C_9  and  C_11
REMARK                            x       y       z     vdW  Elec       q    Type
REMARK                         _______ _______ _______ _____ _____    ______ ____
ROOT
ATOM      1  C   UNL     1      48.325   7.662  14.634  0.00  0.00    +0.000 C 
ENDROOT
BRANCH   1   2
ATOM      2  C   UNL     1      48.893   6.629  15.565  0.00  0.00    +0.000 A 
ATOM      3  C   UNL     1      50.153   6.780  16.152  0.00  0.00    +0.000 A 
ATOM      4  C   UNL     1      50.653   5.787  16.993  0.00  0.00    +0.000 A 
ATOM      5  C   UNL     1      49.871   4.665  17.244  0.00  0.00    +0.000 A 
ATOM      6  N   UNL     1      48.642   4.492  16.683  0.00  0.00    +0.000 NA
ATOM      7  C   UNL     1      48.182   5.476  15.873  0.00  0.00    +0.000 A 
BRANCH   5   8
ATOM      8  C   UNL     1      50.349   3.572  18.189  0.00  0.00    +0.000 C 
BRANCH   8   9
ATOM      9  C   UNL     1      51.697   2.954  17.754  0.00  0.00    +0.000 C 
ATOM     10  C   UNL     1      51.582   1.422  17.635  0.00  0.00    +0.000 C 
ATOM     11  C   UNL     1      52.924   0.793  17.285  0.00  0.00    +0.000 C 
ATOM     12  O   UNL     1      53.920   1.150  18.240  0.00  0.00    +0.000 OA
ATOM     13  C   UNL     1      54.131   2.559  18.296  0.00  0.00    +0.000 C 
ATOM     14  C   UNL     1      52.859   3.286  18.710  0.00  0.00    +0.000 C 
ENDBRANCH   8   9
BRANCH   8  15
ATOM     15  O   UNL     1      50.466   4.102  19.512  0.00  0.00    +0.000 OA
ATOM     16  H   UNL     1      51.175   4.777  19.449  0.00  0.00    +0.000 HD
ENDBRANCH   8  15
ENDBRANCH   5   8
ENDBRANCH   1   2
BRANCH   1  19
ATOM     17  O   UNL     1      48.052   6.644  12.004  0.00  0.00    +0.000 OA
ATOM     18  C   UNL     1      47.064   6.716  12.723  0.00  0.00    +0.000 C 
ATOM     19  N   UNL     1      47.111   7.225  13.996  0.00  0.00    +0.000 N 
ATOM     20  H   UNL     1      46.303   7.132  14.597  0.00  0.00    +0.000 HD
BRANCH  18  21
ATOM     21  C   UNL     1      45.735   6.303  12.259  0.00  0.00    +0.000 A 
ATOM     22  C   UNL     1      44.868   7.225  11.685  0.00  0.00    +0.000 A 
ATOM     23  S   UNL     1      43.371   6.548  11.215  0.00  0.00    +0.000 S 
ATOM     24  C   UNL     1      43.844   4.999  11.731  0.00  0.00    +0.000 A 
ATOM     25  N   UNL     1      43.019   3.925  11.588  0.00  0.00    +0.000 NA
ATOM     26  C   UNL     1      43.522   2.806  11.989  0.00  0.00    +0.000 A 
ATOM     27  N   UNL     1      44.774   2.662  12.530  0.00  0.00    +0.000 N 
ATOM     28  C   UNL     1      45.606   3.722  12.765  0.00  0.00    +0.000 A 
ATOM     29  O   UNL     1      46.658   3.574  13.382  0.00  0.00    +0.000 OA
ATOM     30  C   UNL     1      45.112   5.001  12.280  0.00  0.00    +0.000 A 
ATOM     31  H   UNL     1      45.094   1.764  12.865  0.00  0.00    +0.000 HD
ENDBRANCH  18  21
ENDBRANCH   1  19
TORSDOF 6
ENDMDL
MODEL 7
REMARK VINA RESULT:    -6.871      3.446      5.717
REMARK INTER + INTRA:         -10.061
REMARK INTER:                  -9.009
REMARK INTRA:                  -1.052
REMARK UNBOUND:                -0.980
REMARK  Name = 
REMARK  6 active torsions:
REMARK  status: ('A' for Active; 'I' for Inactive)
REMARK    1  A    between atoms: C_2  and  C_19
REMARK    2  A    between atoms: N_3  and  C_4
REMARK    3  A    between atoms: C_4  and  C_5
REMARK    4  A    between atoms: C_8  and  C_9
REMARK    5  A    between atoms: C_9  and  O_10
REMARK    6  A    between atoms: C_9  and  C_11
REMARK                            x       y       z     vdW  Elec       q    Type
REMARK                         _______ _______ _______ _____ _____    ______ ____
ROOT
ATOM      1  C   UNL     1      48.661   5.447  18.269  0.00  0.00    +0.000 C 
ENDROOT
BRANCH   1   2
ATOM      2  C   UNL     1      48.167   5.333  16.856  0.00  0.00    +0.000 A 
ATOM      3  C   UNL     1      48.490   6.285  15.884  0.00  0.00    +0.000 A 
ATOM      4  C   UNL     1      47.992   6.156  14.588  0.00  0.00    +0.000 A 
ATOM      5  C   UNL     1      47.190   5.060  14.286  0.00  0.00    +0.000 A 
ATOM      6  N   UNL     1      46.859   4.120  15.213  0.00  0.00    +0.000 NA
ATOM      7  C   UNL     1      47.360   4.273  16.462  0.00  0.00    +0.000 A 
BRANCH   5   8
ATOM      8  C   UNL     1      46.657   4.845  12.876  0.00  0.00    +0.000 C 
BRANCH   8   9
ATOM      9  C   UNL     1      45.159   4.464  12.855  0.00  0.00    +0.000 C 
ATOM     10  C   UNL     1      44.924   3.226  11.969  0.00  0.00    +0.000 C 
ATOM     11  C   UNL     1      43.442   2.887  11.876  0.00  0.00    +0.000 C 
ATOM     12  O   UNL     1      42.693   4.000  11.396  0.00  0.00    +0.000 OA
ATOM     13  C   UNL     1      42.800   5.133  12.254  0.00  0.00    +0.000 C 
ATOM     14  C   UNL     1      44.245   5.602  12.363  0.00  0.00    +0.000 C 
ENDBRANCH   8   9
BRANCH   8  15
ATOM     15  O   UNL     1      46.864   6.029  12.101  0.00  0.00    +0.000 OA
ATOM     16  H   UNL     1      46.014   6.173  11.633  0.00  0.00    +0.000 HD
ENDBRANCH   8  15
ENDBRANCH   5   8
ENDBRANCH   1   2
BRANCH   1  19
ATOM     17  O   UNL     1      51.352   6.237  17.864  0.00  0.00    +0.000 OA
ATOM     18  C   UNL     1      51.117   5.123  18.313  0.00  0.00    +0.000 C 
ATOM     19  N   UNL     1      49.841   4.658  18.508  0.00  0.00    +0.000 N 
ATOM     20  H   UNL     1      49.701   3.792  19.012  0.00  0.00    +0.000 HD
BRANCH  18  21
ATOM     21  C   UNL     1      52.188   4.174  18.637  0.00  0.00    +0.000 A 
ATOM     22  C   UNL     1      53.246   4.554  19.455  0.00  0.00    +0.000 A 
ATOM     23  S   UNL     1      54.390   3.310  19.707  0.00  0.00    +0.000 S 
ATOM     24  C   UNL     1      53.495   2.217  18.762  0.00  0.00    +0.000 A 
ATOM     25  N   UNL     1      53.912   0.933  18.585  0.00  0.00    +0.000 NA
ATOM     26  C   UNL     1      53.117   0.205  17.874  0.00  0.00    +0.000 A 
ATOM     27  N   UNL     1      51.945   0.646  17.314  0.00  0.00    +0.000 N 
ATOM     28  C   UNL     1      51.527   1.946  17.399  0.00  0.00    +0.000 A 
ATOM     29  O   UNL     1      50.550   2.338  16.765  0.00  0.00    +0.000 OA
ATOM     30  C   UNL     1      52.357   2.798  18.236  0.00  0.00    +0.000 A 
ATOM     31  H   UNL     1      51.388   0.038  16.731  0.00  0.00    +0.000 HD
ENDBRANCH  18  21
ENDBRANCH   1  19
TORSDOF 6
ENDMDL
MODEL 8
REMARK VINA RESULT:    -6.756      4.142      9.260
REMARK INTER + INTRA:          -9.909
REMARK INTER:                  -8.718
REMARK INTRA:                  -1.190
REMARK UNBOUND:                -0.980
REMARK  Name = 
REMARK  6 active torsions:
REMARK  status: ('A' for Active; 'I' for Inactive)
REMARK    1  A    between atoms: C_2  and  C_19
REMARK    2  A    between atoms: N_3  and  C_4
REMARK    3  A    between atoms: C_4  and  C_5
REMARK    4  A    between atoms: C_8  and  C_9
REMARK    5  A    between atoms: C_9  and  O_10
REMARK    6  A    between atoms: C_9  and  C_11
REMARK                            x       y       z     vdW  Elec       q    Type
REMARK                         _______ _______ _______ _____ _____    ______ ____
ROOT
ATOM      1  C   UNL     1      47.074   3.465  16.709  0.00  0.00    +0.000 C 
ENDROOT
BRANCH   1   2
ATOM      2  C   UNL     1      48.527   3.236  17.011  0.00  0.00    +0.000 A 
ATOM      3  C   UNL     1      49.306   4.201  17.656  0.00  0.00    +0.000 A 
ATOM      4  C   UNL     1      50.657   3.959  17.898  0.00  0.00    +0.000 A 
ATOM      5  C   UNL     1      51.201   2.742  17.500  0.00  0.00    +0.000 A 
ATOM      6  N   UNL     1      50.465   1.786  16.868  0.00  0.00    +0.000 NA
ATOM      7  C   UNL     1      49.155   2.050  16.651  0.00  0.00    +0.000 A 
BRANCH   5   8
ATOM      8  C   UNL     1      52.659   2.407  17.779  0.00  0.00    +0.000 C 
BRANCH   8   9
ATOM      9  C   UNL     1      53.396   3.532  18.541  0.00  0.00    +0.000 C 
ATOM     10  C   UNL     1      54.659   3.972  17.777  0.00  0.00    +0.000 C 
ATOM     11  C   UNL     1      55.437   5.024  18.556  0.00  0.00    +0.000 C 
ATOM     12  O   UNL     1      55.775   4.551  19.857  0.00  0.00    +0.000 OA
ATOM     13  C   UNL     1      54.621   4.239  20.633  0.00  0.00    +0.000 C 
ATOM     14  C   UNL     1      53.801   3.137  19.974  0.00  0.00    +0.000 C 
ENDBRANCH   8   9
BRANCH   8  15
ATOM     15  O   UNL     1      52.735   1.189  18.525  0.00  0.00    +0.000 OA
ATOM     16  H   UNL     1      52.697   0.479  17.849  0.00  0.00    +0.000 HD
ENDBRANCH   8  15
ENDBRANCH   5   8
ENDBRANCH   1   2
BRANCH   1  19
ATOM     17  O   UNL     1      47.158   3.148  13.894  0.00  0.00    +0.000 OA
ATOM     18  C   UNL     1      46.898   4.249  14.365  0.00  0.00    +0.000 C 
ATOM     19  N   UNL     1      46.869   4.487  15.716  0.00  0.00    +0.000 N 
ATOM     20  H   UNL     1      46.511   5.370  16.055  0.00  0.00    +0.000 HD
BRANCH  18  21
ATOM     21  C   UNL     1      46.641   5.416  13.514  0.00  0.00    +0.000 A 
ATOM     22  C   UNL     1      45.534   5.450  12.676  0.00  0.00    +0.000 A 
ATOM     23  S   UNL     1      45.415   6.891  11.766  0.00  0.00    +0.000 S 
ATOM     24  C   UNL     1      46.817   7.529  12.486  0.00  0.00    +0.000 A 
ATOM     25  N   UNL     1      47.271   8.773  12.166  0.00  0.00    +0.000 NA
ATOM     26  C   UNL     1      48.324   9.142  12.815  0.00  0.00    +0.000 A 
ATOM     27  N   UNL     1      48.972   8.376  13.751  0.00  0.00    +0.000 N 
ATOM     28  C   UNL     1      48.600   7.094  14.046  0.00  0.00    +0.000 A 
ATOM     29  O   UNL     1      49.290   6.389  14.779  0.00  0.00    +0.000 OA
ATOM     30  C   UNL     1      47.385   6.646  13.384  0.00  0.00    +0.000 A 
ATOM     31  H   UNL     1      49.819   8.706  14.193  0.00  0.00    +0.000 HD
ENDBRANCH  18  21
ENDBRANCH   1  19
TORSDOF 6
ENDMDL
MODEL 9
REMARK VINA RESULT:    -6.408      4.482      7.423
REMARK INTER + INTRA:          -9.449
REMARK INTER:                  -8.536
REMARK INTRA:                  -0.913
REMARK UNBOUND:                -0.980
REMARK  Name = 
REMARK  6 active torsions:
REMARK  status: ('A' for Active; 'I' for Inactive)
REMARK    1  A    between atoms: C_2  and  C_19
REMARK    2  A    between atoms: N_3  and  C_4
REMARK    3  A    between atoms: C_4  and  C_5
REMARK    4  A    between atoms: C_8  and  C_9
REMARK    5  A    between atoms: C_9  and  O_10
REMARK    6  A    between atoms: C_9  and  C_11
REMARK                            x       y       z     vdW  Elec       q    Type
REMARK                         _______ _______ _______ _____ _____    ______ ____
ROOT
ATOM      1  C   UNL     1      46.654   8.226  13.027  0.00  0.00    +0.000 C 
ENDROOT
BRANCH   1   2
ATOM      2  C   UNL     1      48.025   8.402  12.440  0.00  0.00    +0.000 A 
ATOM      3  C   UNL     1      48.452   9.627  11.921  0.00  0.00    +0.000 A 
ATOM      4  C   UNL     1      49.724   9.743  11.364  0.00  0.00    +0.000 A 
ATOM      5  C   UNL     1      50.555   8.628  11.353  0.00  0.00    +0.000 A 
ATOM      6  N   UNL     1      50.164   7.422  11.851  0.00  0.00    +0.000 NA
ATOM      7  C   UNL     1      48.922   7.342  12.387  0.00  0.00    +0.000 A 
BRANCH   5   8
ATOM      8  C   UNL     1      51.970   8.710  10.799  0.00  0.00    +0.000 C 
BRANCH   8   9
ATOM      9  C   UNL     1      52.370   7.453   9.992  0.00  0.00    +0.000 C 
ATOM     10  C   UNL     1      53.655   6.824  10.564  0.00  0.00    +0.000 C 
ATOM     11  C   UNL     1      54.104   5.631   9.730  0.00  0.00    +0.000 C 
ATOM     12  O   UNL     1      54.288   6.001   8.366  0.00  0.00    +0.000 OA
ATOM     13  C   UNL     1      53.086   6.486   7.773  0.00  0.00    +0.000 C 
ATOM     14  C   UNL     1      52.584   7.730   8.492  0.00  0.00    +0.000 C 
ENDBRANCH   8   9
BRANCH   8  15
ATOM     15  O   UNL     1      52.093   9.871   9.973  0.00  0.00    +0.000 OA
ATOM     16  H   UNL     1      51.792  10.613  10.541  0.00  0.00    +0.000 HD
ENDBRANCH   8  15
ENDBRANCH   5   8
ENDBRANCH   1   2
BRANCH   1  19
ATOM     17  O   UNL     1      44.605   7.686  11.146  0.00  0.00    +0.000 OA
ATOM     18  C   UNL     1      45.105   6.758  11.769  0.00  0.00    +0.000 C 
ATOM     19  N   UNL     1      46.079   6.943  12.716  0.00  0.00    +0.000 N 
ATOM     20  H   UNL     1      46.558   6.138  13.098  0.00  0.00    +0.000 HD
BRANCH  18  21
ATOM     21  C   UNL     1      44.665   5.371  11.580  0.00  0.00    +0.000 A 
ATOM     22  C   UNL     1      43.941   4.718  12.571  0.00  0.00    +0.000 A 
ATOM     23  S   UNL     1      43.527   3.112  12.162  0.00  0.00    +0.000 S 
ATOM     24  C   UNL     1      44.270   3.247  10.639  0.00  0.00    +0.000 A 
ATOM     25  N   UNL     1      44.257   2.213   9.753  0.00  0.00    +0.000 NA
ATOM     26  C   UNL     1      44.828   2.468   8.623  0.00  0.00    +0.000 A 
ATOM     27  N   UNL     1      45.420   3.661   8.300  0.00  0.00    +0.000 N 
ATOM     28  C   UNL     1      45.527   4.699   9.184  0.00  0.00    +0.000 A 
ATOM     29  O   UNL     1      46.190   5.697   8.911  0.00  0.00    +0.000 OA
ATOM     30  C   UNL     1      44.852   4.487  10.455  0.00  0.00    +0.000 A 
ATOM     31  H   UNL     1      45.889   3.784   7.414  0.00  0.00    +0.000 HD
ENDBRANCH  18  21
ENDBRANCH   1  19
TORSDOF 6
ENDMDL
