MODEL 1
REMARK VINA RESULT:    -8.581      0.000      0.000
REMARK INTER + INTRA:         -12.835
REMARK INTER:                 -11.842
REMARK INTRA:                  -0.993
REMARK UNBOUND:                -0.993
REMARK  Name = 
REMARK  7 active torsions:
REMARK  status: ('A' for Active; 'I' for Inactive)
REMARK    1  A    between atoms: C_2  and  C_21
REMARK    2  A    between atoms: N_3  and  C_4
REMARK    3  A    between atoms: C_4  and  C_5
REMARK    4  A    between atoms: C_8  and  C_9
REMARK    5  A    between atoms: C_9  and  O_10
REMARK    6  A    between atoms: C_9  and  C_11
REMARK    7  A    between atoms: C_11  and  N_12
REMARK                            x       y       z     vdW  Elec       q    Type
REMARK                         _______ _______ _______ _____ _____    ______ ____
ROOT
ATOM      1  C   UNL     1      47.382   6.272  13.058  0.00  0.00    +0.000 A 
ATOM      2  C   UNL     1      46.630   5.251  13.658  0.00  0.00    +0.000 A 
ATOM      3  C   UNL     1      45.453   4.785  13.054  0.00  0.00    +0.000 A 
ATOM      4  C   UNL     1      45.003   5.321  11.835  0.00  0.00    +0.000 A 
ATOM      5  C   UNL     1      45.789   6.312  11.228  0.00  0.00    +0.000 A 
ATOM      6  C   UNL     1      46.962   6.775  11.826  0.00  0.00    +0.000 A 
ENDROOT
BRANCH   1   7
ATOM      7  C   UNL     1      48.670   6.786  13.663  0.00  0.00    +0.000 C 
BRANCH   7  10
ATOM      8  O   UNL     1      50.450   6.417  15.881  0.00  0.00    +0.000 OA
ATOM      9  C   UNL     1      49.307   6.824  16.047  0.00  0.00    +0.000 C 
ATOM     10  N   UNL     1      48.436   7.154  15.035  0.00  0.00    +0.000 N 
ATOM     11  H   UNL     1      47.467   7.281  15.278  0.00  0.00    +0.000 HD
BRANCH   9  12
ATOM     12  C   UNL     1      48.636   6.817  17.346  0.00  0.00    +0.000 A 
ATOM     13  C   UNL     1      48.242   7.975  17.994  0.00  0.00    +0.000 A 
ATOM     14  S   UNL     1      48.008   7.710  19.673  0.00  0.00    +0.000 S 
ATOM     15  C   UNL     1      48.305   6.038  19.512  0.00  0.00    +0.000 A 
ATOM     16  N   UNL     1      48.418   5.205  20.581  0.00  0.00    +0.000 NA
ATOM     17  C   UNL     1      48.597   3.963  20.269  0.00  0.00    +0.000 A 
ATOM     18  N   UNL     1      48.620   3.467  18.987  0.00  0.00    +0.000 N 
ATOM     19  C   UNL     1      48.495   4.266  17.875  0.00  0.00    +0.000 A 
ATOM     20  O   UNL     1      48.440   3.803  16.745  0.00  0.00    +0.000 OA
ATOM     21  C   UNL     1      48.426   5.679  18.187  0.00  0.00    +0.000 A 
ATOM     22  H   UNL     1      48.677   2.476  18.812  0.00  0.00    +0.000 HD
ENDBRANCH   9  12
ENDBRANCH   7  10
ENDBRANCH   1   7
BRANCH   4  23
ATOM     23  C   UNL     1      43.696   4.818  11.234  0.00  0.00    +0.000 C 
BRANCH  23  24
ATOM     24  O   UNL     1      43.065   5.905  10.537  0.00  0.00    +0.000 OA
ATOM     25  H   UNL     1      42.121   5.881  10.767  0.00  0.00    +0.000 HD
ENDBRANCH  23  24
BRANCH  23  26
ATOM     26  C   UNL     1      43.863   3.632  10.253  0.00  0.00    +0.000 C 
BRANCH  26  27
ATOM     27  N   UNL     1      44.137   4.076   8.888  0.00  0.00    +0.000 N 
ATOM     28  C   UNL     1      45.181   3.361   8.308  0.00  0.00    +0.000 A 
ATOM     29  N   UNL     1      45.354   2.066   8.617  0.00  0.00    +0.000 NA
ATOM     30  C   UNL     1      46.379   1.421   8.033  0.00  0.00    +0.000 A 
ATOM     31  C   UNL     1      47.242   2.021   7.155  0.00  0.00    +0.000 A 
ATOM     32  C   UNL     1      46.990   3.346   6.905  0.00  0.00    +0.000 A 
ATOM     33  N   UNL     1      45.978   4.037   7.469  0.00  0.00    +0.000 NA
ATOM     34  H   UNL     1      44.363   5.062   8.807  0.00  0.00    +0.000 HD
ENDBRANCH  26  27
ENDBRANCH  23  26
ENDBRANCH   4  23
TORSDOF 7
ENDMDL
MODEL 2
REMARK VINA RESULT:    -8.579      1.796      2.108
REMARK INTER + INTRA:         -12.832
REMARK INTER:                 -11.824
REMARK INTRA:                  -1.008
REMARK UNBOUND:                -0.993
REMARK  Name = 
REMARK  7 active torsions:
REMARK  status: ('A' for Active; 'I' for Inactive)
REMARK    1  A    between atoms: C_2  and  C_21
REMARK    2  A    between atoms: N_3  and  C_4
REMARK    3  A    between atoms: C_4  and  C_5
REMARK    4  A    between atoms: C_8  and  C_9
REMARK    5  A    between atoms: C_9  and  O_10
REMARK    6  A    between atoms: C_9  and  C_11
REMARK    7  A    between atoms: C_11  and  N_12
REMARK                            x       y       z     vdW  Elec       q    Type
REMARK                         _______ _______ _______ _____ _____    ______ ____
ROOT
ATOM      1  C   UNL     1      46.876   6.836  13.255  0.00  0.00    +0.000 A 
ATOM      2  C   UNL     1      45.937   7.623  12.573  0.00  0.00    +0.000 A 
ATOM      3  C   UNL     1      44.825   7.031  11.956  0.00  0.00    +0.000 A 
ATOM      4  C   UNL     1      44.620   5.643  12.012  0.00  0.00    +0.000 A 
ATOM      5  C   UNL     1      45.546   4.874  12.734  0.00  0.00    +0.000 A 
ATOM      6  C   UNL     1      46.652   5.461  13.351  0.00  0.00    +0.000 A 
ENDROOT
BRANCH   1   7
ATOM      7  C   UNL     1      48.076   7.435  13.955  0.00  0.00    +0.000 C 
BRANCH   7  10
ATOM      8  O   UNL     1      48.539   8.196  16.681  0.00  0.00    +0.000 OA
ATOM      9  C   UNL     1      48.784   7.061  16.289  0.00  0.00    +0.000 C 
ATOM     10  N   UNL     1      48.469   6.577  15.041  0.00  0.00    +0.000 N 
ATOM     11  H   UNL     1      48.894   5.708  14.759  0.00  0.00    +0.000 HD
BRANCH   9  12
ATOM     12  C   UNL     1      49.634   6.128  17.025  0.00  0.00    +0.000 A 
ATOM     13  C   UNL     1      50.855   6.490  17.566  0.00  0.00    +0.000 A 
ATOM     14  S   UNL     1      51.845   5.120  17.864  0.00  0.00    +0.000 S 
ATOM     15  C   UNL     1      50.605   4.048  17.395  0.00  0.00    +0.000 A 
ATOM     16  N   UNL     1      50.804   2.709  17.258  0.00  0.00    +0.000 NA
ATOM     17  C   UNL     1      49.741   2.045  16.941  0.00  0.00    +0.000 A 
ATOM     18  N   UNL     1      48.485   2.586  16.800  0.00  0.00    +0.000 N 
ATOM     19  C   UNL     1      48.231   3.929  16.943  0.00  0.00    +0.000 A 
ATOM     20  O   UNL     1      47.098   4.385  16.890  0.00  0.00    +0.000 OA
ATOM     21  C   UNL     1      49.424   4.719  17.168  0.00  0.00    +0.000 A 
ATOM     22  H   UNL     1      47.681   2.001  16.636  0.00  0.00    +0.000 HD
ENDBRANCH   9  12
ENDBRANCH   7  10
ENDBRANCH   1   7
BRANCH   4  23
ATOM     23  C   UNL     1      43.423   5.033  11.291  0.00  0.00    +0.000 C 
BRANCH  23  24
ATOM     24  O   UNL     1      42.758   6.069  10.552  0.00  0.00    +0.000 OA
ATOM     25  H   UNL     1      42.549   5.705   9.675  0.00  0.00    +0.000 HD
ENDBRANCH  23  24
BRANCH  23  26
ATOM     26  C   UNL     1      43.785   3.885  10.317  0.00  0.00    +0.000 C 
BRANCH  26  27
ATOM     27  N   UNL     1      44.113   4.376   8.981  0.00  0.00    +0.000 N 
ATOM     28  C   UNL     1      45.135   3.636   8.391  0.00  0.00    +0.000 A 
ATOM     29  N   UNL     1      45.237   2.322   8.644  0.00  0.00    +0.000 NA
ATOM     30  C   UNL     1      46.243   1.654   8.053  0.00  0.00    +0.000 A 
ATOM     31  C   UNL     1      47.155   2.249   7.222  0.00  0.00    +0.000 A 
ATOM     32  C   UNL     1      46.974   3.595   7.028  0.00  0.00    +0.000 A 
ATOM     33  N   UNL     1      45.983   4.308   7.601  0.00  0.00    +0.000 NA
ATOM     34  H   UNL     1      44.388   5.352   8.949  0.00  0.00    +0.000 HD
ENDBRANCH  26  27
ENDBRANCH  23  26
ENDBRANCH   4  23
TORSDOF 7
ENDMDL
MODEL 3
REMARK VINA RESULT:    -8.190      1.352      2.116
REMARK INTER + INTRA:         -12.295
REMARK INTER:                 -11.404
REMARK INTRA:                  -0.891
REMARK UNBOUND:                -0.993
REMARK  Name = 
REMARK  7 active torsions:
REMARK  status: ('A' for Active; 'I' for Inactive)
REMARK    1  A    between atoms: C_2  and  C_21
REMARK    2  A    between atoms: N_3  and  C_4
REMARK    3  A    between atoms: C_4  and  C_5
REMARK    4  A    between atoms: C_8  and  C_9
REMARK    5  A    between atoms: C_9  and  O_10
REMARK    6  A    between atoms: C_9  and  C_11
REMARK    7  A    between atoms: C_11  and  N_12
REMARK                            x       y       z     vdW  Elec       q    Type
REMARK                         _______ _______ _______ _____ _____    ______ ____
ROOT
ATOM      1  C   UNL     1      47.222   6.234  12.947  0.00  0.00    +0.000 A 
ATOM      2  C   UNL     1      46.818   6.618  11.660  0.00  0.00    +0.000 A 
ATOM      3  C   UNL     1      45.700   6.022  11.058  0.00  0.00    +0.000 A 
ATOM      4  C   UNL     1      44.956   5.036  11.728  0.00  0.00    +0.000 A 
ATOM      5  C   UNL     1      45.349   4.694  13.031  0.00  0.00    +0.000 A 
ATOM      6  C   UNL     1      46.459   5.287  13.633  0.00  0.00    +0.000 A 
ENDROOT
BRANCH   1   7
ATOM      7  C   UNL     1      48.406   6.868  13.643  0.00  0.00    +0.000 C 
BRANCH   7  10
ATOM      8  O   UNL     1      50.481   7.170  15.600  0.00  0.00    +0.000 OA
ATOM      9  C   UNL     1      49.394   6.692  15.899  0.00  0.00    +0.000 C 
ATOM     10  N   UNL     1      48.305   6.635  15.060  0.00  0.00    +0.000 N 
ATOM     11  H   UNL     1      47.536   6.046  15.336  0.00  0.00    +0.000 HD
BRANCH   9  12
ATOM     12  C   UNL     1      49.165   5.926  17.122  0.00  0.00    +0.000 A 
ATOM     13  C   UNL     1      49.062   4.546  17.137  0.00  0.00    +0.000 A 
ATOM     14  S   UNL     1      48.265   3.987  18.550  0.00  0.00    +0.000 S 
ATOM     15  C   UNL     1      48.175   5.564  19.195  0.00  0.00    +0.000 A 
ATOM     16  N   UNL     1      47.478   5.857  20.326  0.00  0.00    +0.000 NA
ATOM     17  C   UNL     1      47.558   7.094  20.692  0.00  0.00    +0.000 A 
ATOM     18  N   UNL     1      48.315   8.055  20.065  0.00  0.00    +0.000 N 
ATOM     19  C   UNL     1      49.048   7.805  18.930  0.00  0.00    +0.000 A 
ATOM     20  O   UNL     1      49.776   8.649  18.427  0.00  0.00    +0.000 OA
ATOM     21  C   UNL     1      48.873   6.461  18.417  0.00  0.00    +0.000 A 
ATOM     22  H   UNL     1      48.404   8.983  20.451  0.00  0.00    +0.000 HD
ENDBRANCH   9  12
ENDBRANCH   7  10
ENDBRANCH   1   7
BRANCH   4  23
ATOM     23  C   UNL     1      43.774   4.381  11.021  0.00  0.00    +0.000 C 
BRANCH  23  24
ATOM     24  O   UNL     1      43.093   5.381  10.246  0.00  0.00    +0.000 OA
ATOM     25  H   UNL     1      42.558   5.906  10.865  0.00  0.00    +0.000 HD
ENDBRANCH  23  24
BRANCH  23  26
ATOM     26  C   UNL     1      44.163   3.210  10.086  0.00  0.00    +0.000 C 
BRANCH  26  27
ATOM     27  N   UNL     1      44.317   3.637   8.698  0.00  0.00    +0.000 N 
ATOM     28  C   UNL     1      45.398   3.016   8.079  0.00  0.00    +0.000 A 
ATOM     29  N   UNL     1      45.723   1.756   8.411  0.00  0.00    +0.000 NA
ATOM     30  C   UNL     1      46.777   1.203   7.788  0.00  0.00    +0.000 A 
ATOM     31  C   UNL     1      47.525   1.861   6.847  0.00  0.00    +0.000 A 
ATOM     32  C   UNL     1      47.123   3.145   6.578  0.00  0.00    +0.000 A 
ATOM     33  N   UNL     1      46.075   3.744   7.180  0.00  0.00    +0.000 NA
ATOM     34  H   UNL     1      44.433   4.638   8.578  0.00  0.00    +0.000 HD
ENDBRANCH  26  27
ENDBRANCH  23  26
ENDBRANCH   4  23
TORSDOF 7
ENDMDL
MODEL 4
REMARK VINA RESULT:    -7.783      1.637      2.188
REMARK INTER + INTRA:         -11.734
REMARK INTER:                 -10.673
REMARK INTRA:                  -1.061
REMARK UNBOUND:                -0.993
REMARK  Name = 
REMARK  7 active torsions:
REMARK  status: ('A' for Active; 'I' for Inactive)
REMARK    1  A    between atoms: C_2  and  C_21
REMARK    2  A    between atoms: N_3  and  C_4
REMARK    3  A    between atoms: C_4  and  C_5
REMARK    4  A    between atoms: C_8  and  C_9
REMARK    5  A    between atoms: C_9  and  O_10
REMARK    6  A    between atoms: C_9  and  C_11
REMARK    7  A    between atoms: C_11  and  N_12
REMARK                            x       y       z     vdW  Elec       q    Type
REMARK                         _______ _______ _______ _____ _____    ______ ____
ROOT
ATOM      1  C   UNL     1      46.359   7.352  12.667  0.00  0.00    +0.000 A 
ATOM      2  C   UNL     1      45.237   7.575  11.857  0.00  0.00    +0.000 A 
ATOM      3  C   UNL     1      44.375   6.519  11.528  0.00  0.00    +0.000 A 
ATOM      4  C   UNL     1      44.607   5.218  12.005  0.00  0.00    +0.000 A 
ATOM      5  C   UNL     1      45.711   5.020  12.849  0.00  0.00    +0.000 A 
ATOM      6  C   UNL     1      46.569   6.070  13.180  0.00  0.00    +0.000 A 
ENDROOT
BRANCH   1   7
ATOM      7  C   UNL     1      47.300   8.467  13.067  0.00  0.00    +0.000 C 
BRANCH   7  10
ATOM      8  O   UNL     1      49.313   9.665  14.722  0.00  0.00    +0.000 OA
ATOM      9  C   UNL     1      48.339   9.107  15.212  0.00  0.00    +0.000 C 
ATOM     10  N   UNL     1      47.267   8.626  14.497  0.00  0.00    +0.000 N 
ATOM     11  H   UNL     1      46.628   8.012  14.975  0.00  0.00    +0.000 HD
BRANCH   9  12
ATOM     12  C   UNL     1      48.278   8.688  16.611  0.00  0.00    +0.000 A 
ATOM     13  C   UNL     1      47.790   9.501  17.619  0.00  0.00    +0.000 A 
ATOM     14  S   UNL     1      48.340   8.993  19.163  0.00  0.00    +0.000 S 
ATOM     15  C   UNL     1      49.116   7.625  18.502  0.00  0.00    +0.000 A 
ATOM     16  N   UNL     1      49.922   6.811  19.236  0.00  0.00    +0.000 NA
ATOM     17  C   UNL     1      50.388   5.798  18.583  0.00  0.00    +0.000 A 
ATOM     18  N   UNL     1      50.081   5.491  17.278  0.00  0.00    +0.000 N 
ATOM     19  C   UNL     1      49.260   6.272  16.501  0.00  0.00    +0.000 A 
ATOM     20  O   UNL     1      48.934   5.947  15.369  0.00  0.00    +0.000 OA
ATOM     21  C   UNL     1      48.827   7.487  17.162  0.00  0.00    +0.000 A 
ATOM     22  H   UNL     1      50.409   4.638  16.852  0.00  0.00    +0.000 HD
ENDBRANCH   9  12
ENDBRANCH   7  10
ENDBRANCH   1   7
BRANCH   4  23
ATOM     23  C   UNL     1      43.672   4.089  11.588  0.00  0.00    +0.000 C 
BRANCH  23  24
ATOM     24  O   UNL     1      42.319   4.566  11.659  0.00  0.00    +0.000 OA
ATOM     25  H   UNL     1      41.770   3.940  11.156  0.00  0.00    +0.000 HD
ENDBRANCH  23  24
BRANCH  23  26
ATOM     26  C   UNL     1      43.931   3.545  10.162  0.00  0.00    +0.000 C 
BRANCH  26  27
ATOM     27  N   UNL     1      44.985   2.534  10.138  0.00  0.00    +0.000 N 
ATOM     28  C   UNL     1      45.666   2.522   8.924  0.00  0.00    +0.000 A 
ATOM     29  N   UNL     1      45.851   3.669   8.252  0.00  0.00    +0.000 NA
ATOM     30  C   UNL     1      46.511   3.603   7.083  0.00  0.00    +0.000 A 
ATOM     31  C   UNL     1      46.992   2.434   6.556  0.00  0.00    +0.000 A 
ATOM     32  C   UNL     1      46.751   1.313   7.309  0.00  0.00    +0.000 A 
ATOM     33  N   UNL     1      46.089   1.328   8.485  0.00  0.00    +0.000 NA
ATOM     34  H   UNL     1      44.662   1.588  10.313  0.00  0.00    +0.000 HD
ENDBRANCH  26  27
ENDBRANCH  23  26
ENDBRANCH   4  23
TORSDOF 7
ENDMDL
MODEL 5
REMARK VINA RESULT:    -7.714      1.698      2.817
REMARK INTER + INTRA:         -11.638
REMARK INTER:                 -10.707
REMARK INTRA:                  -0.932
REMARK UNBOUND:                -0.993
REMARK  Name = 
REMARK  7 active torsions:
REMARK  status: ('A' for Active; 'I' for Inactive)
REMARK    1  A    between atoms: C_2  and  C_21
REMARK    2  A    between atoms: N_3  and  C_4
REMARK    3  A    between atoms: C_4  and  C_5
REMARK    4  A    between atoms: C_8  and  C_9
REMARK    5  A    between atoms: C_9  and  O_10
REMARK    6  A    between atoms: C_9  and  C_11
REMARK    7  A    between atoms: C_11  and  N_12
REMARK                            x       y       z     vdW  Elec       q    Type
REMARK                         _______ _______ _______ _____ _____    ______ ____
ROOT
ATOM      1  C   UNL     1      46.754   4.299  14.310  0.00  0.00    +0.000 A 
ATOM      2  C   UNL     1      46.349   3.289  13.426  0.00  0.00    +0.000 A 
ATOM      3  C   UNL     1      45.663   3.608  12.246  0.00  0.00    +0.000 A 
ATOM      4  C   UNL     1      45.372   4.942  11.915  0.00  0.00    +0.000 A 
ATOM      5  C   UNL     1      45.821   5.944  12.789  0.00  0.00    +0.000 A 
ATOM      6  C   UNL     1      46.506   5.629  13.963  0.00  0.00    +0.000 A 
ENDROOT
BRANCH   1   7
ATOM      7  C   UNL     1      47.518   4.001  15.581  0.00  0.00    +0.000 C 
BRANCH   7  10
ATOM      8  O   UNL     1      49.989   5.095  16.543  0.00  0.00    +0.000 OA
ATOM      9  C   UNL     1      48.913   5.598  16.845  0.00  0.00    +0.000 C 
ATOM     10  N   UNL     1      47.697   5.221  16.324  0.00  0.00    +0.000 N 
ATOM     11  H   UNL     1      46.869   5.557  16.788  0.00  0.00    +0.000 HD
BRANCH   9  12
ATOM     12  C   UNL     1      48.751   6.530  17.959  0.00  0.00    +0.000 A 
ATOM     13  C   UNL     1      48.600   6.114  19.270  0.00  0.00    +0.000 A 
ATOM     14  S   UNL     1      47.894   7.338  20.243  0.00  0.00    +0.000 S 
ATOM     15  C   UNL     1      47.908   8.455  18.954  0.00  0.00    +0.000 A 
ATOM     16  N   UNL     1      47.309   9.674  19.031  0.00  0.00    +0.000 NA
ATOM     17  C   UNL     1      47.461  10.406  17.976  0.00  0.00    +0.000 A 
ATOM     18  N   UNL     1      48.201  10.055  16.872  0.00  0.00    +0.000 N 
ATOM     19  C   UNL     1      48.837   8.843  16.754  0.00  0.00    +0.000 A 
ATOM     20  O   UNL     1      49.554   8.575  15.800  0.00  0.00    +0.000 OA
ATOM     21  C   UNL     1      48.577   7.947  17.862  0.00  0.00    +0.000 A 
ATOM     22  H   UNL     1      48.352  10.707  16.117  0.00  0.00    +0.000 HD
ENDBRANCH   9  12
ENDBRANCH   7  10
ENDBRANCH   1   7
BRANCH   4  23
ATOM     23  C   UNL     1      44.585   5.245  10.645  0.00  0.00    +0.000 C 
BRANCH  23  24
ATOM     24  O   UNL     1      45.416   6.017   9.764  0.00  0.00    +0.000 OA
ATOM     25  H   UNL     1      46.190   6.302  10.280  0.00  0.00    +0.000 HD
ENDBRANCH  23  24
BRANCH  23  26
ATOM     26  C   UNL     1      44.096   3.987   9.886  0.00  0.00    +0.000 C 
BRANCH  26  27
ATOM     27  N   UNL     1      44.283   4.102   8.443  0.00  0.00    +0.000 N 
ATOM     28  C   UNL     1      45.286   3.256   7.978  0.00  0.00    +0.000 A 
ATOM     29  N   UNL     1      45.476   2.063   8.564  0.00  0.00    +0.000 NA
ATOM     30  C   UNL     1      46.459   1.285   8.080  0.00  0.00    +0.000 A 
ATOM     31  C   UNL     1      47.265   1.653   7.036  0.00  0.00    +0.000 A 
ATOM     32  C   UNL     1      47.001   2.891   6.506  0.00  0.00    +0.000 A 
ATOM     33  N   UNL     1      46.029   3.709   6.959  0.00  0.00    +0.000 NA
ATOM     34  H   UNL     1      44.505   5.040   8.123  0.00  0.00    +0.000 HD
ENDBRANCH  26  27
ENDBRANCH  23  26
ENDBRANCH   4  23
TORSDOF 7
ENDMDL
MODEL 6
REMARK VINA RESULT:    -7.598      2.413      3.187
REMARK INTER + INTRA:         -11.478
REMARK INTER:                 -10.641
REMARK INTRA:                  -0.837
REMARK UNBOUND:                -0.993
REMARK  Name = 
REMARK  7 active torsions:
REMARK  status: ('A' for Active; 'I' for Inactive)
REMARK    1  A    between atoms: C_2  and  C_21
REMARK    2  A    between atoms: N_3  and  C_4
REMARK    3  A    between atoms: C_4  and  C_5
REMARK    4  A    between atoms: C_8  and  C_9
REMARK    5  A    between atoms: C_9  and  O_10
REMARK    6  A    between atoms: C_9  and  C_11
REMARK    7  A    between atoms: C_11  and  N_12
REMARK                            x       y       z     vdW  Elec       q    Type
REMARK                         _______ _______ _______ _____ _____    ______ ____
ROOT
ATOM      1  C   UNL     1      45.573   7.310  12.497  0.00  0.00    +0.000 A 
ATOM      2  C   UNL     1      44.490   7.105  11.630  0.00  0.00    +0.000 A 
ATOM      3  C   UNL     1      44.013   5.810  11.381  0.00  0.00    +0.000 A 
ATOM      4  C   UNL     1      44.600   4.691  11.995  0.00  0.00    +0.000 A 
ATOM      5  C   UNL     1      45.656   4.917  12.892  0.00  0.00    +0.000 A 
ATOM      6  C   UNL     1      46.130   6.204  13.143  0.00  0.00    +0.000 A 
ENDROOT
BRANCH   1   7
ATOM      7  C   UNL     1      46.103   8.691  12.813  0.00  0.00    +0.000 C 
BRANCH   7  10
ATOM      8  O   UNL     1      48.932   8.912  13.229  0.00  0.00    +0.000 OA
ATOM      9  C   UNL     1      48.175   8.649  14.155  0.00  0.00    +0.000 C 
ATOM     10  N   UNL     1      46.802   8.655  14.071  0.00  0.00    +0.000 N 
ATOM     11  H   UNL     1      46.288   8.230  14.826  0.00  0.00    +0.000 HD
BRANCH   9  12
ATOM     12  C   UNL     1      48.629   8.086  15.425  0.00  0.00    +0.000 A 
ATOM     13  C   UNL     1      49.037   6.771  15.561  0.00  0.00    +0.000 A 
ATOM     14  S   UNL     1      48.977   6.256  17.196  0.00  0.00    +0.000 S 
ATOM     15  C   UNL     1      48.533   7.814  17.732  0.00  0.00    +0.000 A 
ATOM     16  N   UNL     1      48.166   8.073  19.016  0.00  0.00    +0.000 NA
ATOM     17  C   UNL     1      47.907   9.317  19.253  0.00  0.00    +0.000 A 
ATOM     18  N   UNL     1      48.033  10.337  18.339  0.00  0.00    +0.000 N 
ATOM     19  C   UNL     1      48.415  10.128  17.035  0.00  0.00    +0.000 A 
ATOM     20  O   UNL     1      48.596  11.052  16.255  0.00  0.00    +0.000 OA
ATOM     21  C   UNL     1      48.583   8.728  16.703  0.00  0.00    +0.000 A 
ATOM     22  H   UNL     1      47.899  11.299  18.610  0.00  0.00    +0.000 HD
ENDBRANCH   9  12
ENDBRANCH   7  10
ENDBRANCH   1   7
BRANCH   4  23
ATOM     23  C   UNL     1      44.081   3.296  11.663  0.00  0.00    +0.000 C 
BRANCH  23  24
ATOM     24  O   UNL     1      42.701   3.401  11.278  0.00  0.00    +0.000 OA
ATOM     25  H   UNL     1      42.607   2.939  10.428  0.00  0.00    +0.000 HD
ENDBRANCH  23  24
BRANCH  23  26
ATOM     26  C   UNL     1      44.858   2.583  10.530  0.00  0.00    +0.000 C 
BRANCH  26  27
ATOM     27  N   UNL     1      44.556   3.141   9.215  0.00  0.00    +0.000 N 
ATOM     28  C   UNL     1      45.507   2.780   8.265  0.00  0.00    +0.000 A 
ATOM     29  N   UNL     1      46.100   1.578   8.339  0.00  0.00    +0.000 NA
ATOM     30  C   UNL     1      47.014   1.279   7.400  0.00  0.00    +0.000 A 
ATOM     31  C   UNL     1      47.364   2.136   6.391  0.00  0.00    +0.000 A 
ATOM     32  C   UNL     1      46.710   3.342   6.399  0.00  0.00    +0.000 A 
ATOM     33  N   UNL     1      45.789   3.689   7.322  0.00  0.00    +0.000 NA
ATOM     34  H   UNL     1      44.479   4.153   9.197  0.00  0.00    +0.000 HD
ENDBRANCH  26  27
ENDBRANCH  23  26
ENDBRANCH   4  23
TORSDOF 7
ENDMDL
MODEL 7
REMARK VINA RESULT:    -7.169      5.149      7.286
REMARK INTER + INTRA:         -10.886
REMARK INTER:                  -9.956
REMARK INTRA:                  -0.931
REMARK UNBOUND:                -0.993
REMARK  Name = 
REMARK  7 active torsions:
REMARK  status: ('A' for Active; 'I' for Inactive)
REMARK    1  A    between atoms: C_2  and  C_21
REMARK    2  A    between atoms: N_3  and  C_4
REMARK    3  A    between atoms: C_4  and  C_5
REMARK    4  A    between atoms: C_8  and  C_9
REMARK    5  A    between atoms: C_9  and  O_10
REMARK    6  A    between atoms: C_9  and  C_11
REMARK    7  A    between atoms: C_11  and  N_12
REMARK                            x       y       z     vdW  Elec       q    Type
REMARK                         _______ _______ _______ _____ _____    ______ ____
ROOT
ATOM      1  C   UNL     1      49.047   8.152  12.178  0.00  0.00    +0.000 A 
ATOM      2  C   UNL     1      47.946   9.019  12.128  0.00  0.00    +0.000 A 
ATOM      3  C   UNL     1      46.639   8.513  12.162  0.00  0.00    +0.000 A 
ATOM      4  C   UNL     1      46.399   7.131  12.253  0.00  0.00    +0.000 A 
ATOM      5  C   UNL     1      47.511   6.280  12.344  0.00  0.00    +0.000 A 
ATOM      6  C   UNL     1      48.813   6.782  12.313  0.00  0.00    +0.000 A 
ENDROOT
BRANCH   1   7
ATOM      7  C   UNL     1      50.473   8.657  12.169  0.00  0.00    +0.000 C 
BRANCH   7  10
ATOM      8  O   UNL     1      53.285   8.179  11.866  0.00  0.00    +0.000 OA
ATOM      9  C   UNL     1      52.518   8.074  10.916  0.00  0.00    +0.000 C 
ATOM     10  N   UNL     1      51.148   8.154  11.001  0.00  0.00    +0.000 N 
ATOM     11  H   UNL     1      50.634   8.256  10.141  0.00  0.00    +0.000 HD
BRANCH   9  12
ATOM     12  C   UNL     1      52.966   8.056   9.525  0.00  0.00    +0.000 A 
ATOM     13  C   UNL     1      52.897   9.164   8.699  0.00  0.00    +0.000 A 
ATOM     14  S   UNL     1      52.956   8.722   7.042  0.00  0.00    +0.000 S 
ATOM     15  C   UNL     1      53.202   7.079   7.428  0.00  0.00    +0.000 A 
ATOM     16  N   UNL     1      53.192   6.094   6.490  0.00  0.00    +0.000 NA
ATOM     17  C   UNL     1      53.441   4.915   6.957  0.00  0.00    +0.000 A 
ATOM     18  N   UNL     1      53.753   4.634   8.267  0.00  0.00    +0.000 N 
ATOM     19  C   UNL     1      53.791   5.596   9.247  0.00  0.00    +0.000 A 
ATOM     20  O   UNL     1      54.143   5.344  10.391  0.00  0.00    +0.000 OA
ATOM     21  C   UNL     1      53.386   6.907   8.783  0.00  0.00    +0.000 A 
ATOM     22  H   UNL     1      54.023   3.704   8.550  0.00  0.00    +0.000 HD
ENDBRANCH   9  12
ENDBRANCH   7  10
ENDBRANCH   1   7
BRANCH   4  23
ATOM     23  C   UNL     1      44.963   6.618  12.242  0.00  0.00    +0.000 C 
BRANCH  23  24
ATOM     24  O   UNL     1      44.117   7.638  11.690  0.00  0.00    +0.000 OA
ATOM     25  H   UNL     1      44.023   7.447  10.741  0.00  0.00    +0.000 HD
ENDBRANCH  23  24
BRANCH  23  26
ATOM     26  C   UNL     1      44.762   5.315  11.430  0.00  0.00    +0.000 C 
BRANCH  26  27
ATOM     27  N   UNL     1      44.761   5.554   9.990  0.00  0.00    +0.000 N 
ATOM     28  C   UNL     1      45.200   4.442   9.277  0.00  0.00    +0.000 A 
ATOM     29  N   UNL     1      44.925   3.209   9.731  0.00  0.00    +0.000 NA
ATOM     30  C   UNL     1      45.375   2.169   9.008  0.00  0.00    +0.000 A 
ATOM     31  C   UNL     1      46.093   2.311   7.850  0.00  0.00    +0.000 A 
ATOM     32  C   UNL     1      46.330   3.607   7.469  0.00  0.00    +0.000 A 
ATOM     33  N   UNL     1      45.904   4.683   8.162  0.00  0.00    +0.000 NA
ATOM     34  H   UNL     1      45.326   6.345   9.696  0.00  0.00    +0.000 HD
ENDBRANCH  26  27
ENDBRANCH  23  26
ENDBRANCH   4  23
TORSDOF 7
ENDMDL
MODEL 8
REMARK VINA RESULT:    -7.122      4.749      9.356
REMARK INTER + INTRA:         -10.821
REMARK INTER:                  -9.724
REMARK INTRA:                  -1.097
REMARK UNBOUND:                -0.993
REMARK  Name = 
REMARK  7 active torsions:
REMARK  status: ('A' for Active; 'I' for Inactive)
REMARK    1  A    between atoms: C_2  and  C_21
REMARK    2  A    between atoms: N_3  and  C_4
REMARK    3  A    between atoms: C_4  and  C_5
REMARK    4  A    between atoms: C_8  and  C_9
REMARK    5  A    between atoms: C_9  and  O_10
REMARK    6  A    between atoms: C_9  and  C_11
REMARK    7  A    between atoms: C_11  and  N_12
REMARK                            x       y       z     vdW  Elec       q    Type
REMARK                         _______ _______ _______ _____ _____    ______ ____
ROOT
ATOM      1  C   UNL     1      49.547   5.157  17.143  0.00  0.00    +0.000 A 
ATOM      2  C   UNL     1      50.919   5.276  17.405  0.00  0.00    +0.000 A 
ATOM      3  C   UNL     1      51.700   4.137  17.648  0.00  0.00    +0.000 A 
ATOM      4  C   UNL     1      51.131   2.852  17.629  0.00  0.00    +0.000 A 
ATOM      5  C   UNL     1      49.765   2.747  17.324  0.00  0.00    +0.000 A 
ATOM      6  C   UNL     1      48.987   3.879  17.079  0.00  0.00    +0.000 A 
ENDROOT
BRANCH   1   7
ATOM      7  C   UNL     1      48.674   6.357  16.851  0.00  0.00    +0.000 C 
BRANCH   7  10
ATOM      8  O   UNL     1      49.525   6.867  14.160  0.00  0.00    +0.000 OA
ATOM      9  C   UNL     1      48.379   6.510  14.405  0.00  0.00    +0.000 C 
ATOM     10  N   UNL     1      47.927   6.119  15.644  0.00  0.00    +0.000 N 
ATOM     11  H   UNL     1      46.931   6.042  15.772  0.00  0.00    +0.000 HD
BRANCH   9  12
ATOM     12  C   UNL     1      47.277   6.651  13.455  0.00  0.00    +0.000 A 
ATOM     13  C   UNL     1      46.966   7.850  12.838  0.00  0.00    +0.000 A 
ATOM     14  S   UNL     1      45.357   7.856  12.242  0.00  0.00    +0.000 S 
ATOM     15  C   UNL     1      45.122   6.227  12.692  0.00  0.00    +0.000 A 
ATOM     16  N   UNL     1      43.912   5.611  12.616  0.00  0.00    +0.000 NA
ATOM     17  C   UNL     1      43.930   4.363  12.954  0.00  0.00    +0.000 A 
ATOM     18  N   UNL     1      45.056   3.658  13.308  0.00  0.00    +0.000 N 
ATOM     19  C   UNL     1      46.303   4.232  13.384  0.00  0.00    +0.000 A 
ATOM     20  O   UNL     1      47.306   3.576  13.627  0.00  0.00    +0.000 OA
ATOM     21  C   UNL     1      46.294   5.660  13.141  0.00  0.00    +0.000 A 
ATOM     22  H   UNL     1      45.018   2.665  13.477  0.00  0.00    +0.000 HD
ENDBRANCH   9  12
ENDBRANCH   7  10
ENDBRANCH   1   7
BRANCH   4  23
ATOM     23  C   UNL     1      52.004   1.642  17.942  0.00  0.00    +0.000 C 
BRANCH  23  24
ATOM     24  O   UNL     1      51.736   0.620  16.969  0.00  0.00    +0.000 OA
ATOM     25  H   UNL     1      50.980   0.923  16.438  0.00  0.00    +0.000 HD
ENDBRANCH  23  24
BRANCH  23  26
ATOM     26  C   UNL     1      53.524   1.938  17.942  0.00  0.00    +0.000 C 
BRANCH  26  27
ATOM     27  N   UNL     1      54.226   1.230  19.009  0.00  0.00    +0.000 N 
ATOM     28  C   UNL     1      54.501  -0.090  18.664  0.00  0.00    +0.000 A 
ATOM     29  N   UNL     1      54.774  -0.402  17.387  0.00  0.00    +0.000 NA
ATOM     30  C   UNL     1      55.029  -1.692  17.105  0.00  0.00    +0.000 A 
ATOM     31  C   UNL     1      55.017  -2.685  18.048  0.00  0.00    +0.000 A 
ATOM     32  C   UNL     1      54.722  -2.272  19.323  0.00  0.00    +0.000 A 
ATOM     33  N   UNL     1      54.456  -0.992  19.654  0.00  0.00    +0.000 NA
ATOM     34  H   UNL     1      53.735   1.215  19.896  0.00  0.00    +0.000 HD
ENDBRANCH  26  27
ENDBRANCH  23  26
ENDBRANCH   4  23
TORSDOF 7
ENDMDL
MODEL 9
REMARK VINA RESULT:    -6.851      3.300      8.397
REMARK INTER + INTRA:         -10.448
REMARK INTER:                  -9.019
REMARK INTRA:                  -1.429
REMARK UNBOUND:                -0.993
REMARK  Name = 
REMARK  7 active torsions:
REMARK  status: ('A' for Active; 'I' for Inactive)
REMARK    1  A    between atoms: C_2  and  C_21
REMARK    2  A    between atoms: N_3  and  C_4
REMARK    3  A    between atoms: C_4  and  C_5
REMARK    4  A    between atoms: C_8  and  C_9
REMARK    5  A    between atoms: C_9  and  O_10
REMARK    6  A    between atoms: C_9  and  C_11
REMARK    7  A    between atoms: C_11  and  N_12
REMARK                            x       y       z     vdW  Elec       q    Type
REMARK                         _______ _______ _______ _____ _____    ______ ____
ROOT
ATOM      1  C   UNL     1      47.714   8.208  14.028  0.00  0.00    +0.000 A 
ATOM      2  C   UNL     1      48.622   7.163  13.802  0.00  0.00    +0.000 A 
ATOM      3  C   UNL     1      49.720   6.977  14.653  0.00  0.00    +0.000 A 
ATOM      4  C   UNL     1      49.935   7.824  15.754  0.00  0.00    +0.000 A 
ATOM      5  C   UNL     1      48.995   8.839  15.991  0.00  0.00    +0.000 A 
ATOM      6  C   UNL     1      47.900   9.024  15.146  0.00  0.00    +0.000 A 
ENDROOT
BRANCH   1   7
ATOM      7  C   UNL     1      46.503   8.429  13.150  0.00  0.00    +0.000 C 
BRANCH   7  10
ATOM      8  O   UNL     1      44.431   7.992  11.215  0.00  0.00    +0.000 OA
ATOM      9  C   UNL     1      45.376   7.219  11.317  0.00  0.00    +0.000 C 
ATOM     10  N   UNL     1      46.473   7.423  12.120  0.00  0.00    +0.000 N 
ATOM     11  H   UNL     1      47.085   6.639  12.280  0.00  0.00    +0.000 HD
BRANCH   9  12
ATOM     12  C   UNL     1      45.370   5.870  10.755  0.00  0.00    +0.000 A 
ATOM     13  C   UNL     1      45.731   5.599   9.447  0.00  0.00    +0.000 A 
ATOM     14  S   UNL     1      45.113   4.087   8.921  0.00  0.00    +0.000 S 
ATOM     15  C   UNL     1      44.480   3.741  10.466  0.00  0.00    +0.000 A 
ATOM     16  N   UNL     1      43.684   2.665  10.710  0.00  0.00    +0.000 NA
ATOM     17  C   UNL     1      43.335   2.535  11.948  0.00  0.00    +0.000 A 
ATOM     18  N   UNL     1      43.751   3.347  12.976  0.00  0.00    +0.000 N 
ATOM     19  C   UNL     1      44.567   4.436  12.782  0.00  0.00    +0.000 A 
ATOM     20  O   UNL     1      44.991   5.104  13.714  0.00  0.00    +0.000 OA
ATOM     21  C   UNL     1      44.869   4.688  11.388  0.00  0.00    +0.000 A 
ATOM     22  H   UNL     1      43.513   3.141  13.934  0.00  0.00    +0.000 HD
ENDBRANCH   9  12
ENDBRANCH   7  10
ENDBRANCH   1   7
BRANCH   4  23
ATOM     23  C   UNL     1      51.166   7.616  16.630  0.00  0.00    +0.000 C 
BRANCH  23  24
ATOM     24  O   UNL     1      51.236   8.689  17.582  0.00  0.00    +0.000 OA
ATOM     25  H   UNL     1      50.505   8.561  18.210  0.00  0.00    +0.000 HD
ENDBRANCH  23  24
BRANCH  23  26
ATOM     26  C   UNL     1      51.179   6.272  17.398  0.00  0.00    +0.000 C 
BRANCH  26  27
ATOM     27  N   UNL     1      49.949   6.054  18.154  0.00  0.00    +0.000 N 
ATOM     28  C   UNL     1      49.282   4.903  17.745  0.00  0.00    +0.000 A 
ATOM     29  N   UNL     1      49.986   3.838  17.330  0.00  0.00    +0.000 NA
ATOM     30  C   UNL     1      49.296   2.752  16.942  0.00  0.00    +0.000 A 
ATOM     31  C   UNL     1      47.927   2.689  16.948  0.00  0.00    +0.000 A 
ATOM     32  C   UNL     1      47.295   3.826  17.382  0.00  0.00    +0.000 A 
ATOM     33  N   UNL     1      47.943   4.941  17.777  0.00  0.00    +0.000 NA
ATOM     34  H   UNL     1      49.286   6.822  18.106  0.00  0.00    +0.000 HD
ENDBRANCH  26  27
ENDBRANCH  23  26
ENDBRANCH   4  23
TORSDOF 7
ENDMDL
