MODEL 1
REMARK VINA RESULT:    -8.470      0.000      0.000
REMARK INTER + INTRA:         -13.619
REMARK INTER:                 -12.431
REMARK INTRA:                  -1.188
REMARK UNBOUND:                -1.188
REMARK  Name = 
REMARK  10 active torsions:
REMARK  status: ('A' for Active; 'I' for Inactive)
REMARK    1  A    between atoms: C_1  and  O_2
REMARK    2  A    between atoms: O_2  and  C_3
REMARK    3  A    between atoms: C_10  and  C_11
REMARK    4  A    between atoms: N_13  and  C_14
REMARK    5  A    between atoms: C_14  and  C_15
REMARK    6  A    between atoms: C_18  and  C_19
REMARK    7  A    between atoms: C_19  and  N_20
REMARK    8  A    between atoms: N_20  and  C_21
REMARK    9  A    between atoms: C_21  and  C_22
REMARK   10  A    between atoms: C_21  and  C_23
REMARK                            x       y       z     vdW  Elec       q    Type
REMARK                         _______ _______ _______ _____ _____    ______ ____
ROOT
ATOM      1  C   UNL     1      46.295   7.458  12.459  0.00  0.00    +0.000 A 
ATOM      2  C   UNL     1      44.935   7.778  12.356  0.00  0.00    +0.000 A 
ATOM      3  C   UNL     1      44.077   7.002  11.571  0.00  0.00    +0.000 A 
ATOM      4  C   UNL     1      44.556   5.886  10.870  0.00  0.00    +0.000 A 
ATOM      5  C   UNL     1      45.923   5.583  10.951  0.00  0.00    +0.000 A 
ATOM      6  C   UNL     1      46.782   6.359  11.740  0.00  0.00    +0.000 A 
ENDROOT
BRANCH   1   7
ATOM      7  C   UNL     1      47.200   8.252  13.364  0.00  0.00    +0.000 C 
BRANCH   7  10
ATOM      8  C   UNL     1      48.765   6.913  14.696  0.00  0.00    +0.000 C 
ATOM      9  O   UNL     1      49.600   6.977  13.793  0.00  0.00    +0.000 OA
ATOM     10  N   UNL     1      47.540   7.511  14.558  0.00  0.00    +0.000 N 
ATOM     11  H   UNL     1      46.863   7.471  15.307  0.00  0.00    +0.000 HD
BRANCH   8  19
ATOM     12  C   UNL     1      47.325   4.211  16.290  0.00  0.00    +0.000 A 
ATOM     13  N   UNL     1      46.950   3.223  17.129  0.00  0.00    +0.000 NA
ATOM     14  C   UNL     1      47.659   3.046  18.247  0.00  0.00    +0.000 A 
ATOM     15  N   UNL     1      48.720   3.741  18.641  0.00  0.00    +0.000 NA
ATOM     16  C   UNL     1      49.050   4.724  17.785  0.00  0.00    +0.000 A 
ATOM     17  S   UNL     1      50.386   5.711  18.126  0.00  0.00    +0.000 S 
ATOM     18  C   UNL     1      50.144   6.611  16.706  0.00  0.00    +0.000 A 
ATOM     19  C   UNL     1      49.058   6.190  15.947  0.00  0.00    +0.000 A 
ATOM     20  C   UNL     1      48.410   5.050  16.590  0.00  0.00    +0.000 A 
BRANCH  12  22
ATOM     21  C   UNL     1      47.086   3.606  14.048  0.00  0.00    +0.000 C 
ATOM     22  O   UNL     1      46.594   4.392  15.133  0.00  0.00    +0.000 OA
ENDBRANCH  12  22
ENDBRANCH   8  19
ENDBRANCH   7  10
ENDBRANCH   1   7
BRANCH   4  23
ATOM     23  C   UNL     1      43.604   4.981  10.116  0.00  0.00    +0.000 C 
BRANCH  23  24
ATOM     24  N   UNL     1      44.240   4.345   8.965  0.00  0.00    +0.000 NA
ATOM     25  H   UNL     1      44.862   5.025   8.525  0.00  0.00    +0.000 HD
BRANCH  24  26
ATOM     26  C   UNL     1      45.038   3.158   9.314  0.00  0.00    +0.000 C 
ATOM     27  C   UNL     1      44.180   1.954   9.737  0.00  0.00    +0.000 C 
BRANCH  26  28
ATOM     28  C   UNL     1      45.911   2.758   8.130  0.00  0.00    +0.000 A 
ATOM     29  C   UNL     1      46.236   3.692   7.132  0.00  0.00    +0.000 A 
ATOM     30  C   UNL     1      47.053   3.329   6.058  0.00  0.00    +0.000 A 
ATOM     31  C   UNL     1      47.558   2.033   5.967  0.00  0.00    +0.000 A 
ATOM     32  C   UNL     1      47.244   1.096   6.948  0.00  0.00    +0.000 A 
ATOM     33  C   UNL     1      46.425   1.455   8.020  0.00  0.00    +0.000 A 
ENDBRANCH  26  28
ENDBRANCH  24  26
ENDBRANCH  23  24
ENDBRANCH   4  23
TORSDOF 8
ENDMDL
MODEL 2
REMARK VINA RESULT:    -8.156      2.208      2.725
REMARK INTER + INTRA:         -13.158
REMARK INTER:                 -11.949
REMARK INTRA:                  -1.209
REMARK UNBOUND:                -1.188
REMARK  Name = 
REMARK  10 active torsions:
REMARK  status: ('A' for Active; 'I' for Inactive)
REMARK    1  A    between atoms: C_1  and  O_2
REMARK    2  A    between atoms: O_2  and  C_3
REMARK    3  A    between atoms: C_10  and  C_11
REMARK    4  A    between atoms: N_13  and  C_14
REMARK    5  A    between atoms: C_14  and  C_15
REMARK    6  A    between atoms: C_18  and  C_19
REMARK    7  A    between atoms: C_19  and  N_20
REMARK    8  A    between atoms: N_20  and  C_21
REMARK    9  A    between atoms: C_21  and  C_22
REMARK   10  A    between atoms: C_21  and  C_23
REMARK                            x       y       z     vdW  Elec       q    Type
REMARK                         _______ _______ _______ _____ _____    ______ ____
ROOT
ATOM      1  C   UNL     1      47.493   6.161  14.150  0.00  0.00    +0.000 A 
ATOM      2  C   UNL     1      46.813   6.725  13.062  0.00  0.00    +0.000 A 
ATOM      3  C   UNL     1      45.912   5.963  12.313  0.00  0.00    +0.000 A 
ATOM      4  C   UNL     1      45.666   4.620  12.633  0.00  0.00    +0.000 A 
ATOM      5  C   UNL     1      46.368   4.049  13.704  0.00  0.00    +0.000 A 
ATOM      6  C   UNL     1      47.269   4.813  14.456  0.00  0.00    +0.000 A 
ENDROOT
BRANCH   1   7
ATOM      7  C   UNL     1      48.406   7.005  15.000  0.00  0.00    +0.000 C 
BRANCH   7  10
ATOM      8  C   UNL     1      49.595   5.943  16.864  0.00  0.00    +0.000 C 
ATOM      9  O   UNL     1      48.744   6.358  17.652  0.00  0.00    +0.000 OA
ATOM     10  N   UNL     1      49.508   6.231  15.528  0.00  0.00    +0.000 N 
ATOM     11  H   UNL     1      50.198   5.876  14.880  0.00  0.00    +0.000 HD
BRANCH   8  19
ATOM     12  C   UNL     1      50.228   2.552  16.984  0.00  0.00    +0.000 A 
ATOM     13  N   UNL     1      50.716   1.309  17.182  0.00  0.00    +0.000 NA
ATOM     14  C   UNL     1      51.923   1.189  17.741  0.00  0.00    +0.000 A 
ATOM     15  N   UNL     1      52.725   2.173  18.131  0.00  0.00    +0.000 NA
ATOM     16  C   UNL     1      52.197   3.392  17.930  0.00  0.00    +0.000 A 
ATOM     17  S   UNL     1      53.088   4.768  18.365  0.00  0.00    +0.000 S 
ATOM     18  C   UNL     1      51.841   5.798  17.847  0.00  0.00    +0.000 A 
ATOM     19  C   UNL     1      50.732   5.132  17.336  0.00  0.00    +0.000 A 
ATOM     20  C   UNL     1      50.953   3.690  17.376  0.00  0.00    +0.000 A 
BRANCH  12  22
ATOM     21  C   UNL     1      47.934   2.743  17.371  0.00  0.00    +0.000 C 
ATOM     22  O   UNL     1      48.982   2.676  16.404  0.00  0.00    +0.000 OA
ENDBRANCH  12  22
ENDBRANCH   8  19
ENDBRANCH   7  10
ENDBRANCH   1   7
BRANCH   4  23
ATOM     23  C   UNL     1      44.604   3.832  11.893  0.00  0.00    +0.000 C 
BRANCH  23  24
ATOM     24  N   UNL     1      45.179   2.920  10.907  0.00  0.00    +0.000 NA
ATOM     25  H   UNL     1      45.043   1.964  11.237  0.00  0.00    +0.000 HD
BRANCH  24  26
ATOM     26  C   UNL     1      44.567   3.032   9.573  0.00  0.00    +0.000 C 
ATOM     27  C   UNL     1      44.062   4.449   9.254  0.00  0.00    +0.000 C 
BRANCH  26  28
ATOM     28  C   UNL     1      45.572   2.608   8.508  0.00  0.00    +0.000 A 
ATOM     29  C   UNL     1      46.104   3.548   7.610  0.00  0.00    +0.000 A 
ATOM     30  C   UNL     1      47.041   3.160   6.647  0.00  0.00    +0.000 A 
ATOM     31  C   UNL     1      47.460   1.834   6.570  0.00  0.00    +0.000 A 
ATOM     32  C   UNL     1      46.940   0.889   7.453  0.00  0.00    +0.000 A 
ATOM     33  C   UNL     1      46.002   1.273   8.413  0.00  0.00    +0.000 A 
ENDBRANCH  26  28
ENDBRANCH  24  26
ENDBRANCH  23  24
ENDBRANCH   4  23
TORSDOF 8
ENDMDL
MODEL 3
REMARK VINA RESULT:    -8.078      1.820      2.464
REMARK INTER + INTRA:         -13.044
REMARK INTER:                 -11.963
REMARK INTRA:                  -1.081
REMARK UNBOUND:                -1.188
REMARK  Name = 
REMARK  10 active torsions:
REMARK  status: ('A' for Active; 'I' for Inactive)
REMARK    1  A    between atoms: C_1  and  O_2
REMARK    2  A    between atoms: O_2  and  C_3
REMARK    3  A    between atoms: C_10  and  C_11
REMARK    4  A    between atoms: N_13  and  C_14
REMARK    5  A    between atoms: C_14  and  C_15
REMARK    6  A    between atoms: C_18  and  C_19
REMARK    7  A    between atoms: C_19  and  N_20
REMARK    8  A    between atoms: N_20  and  C_21
REMARK    9  A    between atoms: C_21  and  C_22
REMARK   10  A    between atoms: C_21  and  C_23
REMARK                            x       y       z     vdW  Elec       q    Type
REMARK                         _______ _______ _______ _____ _____    ______ ____
ROOT
ATOM      1  C   UNL     1      47.161   6.159  13.187  0.00  0.00    +0.000 A 
ATOM      2  C   UNL     1      46.848   4.953  13.828  0.00  0.00    +0.000 A 
ATOM      3  C   UNL     1      45.910   4.075  13.276  0.00  0.00    +0.000 A 
ATOM      4  C   UNL     1      45.263   4.380  12.070  0.00  0.00    +0.000 A 
ATOM      5  C   UNL     1      45.556   5.600  11.445  0.00  0.00    +0.000 A 
ATOM      6  C   UNL     1      46.497   6.478  11.996  0.00  0.00    +0.000 A 
ENDROOT
BRANCH   1   7
ATOM      7  C   UNL     1      48.225   7.066  13.746  0.00  0.00    +0.000 C 
BRANCH   7  10
ATOM      8  C   UNL     1      49.078   6.818  16.032  0.00  0.00    +0.000 C 
ATOM      9  O   UNL     1      50.100   6.283  15.601  0.00  0.00    +0.000 OA
ATOM     10  N   UNL     1      48.090   7.227  15.177  0.00  0.00    +0.000 N 
ATOM     11  H   UNL     1      47.259   7.681  15.532  0.00  0.00    +0.000 HD
BRANCH   8  19
ATOM     12  C   UNL     1      48.797   4.698  18.742  0.00  0.00    +0.000 A 
ATOM     13  N   UNL     1      48.626   4.118  19.948  0.00  0.00    +0.000 NA
ATOM     14  C   UNL     1      48.448   4.911  21.008  0.00  0.00    +0.000 A 
ATOM     15  N   UNL     1      48.423   6.239  21.018  0.00  0.00    +0.000 NA
ATOM     16  C   UNL     1      48.583   6.776  19.796  0.00  0.00    +0.000 A 
ATOM     17  S   UNL     1      48.584   8.463  19.622  0.00  0.00    +0.000 S 
ATOM     18  C   UNL     1      48.808   8.337  17.943  0.00  0.00    +0.000 A 
ATOM     19  C   UNL     1      48.887   7.029  17.479  0.00  0.00    +0.000 A 
ATOM     20  C   UNL     1      48.764   6.095  18.594  0.00  0.00    +0.000 A 
BRANCH  12  22
ATOM     21  C   UNL     1      47.753   3.414  17.097  0.00  0.00    +0.000 C 
ATOM     22  O   UNL     1      48.985   3.878  17.648  0.00  0.00    +0.000 OA
ENDBRANCH  12  22
ENDBRANCH   8  19
ENDBRANCH   7  10
ENDBRANCH   1   7
BRANCH   4  23
ATOM     23  C   UNL     1      44.336   3.375  11.417  0.00  0.00    +0.000 C 
BRANCH  23  24
ATOM     24  N   UNL     1      45.021   2.559  10.418  0.00  0.00    +0.000 NA
ATOM     25  H   UNL     1      44.866   1.576  10.646  0.00  0.00    +0.000 HD
BRANCH  24  26
ATOM     26  C   UNL     1      44.546   2.788   9.043  0.00  0.00    +0.000 C 
ATOM     27  C   UNL     1      44.004   4.208   8.818  0.00  0.00    +0.000 C 
BRANCH  26  28
ATOM     28  C   UNL     1      45.678   2.522   8.056  0.00  0.00    +0.000 A 
ATOM     29  C   UNL     1      46.378   1.304   8.081  0.00  0.00    +0.000 A 
ATOM     30  C   UNL     1      47.402   1.055   7.162  0.00  0.00    +0.000 A 
ATOM     31  C   UNL     1      47.737   2.013   6.208  0.00  0.00    +0.000 A 
ATOM     32  C   UNL     1      47.053   3.226   6.172  0.00  0.00    +0.000 A 
ATOM     33  C   UNL     1      46.032   3.479   7.090  0.00  0.00    +0.000 A 
ENDBRANCH  26  28
ENDBRANCH  24  26
ENDBRANCH  23  24
ENDBRANCH   4  23
TORSDOF 8
ENDMDL
MODEL 4
REMARK VINA RESULT:    -8.024      2.047      2.832
REMARK INTER + INTRA:         -12.964
REMARK INTER:                 -11.681
REMARK INTRA:                  -1.283
REMARK UNBOUND:                -1.188
REMARK  Name = 
REMARK  10 active torsions:
REMARK  status: ('A' for Active; 'I' for Inactive)
REMARK    1  A    between atoms: C_1  and  O_2
REMARK    2  A    between atoms: O_2  and  C_3
REMARK    3  A    between atoms: C_10  and  C_11
REMARK    4  A    between atoms: N_13  and  C_14
REMARK    5  A    between atoms: C_14  and  C_15
REMARK    6  A    between atoms: C_18  and  C_19
REMARK    7  A    between atoms: C_19  and  N_20
REMARK    8  A    between atoms: N_20  and  C_21
REMARK    9  A    between atoms: C_21  and  C_22
REMARK   10  A    between atoms: C_21  and  C_23
REMARK                            x       y       z     vdW  Elec       q    Type
REMARK                         _______ _______ _______ _____ _____    ______ ____
ROOT
ATOM      1  C   UNL     1      46.941   6.291  12.834  0.00  0.00    +0.000 A 
ATOM      2  C   UNL     1      46.896   6.649  11.480  0.00  0.00    +0.000 A 
ATOM      3  C   UNL     1      45.874   6.176  10.651  0.00  0.00    +0.000 A 
ATOM      4  C   UNL     1      44.871   5.335  11.154  0.00  0.00    +0.000 A 
ATOM      5  C   UNL     1      44.934   4.954  12.502  0.00  0.00    +0.000 A 
ATOM      6  C   UNL     1      45.955   5.430  13.333  0.00  0.00    +0.000 A 
ENDROOT
BRANCH   1   7
ATOM      7  C   UNL     1      48.000   6.861  13.740  0.00  0.00    +0.000 C 
BRANCH   7  10
ATOM      8  C   UNL     1      48.944   6.281  15.929  0.00  0.00    +0.000 C 
ATOM      9  O   UNL     1      50.067   6.597  15.536  0.00  0.00    +0.000 OA
ATOM     10  N   UNL     1      47.861   6.372  15.094  0.00  0.00    +0.000 N 
ATOM     11  H   UNL     1      46.937   6.127  15.424  0.00  0.00    +0.000 HD
BRANCH   8  19
ATOM     12  C   UNL     1      47.889   7.767  18.860  0.00  0.00    +0.000 A 
ATOM     13  N   UNL     1      47.548   8.088  20.126  0.00  0.00    +0.000 NA
ATOM     14  C   UNL     1      47.579   7.123  21.049  0.00  0.00    +0.000 A 
ATOM     15  N   UNL     1      47.909   5.850  20.865  0.00  0.00    +0.000 NA
ATOM     16  C   UNL     1      48.256   5.577  19.595  0.00  0.00    +0.000 A 
ATOM     17  S   UNL     1      48.703   3.995  19.177  0.00  0.00    +0.000 S 
ATOM     18  C   UNL     1      48.973   4.448  17.562  0.00  0.00    +0.000 A 
ATOM     19  C   UNL     1      48.733   5.793  17.303  0.00  0.00    +0.000 A 
ATOM     20  C   UNL     1      48.292   6.465  18.522  0.00  0.00    +0.000 A 
BRANCH  12  22
ATOM     21  C   UNL     1      49.083   9.485  17.825  0.00  0.00    +0.000 C 
ATOM     22  O   UNL     1      47.854   8.764  17.906  0.00  0.00    +0.000 OA
ENDBRANCH  12  22
ENDBRANCH   8  19
ENDBRANCH   7  10
ENDBRANCH   1   7
BRANCH   4  23
ATOM     23  C   UNL     1      43.704   4.920  10.283  0.00  0.00    +0.000 C 
BRANCH  23  24
ATOM     24  N   UNL     1      44.135   4.209   9.082  0.00  0.00    +0.000 NA
ATOM     25  H   UNL     1      44.700   4.845   8.517  0.00  0.00    +0.000 HD
BRANCH  24  26
ATOM     26  C   UNL     1      44.945   3.011   9.365  0.00  0.00    +0.000 C 
ATOM     27  C   UNL     1      44.097   1.770   9.685  0.00  0.00    +0.000 C 
BRANCH  26  28
ATOM     28  C   UNL     1      45.848   2.707   8.175  0.00  0.00    +0.000 A 
ATOM     29  C   UNL     1      46.439   1.442   8.029  0.00  0.00    +0.000 A 
ATOM     30  C   UNL     1      47.251   1.159   6.926  0.00  0.00    +0.000 A 
ATOM     31  C   UNL     1      47.480   2.133   5.956  0.00  0.00    +0.000 A 
ATOM     32  C   UNL     1      46.902   3.393   6.088  0.00  0.00    +0.000 A 
ATOM     33  C   UNL     1      46.094   3.679   7.189  0.00  0.00    +0.000 A 
ENDBRANCH  26  28
ENDBRANCH  24  26
ENDBRANCH  23  24
ENDBRANCH   4  23
TORSDOF 8
ENDMDL
MODEL 5
REMARK VINA RESULT:    -7.695      2.598      3.416
REMARK INTER + INTRA:         -12.482
REMARK INTER:                 -11.423
REMARK INTRA:                  -1.059
REMARK UNBOUND:                -1.188
REMARK  Name = 
REMARK  10 active torsions:
REMARK  status: ('A' for Active; 'I' for Inactive)
REMARK    1  A    between atoms: C_1  and  O_2
REMARK    2  A    between atoms: O_2  and  C_3
REMARK    3  A    between atoms: C_10  and  C_11
REMARK    4  A    between atoms: N_13  and  C_14
REMARK    5  A    between atoms: C_14  and  C_15
REMARK    6  A    between atoms: C_18  and  C_19
REMARK    7  A    between atoms: C_19  and  N_20
REMARK    8  A    between atoms: N_20  and  C_21
REMARK    9  A    between atoms: C_21  and  C_22
REMARK   10  A    between atoms: C_21  and  C_23
REMARK                            x       y       z     vdW  Elec       q    Type
REMARK                         _______ _______ _______ _____ _____    ______ ____
ROOT
ATOM      1  C   UNL     1      46.444   4.350  13.861  0.00  0.00    +0.000 A 
ATOM      2  C   UNL     1      46.157   3.208  13.101  0.00  0.00    +0.000 A 
ATOM      3  C   UNL     1      45.230   3.261  12.056  0.00  0.00    +0.000 A 
ATOM      4  C   UNL     1      44.569   4.457  11.741  0.00  0.00    +0.000 A 
ATOM      5  C   UNL     1      44.836   5.592  12.520  0.00  0.00    +0.000 A 
ATOM      6  C   UNL     1      45.765   5.539  13.566  0.00  0.00    +0.000 A 
ENDROOT
BRANCH   1   7
ATOM      7  C   UNL     1      47.496   4.307  14.937  0.00  0.00    +0.000 C 
BRANCH   7  10
ATOM      8  C   UNL     1      48.639   5.886  16.426  0.00  0.00    +0.000 C 
ATOM      9  O   UNL     1      49.618   5.141  16.475  0.00  0.00    +0.000 OA
ATOM     10  N   UNL     1      47.535   5.539  15.692  0.00  0.00    +0.000 N 
ATOM     11  H   UNL     1      46.738   6.160  15.640  0.00  0.00    +0.000 HD
BRANCH   8  19
ATOM     12  C   UNL     1      47.820   6.785  19.657  0.00  0.00    +0.000 A 
ATOM     13  N   UNL     1      47.536   7.411  20.818  0.00  0.00    +0.000 NA
ATOM     14  C   UNL     1      47.708   8.735  20.877  0.00  0.00    +0.000 A 
ATOM     15  N   UNL     1      48.140   9.529  19.904  0.00  0.00    +0.000 NA
ATOM     16  C   UNL     1      48.397   8.869  18.762  0.00  0.00    +0.000 A 
ATOM     17  S   UNL     1      48.965   9.727  17.414  0.00  0.00    +0.000 S 
ATOM     18  C   UNL     1      49.026   8.311  16.479  0.00  0.00    +0.000 A 
ATOM     19  C   UNL     1      48.623   7.166  17.158  0.00  0.00    +0.000 A 
ATOM     20  C   UNL     1      48.258   7.502  18.531  0.00  0.00    +0.000 A 
BRANCH  12  22
ATOM     21  C   UNL     1      48.814   4.701  19.998  0.00  0.00    +0.000 C 
ATOM     22  O   UNL     1      47.646   5.417  19.597  0.00  0.00    +0.000 OA
ENDBRANCH  12  22
ENDBRANCH   8  19
ENDBRANCH   7  10
ENDBRANCH   1   7
BRANCH   4  23
ATOM     23  C   UNL     1      43.655   4.539  10.536  0.00  0.00    +0.000 C 
BRANCH  23  24
ATOM     24  N   UNL     1      44.046   3.607   9.481  0.00  0.00    +0.000 NA
ATOM     25  H   UNL     1      43.199   3.271   9.020  0.00  0.00    +0.000 HD
BRANCH  24  26
ATOM     26  C   UNL     1      44.914   4.208   8.455  0.00  0.00    +0.000 C 
ATOM     27  C   UNL     1      45.805   5.336   9.001  0.00  0.00    +0.000 C 
BRANCH  26  28
ATOM     28  C   UNL     1      45.796   3.131   7.832  0.00  0.00    +0.000 A 
ATOM     29  C   UNL     1      46.584   3.415   6.704  0.00  0.00    +0.000 A 
ATOM     30  C   UNL     1      47.406   2.431   6.147  0.00  0.00    +0.000 A 
ATOM     31  C   UNL     1      47.454   1.157   6.707  0.00  0.00    +0.000 A 
ATOM     32  C   UNL     1      46.678   0.860   7.824  0.00  0.00    +0.000 A 
ATOM     33  C   UNL     1      45.853   1.839   8.381  0.00  0.00    +0.000 A 
ENDBRANCH  26  28
ENDBRANCH  24  26
ENDBRANCH  23  24
ENDBRANCH   4  23
TORSDOF 8
ENDMDL
MODEL 6
REMARK VINA RESULT:    -7.617      2.175      4.133
REMARK INTER + INTRA:         -12.367
REMARK INTER:                 -11.071
REMARK INTRA:                  -1.297
REMARK UNBOUND:                -1.188
REMARK  Name = 
REMARK  10 active torsions:
REMARK  status: ('A' for Active; 'I' for Inactive)
REMARK    1  A    between atoms: C_1  and  O_2
REMARK    2  A    between atoms: O_2  and  C_3
REMARK    3  A    between atoms: C_10  and  C_11
REMARK    4  A    between atoms: N_13  and  C_14
REMARK    5  A    between atoms: C_14  and  C_15
REMARK    6  A    between atoms: C_18  and  C_19
REMARK    7  A    between atoms: C_19  and  N_20
REMARK    8  A    between atoms: N_20  and  C_21
REMARK    9  A    between atoms: C_21  and  C_22
REMARK   10  A    between atoms: C_21  and  C_23
REMARK                            x       y       z     vdW  Elec       q    Type
REMARK                         _______ _______ _______ _____ _____    ______ ____
ROOT
ATOM      1  C   UNL     1      46.383   4.566  13.937  0.00  0.00    +0.000 A 
ATOM      2  C   UNL     1      46.290   3.367  13.218  0.00  0.00    +0.000 A 
ATOM      3  C   UNL     1      45.363   3.227  12.181  0.00  0.00    +0.000 A 
ATOM      4  C   UNL     1      44.507   4.283  11.834  0.00  0.00    +0.000 A 
ATOM      5  C   UNL     1      44.582   5.473  12.573  0.00  0.00    +0.000 A 
ATOM      6  C   UNL     1      45.512   5.613  13.610  0.00  0.00    +0.000 A 
ENDROOT
BRANCH   1   7
ATOM      7  C   UNL     1      47.432   4.738  15.003  0.00  0.00    +0.000 C 
BRANCH   7  10
ATOM      8  C   UNL     1      48.916   6.507  15.830  0.00  0.00    +0.000 C 
ATOM      9  O   UNL     1      49.713   5.660  16.234  0.00  0.00    +0.000 OA
ATOM     10  N   UNL     1      47.750   6.132  15.217  0.00  0.00    +0.000 N 
ATOM     11  H   UNL     1      47.104   6.830  14.872  0.00  0.00    +0.000 HD
BRANCH   8  19
ATOM     12  C   UNL     1      48.652   9.255  13.758  0.00  0.00    +0.000 A 
ATOM     13  N   UNL     1      48.681  10.470  13.170  0.00  0.00    +0.000 NA
ATOM     14  C   UNL     1      49.098  11.510  13.898  0.00  0.00    +0.000 A 
ATOM     15  N   UNL     1      49.493  11.492  15.166  0.00  0.00    +0.000 NA
ATOM     16  C   UNL     1      49.463  10.262  15.707  0.00  0.00    +0.000 A 
ATOM     17  S   UNL     1      49.930  10.053  17.324  0.00  0.00    +0.000 S 
ATOM     18  C   UNL     1      49.642   8.382  17.241  0.00  0.00    +0.000 A 
ATOM     19  C   UNL     1      49.190   7.946  16.001  0.00  0.00    +0.000 A 
ATOM     20  C   UNL     1      49.071   9.078  15.086  0.00  0.00    +0.000 A 
BRANCH  12  22
ATOM     21  C   UNL     1      49.053   7.933  11.876  0.00  0.00    +0.000 C 
ATOM     22  O   UNL     1      48.218   8.181  13.007  0.00  0.00    +0.000 OA
ENDBRANCH  12  22
ENDBRANCH   8  19
ENDBRANCH   7  10
ENDBRANCH   1   7
BRANCH   4  23
ATOM     23  C   UNL     1      43.588   4.169  10.636  0.00  0.00    +0.000 C 
BRANCH  23  24
ATOM     24  N   UNL     1      44.135   3.296   9.600  0.00  0.00    +0.000 NA
ATOM     25  H   UNL     1      43.361   2.800   9.157  0.00  0.00    +0.000 HD
BRANCH  24  26
ATOM     26  C   UNL     1      44.873   4.018   8.550  0.00  0.00    +0.000 C 
ATOM     27  C   UNL     1      45.684   5.207   9.089  0.00  0.00    +0.000 C 
BRANCH  26  28
ATOM     28  C   UNL     1      45.812   3.058   7.828  0.00  0.00    +0.000 A 
ATOM     29  C   UNL     1      46.040   1.766   8.330  0.00  0.00    +0.000 A 
ATOM     30  C   UNL     1      46.885   0.881   7.655  0.00  0.00    +0.000 A 
ATOM     31  C   UNL     1      47.510   1.272   6.473  0.00  0.00    +0.000 A 
ATOM     32  C   UNL     1      47.295   2.550   5.963  0.00  0.00    +0.000 A 
ATOM     33  C   UNL     1      46.454   3.437   6.637  0.00  0.00    +0.000 A 
ENDBRANCH  26  28
ENDBRANCH  24  26
ENDBRANCH  23  24
ENDBRANCH   4  23
TORSDOF 8
ENDMDL
MODEL 7
REMARK VINA RESULT:    -7.568      2.292      3.603
REMARK INTER + INTRA:         -12.294
REMARK INTER:                 -11.037
REMARK INTRA:                  -1.257
REMARK UNBOUND:                -1.188
REMARK  Name = 
REMARK  10 active torsions:
REMARK  status: ('A' for Active; 'I' for Inactive)
REMARK    1  A    between atoms: C_1  and  O_2
REMARK    2  A    between atoms: O_2  and  C_3
REMARK    3  A    between atoms: C_10  and  C_11
REMARK    4  A    between atoms: N_13  and  C_14
REMARK    5  A    between atoms: C_14  and  C_15
REMARK    6  A    between atoms: C_18  and  C_19
REMARK    7  A    between atoms: C_19  and  N_20
REMARK    8  A    between atoms: N_20  and  C_21
REMARK    9  A    between atoms: C_21  and  C_22
REMARK   10  A    between atoms: C_21  and  C_23
REMARK                            x       y       z     vdW  Elec       q    Type
REMARK                         _______ _______ _______ _____ _____    ______ ____
ROOT
ATOM      1  C   UNL     1      46.514   4.258  13.896  0.00  0.00    +0.000 A 
ATOM      2  C   UNL     1      46.100   3.159  13.132  0.00  0.00    +0.000 A 
ATOM      3  C   UNL     1      45.175   3.318  12.096  0.00  0.00    +0.000 A 
ATOM      4  C   UNL     1      44.641   4.580  11.796  0.00  0.00    +0.000 A 
ATOM      5  C   UNL     1      45.034   5.674  12.580  0.00  0.00    +0.000 A 
ATOM      6  C   UNL     1      45.963   5.515  13.616  0.00  0.00    +0.000 A 
ENDROOT
BRANCH   1   7
ATOM      7  C   UNL     1      47.566   4.096  14.962  0.00  0.00    +0.000 C 
BRANCH   7  10
ATOM      8  C   UNL     1      48.454   5.298  16.907  0.00  0.00    +0.000 C 
ATOM      9  O   UNL     1      49.424   4.540  16.941  0.00  0.00    +0.000 OA
ATOM     10  N   UNL     1      47.477   5.138  15.960  0.00  0.00    +0.000 N 
ATOM     11  H   UNL     1      46.689   5.771  15.924  0.00  0.00    +0.000 HD
BRANCH   8  19
ATOM     12  C   UNL     1      48.345   8.738  16.647  0.00  0.00    +0.000 A 
ATOM     13  N   UNL     1      48.309  10.073  16.841  0.00  0.00    +0.000 NA
ATOM     14  C   UNL     1      48.186  10.524  18.092  0.00  0.00    +0.000 A 
ATOM     15  N   UNL     1      48.088   9.796  19.199  0.00  0.00    +0.000 NA
ATOM     16  C   UNL     1      48.142   8.474  18.963  0.00  0.00    +0.000 A 
ATOM     17  S   UNL     1      48.026   7.391  20.264  0.00  0.00    +0.000 S 
ATOM     18  C   UNL     1      48.175   6.055  19.226  0.00  0.00    +0.000 A 
ATOM     19  C   UNL     1      48.314   6.392  17.884  0.00  0.00    +0.000 A 
ATOM     20  C   UNL     1      48.282   7.843  17.728  0.00  0.00    +0.000 A 
BRANCH  12  22
ATOM     21  C   UNL     1      49.829   8.178  14.936  0.00  0.00    +0.000 C 
ATOM     22  O   UNL     1      48.468   8.273  15.354  0.00  0.00    +0.000 OA
ENDBRANCH  12  22
ENDBRANCH   8  19
ENDBRANCH   7  10
ENDBRANCH   1   7
BRANCH   4  23
ATOM     23  C   UNL     1      43.730   4.767  10.601  0.00  0.00    +0.000 C 
BRANCH  23  24
ATOM     24  N   UNL     1      44.009   3.805   9.537  0.00  0.00    +0.000 NA
ATOM     25  H   UNL     1      43.127   3.566   9.082  0.00  0.00    +0.000 HD
BRANCH  24  26
ATOM     26  C   UNL     1      44.929   4.315   8.507  0.00  0.00    +0.000 C 
ATOM     27  C   UNL     1      45.883   5.401   9.031  0.00  0.00    +0.000 C 
BRANCH  26  28
ATOM     28  C   UNL     1      45.748   3.164   7.934  0.00  0.00    +0.000 A 
ATOM     29  C   UNL     1      46.621   3.375   6.854  0.00  0.00    +0.000 A 
ATOM     30  C   UNL     1      47.386   2.322   6.343  0.00  0.00    +0.000 A 
ATOM     31  C   UNL     1      47.291   1.049   6.902  0.00  0.00    +0.000 A 
ATOM     32  C   UNL     1      46.428   0.824   7.972  0.00  0.00    +0.000 A 
ATOM     33  C   UNL     1      45.661   1.873   8.483  0.00  0.00    +0.000 A 
ENDBRANCH  26  28
ENDBRANCH  24  26
ENDBRANCH  23  24
ENDBRANCH   4  23
TORSDOF 8
ENDMDL
MODEL 8
REMARK VINA RESULT:    -7.287      3.277      7.970
REMARK INTER + INTRA:         -11.883
REMARK INTER:                  -9.943
REMARK INTRA:                  -1.941
REMARK UNBOUND:                -1.188
REMARK  Name = 
REMARK  10 active torsions:
REMARK  status: ('A' for Active; 'I' for Inactive)
REMARK    1  A    between atoms: C_1  and  O_2
REMARK    2  A    between atoms: O_2  and  C_3
REMARK    3  A    between atoms: C_10  and  C_11
REMARK    4  A    between atoms: N_13  and  C_14
REMARK    5  A    between atoms: C_14  and  C_15
REMARK    6  A    between atoms: C_18  and  C_19
REMARK    7  A    between atoms: C_19  and  N_20
REMARK    8  A    between atoms: N_20  and  C_21
REMARK    9  A    between atoms: C_21  and  C_22
REMARK   10  A    between atoms: C_21  and  C_23
REMARK                            x       y       z     vdW  Elec       q    Type
REMARK                         _______ _______ _______ _____ _____    ______ ____
ROOT
ATOM      1  C   UNL     1      48.471   7.964  13.397  0.00  0.00    +0.000 A 
ATOM      2  C   UNL     1      47.990   9.040  14.153  0.00  0.00    +0.000 A 
ATOM      3  C   UNL     1      48.110   9.043  15.546  0.00  0.00    +0.000 A 
ATOM      4  C   UNL     1      48.714   7.970  16.218  0.00  0.00    +0.000 A 
ATOM      5  C   UNL     1      49.169   6.881  15.462  0.00  0.00    +0.000 A 
ATOM      6  C   UNL     1      49.052   6.879  14.067  0.00  0.00    +0.000 A 
ENDROOT
BRANCH   1   7
ATOM      7  C   UNL     1      48.408   7.998  11.893  0.00  0.00    +0.000 C 
BRANCH   7  10
ATOM      8  C   UNL     1      46.320   6.855  11.299  0.00  0.00    +0.000 C 
ATOM      9  O   UNL     1      45.669   7.816  11.711  0.00  0.00    +0.000 OA
ATOM     10  N   UNL     1      47.688   6.860  11.364  0.00  0.00    +0.000 N 
ATOM     11  H   UNL     1      48.222   6.077  11.011  0.00  0.00    +0.000 HD
BRANCH   8  19
ATOM     12  C   UNL     1      44.419   4.307  12.645  0.00  0.00    +0.000 A 
ATOM     13  N   UNL     1      43.693   3.199  12.899  0.00  0.00    +0.000 NA
ATOM     14  C   UNL     1      43.378   2.404  11.872  0.00  0.00    +0.000 A 
ATOM     15  N   UNL     1      43.699   2.582  10.596  0.00  0.00    +0.000 NA
ATOM     16  C   UNL     1      44.433   3.689  10.389  0.00  0.00    +0.000 A 
ATOM     17  S   UNL     1      44.928   4.077   8.814  0.00  0.00    +0.000 S 
ATOM     18  C   UNL     1      45.734   5.469   9.358  0.00  0.00    +0.000 A 
ATOM     19  C   UNL     1      45.648   5.672  10.732  0.00  0.00    +0.000 A 
ATOM     20  C   UNL     1      44.857   4.610  11.345  0.00  0.00    +0.000 A 
BRANCH  12  22
ATOM     21  C   UNL     1      46.042   4.861  14.229  0.00  0.00    +0.000 C 
ATOM     22  O   UNL     1      44.741   5.130  13.706  0.00  0.00    +0.000 OA
ENDBRANCH  12  22
ENDBRANCH   8  19
ENDBRANCH   7  10
ENDBRANCH   1   7
BRANCH   4  23
ATOM     23  C   UNL     1      48.946   8.029  17.714  0.00  0.00    +0.000 C 
BRANCH  23  24
ATOM     24  N   UNL     1      47.884   7.365  18.465  0.00  0.00    +0.000 NA
ATOM     25  H   UNL     1      47.211   6.982  17.799  0.00  0.00    +0.000 HD
BRANCH  24  26
ATOM     26  C   UNL     1      48.363   6.262  19.314  0.00  0.00    +0.000 C 
ATOM     27  C   UNL     1      47.450   5.984  20.519  0.00  0.00    +0.000 C 
BRANCH  26  28
ATOM     28  C   UNL     1      48.493   4.990  18.481  0.00  0.00    +0.000 A 
ATOM     29  C   UNL     1      49.741   4.370  18.311  0.00  0.00    +0.000 A 
ATOM     30  C   UNL     1      49.854   3.194  17.565  0.00  0.00    +0.000 A 
ATOM     31  C   UNL     1      48.725   2.622  16.981  0.00  0.00    +0.000 A 
ATOM     32  C   UNL     1      47.481   3.226  17.139  0.00  0.00    +0.000 A 
ATOM     33  C   UNL     1      47.366   4.403  17.882  0.00  0.00    +0.000 A 
ENDBRANCH  26  28
ENDBRANCH  24  26
ENDBRANCH  23  24
ENDBRANCH   4  23
TORSDOF 8
ENDMDL
MODEL 9
REMARK VINA RESULT:    -7.094      4.550      9.489
REMARK INTER + INTRA:         -11.600
REMARK INTER:                 -10.435
REMARK INTRA:                  -1.164
REMARK UNBOUND:                -1.188
REMARK  Name = 
REMARK  10 active torsions:
REMARK  status: ('A' for Active; 'I' for Inactive)
REMARK    1  A    between atoms: C_1  and  O_2
REMARK    2  A    between atoms: O_2  and  C_3
REMARK    3  A    between atoms: C_10  and  C_11
REMARK    4  A    between atoms: N_13  and  C_14
REMARK    5  A    between atoms: C_14  and  C_15
REMARK    6  A    between atoms: C_18  and  C_19
REMARK    7  A    between atoms: C_19  and  N_20
REMARK    8  A    between atoms: N_20  and  C_21
REMARK    9  A    between atoms: C_21  and  C_22
REMARK   10  A    between atoms: C_21  and  C_23
REMARK                            x       y       z     vdW  Elec       q    Type
REMARK                         _______ _______ _______ _____ _____    ______ ____
ROOT
ATOM      1  C   UNL     1      48.734   3.404  17.040  0.00  0.00    +0.000 A 
ATOM      2  C   UNL     1      49.567   2.278  17.007  0.00  0.00    +0.000 A 
ATOM      3  C   UNL     1      50.907   2.370  17.394  0.00  0.00    +0.000 A 
ATOM      4  C   UNL     1      51.449   3.590  17.826  0.00  0.00    +0.000 A 
ATOM      5  C   UNL     1      50.622   4.722  17.831  0.00  0.00    +0.000 A 
ATOM      6  C   UNL     1      49.279   4.629  17.446  0.00  0.00    +0.000 A 
ENDROOT
BRANCH   1   7
ATOM      7  C   UNL     1      47.274   3.284  16.694  0.00  0.00    +0.000 C 
BRANCH   7  10
ATOM      8  C   UNL     1      46.859   4.223  14.466  0.00  0.00    +0.000 C 
ATOM      9  O   UNL     1      47.263   3.183  13.945  0.00  0.00    +0.000 OA
ATOM     10  N   UNL     1      46.843   4.360  15.828  0.00  0.00    +0.000 N 
ATOM     11  H   UNL     1      46.495   5.209  16.255  0.00  0.00    +0.000 HD
BRANCH   8  19
ATOM     12  C   UNL     1      44.030   4.779  12.567  0.00  0.00    +0.000 A 
ATOM     13  N   UNL     1      43.067   5.241  11.742  0.00  0.00    +0.000 NA
ATOM     14  C   UNL     1      43.225   6.456  11.210  0.00  0.00    +0.000 A 
ATOM     15  N   UNL     1      44.241   7.288  11.404  0.00  0.00    +0.000 NA
ATOM     16  C   UNL     1      45.183   6.784  12.219  0.00  0.00    +0.000 A 
ATOM     17  S   UNL     1      46.554   7.716  12.584  0.00  0.00    +0.000 S 
ATOM     18  C   UNL     1      47.189   6.484  13.564  0.00  0.00    +0.000 A 
ATOM     19  C   UNL     1      46.388   5.349  13.640  0.00  0.00    +0.000 A 
ATOM     20  C   UNL     1      45.180   5.537  12.842  0.00  0.00    +0.000 A 
BRANCH  12  22
ATOM     21  C   UNL     1      43.510   2.543  12.147  0.00  0.00    +0.000 C 
ATOM     22  O   UNL     1      43.865   3.525  13.120  0.00  0.00    +0.000 OA
ENDBRANCH  12  22
ENDBRANCH   8  19
ENDBRANCH   7  10
ENDBRANCH   1   7
BRANCH   4  23
ATOM     23  C   UNL     1      52.866   3.661  18.354  0.00  0.00    +0.000 C 
BRANCH  23  24
ATOM     24  N   UNL     1      53.197   2.520  19.205  0.00  0.00    +0.000 NA
ATOM     25  H   UNL     1      52.632   1.723  18.908  0.00  0.00    +0.000 HD
BRANCH  24  26
ATOM     26  C   UNL     1      54.613   2.124  19.136  0.00  0.00    +0.000 C 
ATOM     27  C   UNL     1      55.214   1.780  20.509  0.00  0.00    +0.000 C 
BRANCH  26  28
ATOM     28  C   UNL     1      54.768   0.924  18.208  0.00  0.00    +0.000 A 
ATOM     29  C   UNL     1      55.095   1.104  16.853  0.00  0.00    +0.000 A 
ATOM     30  C   UNL     1      55.256   0.001  16.009  0.00  0.00    +0.000 A 
ATOM     31  C   UNL     1      55.095  -1.291  16.504  0.00  0.00    +0.000 A 
ATOM     32  C   UNL     1      54.769  -1.485  17.844  0.00  0.00    +0.000 A 
ATOM     33  C   UNL     1      54.605  -0.386  18.689  0.00  0.00    +0.000 A 
ENDBRANCH  26  28
ENDBRANCH  24  26
ENDBRANCH  23  24
ENDBRANCH   4  23
TORSDOF 8
ENDMDL
