MODEL 1
REMARK VINA RESULT:    -7.359      0.000      0.000
REMARK INTER + INTRA:          -9.892
REMARK INTER:                  -9.295
REMARK INTRA:                  -0.597
REMARK UNBOUND:                -0.597
REMARK  Name = 
REMARK  5 active torsions:
REMARK  status: ('A' for Active; 'I' for Inactive)
REMARK    1  A    between atoms: N_1  and  C_2
REMARK    2  A    between atoms: C_2  and  C_3
REMARK    3  A    between atoms: C_6  and  O_7
REMARK    4  A    between atoms: O_7  and  C_8
REMARK    5  A    between atoms: C_8  and  C_9
REMARK                            x       y       z     vdW  Elec       q    Type
REMARK                         _______ _______ _______ _____ _____    ______ ____
ROOT
ATOM      1  C   UNL     1      46.519   2.659   7.089  0.00  0.00    +0.000 A 
ATOM      2  C   UNL     1      46.033   3.948   7.367  0.00  0.00    +0.000 A 
ATOM      3  C   UNL     1      45.182   4.180   8.446  0.00  0.00    +0.000 A 
ATOM      4  C   UNL     1      44.821   3.132   9.291  0.00  0.00    +0.000 A 
ATOM      5  C   UNL     1      45.284   1.844   9.023  0.00  0.00    +0.000 A 
ATOM      6  C   UNL     1      46.137   1.609   7.939  0.00  0.00    +0.000 A 
ATOM      7 CL   UNL     1      46.714  -0.004   7.708  0.00  0.00    +0.000 Cl
ENDROOT
BRANCH   1   8
ATOM      8  C   UNL     1      47.447   2.483   5.916  0.00  0.00    +0.000 C 
BRANCH   8   9
ATOM      9  N   UNL     1      48.841   2.468   6.340  0.00  0.00    +0.000 NA
ATOM     10  H   UNL     1      49.380   1.904   5.685  0.00  0.00    +0.000 HD
ATOM     11  H   UNL     1      48.903   1.989   7.238  0.00  0.00    +0.000 HD
ENDBRANCH   8   9
ENDBRANCH   1   8
BRANCH   4  12
ATOM     12  O   UNL     1      44.027   3.257  10.400  0.00  0.00    +0.000 OA
BRANCH  12  13
ATOM     13  C   UNL     1      43.996   4.565  10.979  0.00  0.00    +0.000 C 
BRANCH  13  14
ATOM     14  C   UNL     1      45.176   4.786  11.892  0.00  0.00    +0.000 A 
ATOM     15  C   UNL     1      45.578   3.828  12.827  0.00  0.00    +0.000 A 
ATOM     16  C   UNL     1      46.718   4.067  13.577  0.00  0.00    +0.000 A 
ATOM     17  N   UNL     1      47.482   5.172  13.454  0.00  0.00    +0.000 NA
ATOM     18  C   UNL     1      47.087   6.082  12.538  0.00  0.00    +0.000 A 
ATOM     19  C   UNL     1      45.960   5.935  11.744  0.00  0.00    +0.000 A 
ENDBRANCH  13  14
ENDBRANCH  12  13
ENDBRANCH   4  12
TORSDOF 5
ENDMDL
MODEL 2
REMARK VINA RESULT:    -7.064      2.426      6.002
REMARK INTER + INTRA:          -9.519
REMARK INTER:                  -8.995
REMARK INTRA:                  -0.524
REMARK UNBOUND:                -0.597
REMARK  Name = 
REMARK  5 active torsions:
REMARK  status: ('A' for Active; 'I' for Inactive)
REMARK    1  A    between atoms: N_1  and  C_2
REMARK    2  A    between atoms: C_2  and  C_3
REMARK    3  A    between atoms: C_6  and  O_7
REMARK    4  A    between atoms: O_7  and  C_8
REMARK    5  A    between atoms: C_8  and  C_9
REMARK                            x       y       z     vdW  Elec       q    Type
REMARK                         _______ _______ _______ _____ _____    ______ ____
ROOT
ATOM      1  C   UNL     1      46.018   4.806  12.778  0.00  0.00    +0.000 A 
ATOM      2  C   UNL     1      45.328   3.705  12.244  0.00  0.00    +0.000 A 
ATOM      3  C   UNL     1      44.943   3.676  10.904  0.00  0.00    +0.000 A 
ATOM      4  C   UNL     1      45.266   4.737  10.060  0.00  0.00    +0.000 A 
ATOM      5  C   UNL     1      45.940   5.844  10.576  0.00  0.00    +0.000 A 
ATOM      6  C   UNL     1      46.325   5.875  11.922  0.00  0.00    +0.000 A 
ATOM      7 CL   UNL     1      47.208   7.256  12.470  0.00  0.00    +0.000 Cl
ENDROOT
BRANCH   1   8
ATOM      8  C   UNL     1      46.418   4.763  14.230  0.00  0.00    +0.000 C 
BRANCH   8   9
ATOM      9  N   UNL     1      47.207   3.576  14.528  0.00  0.00    +0.000 NA
ATOM     10  H   UNL     1      47.636   3.686  15.445  0.00  0.00    +0.000 HD
ATOM     11  H   UNL     1      47.979   3.522  13.864  0.00  0.00    +0.000 HD
ENDBRANCH   8   9
ENDBRANCH   1   8
BRANCH   4  12
ATOM     12  O   UNL     1      44.973   4.793   8.724  0.00  0.00    +0.000 OA
BRANCH  12  13
ATOM     13  C   UNL     1      44.604   3.543   8.132  0.00  0.00    +0.000 C 
BRANCH  13  14
ATOM     14  C   UNL     1      45.811   2.814   7.597  0.00  0.00    +0.000 A 
ATOM     15  C   UNL     1      46.190   1.558   8.080  0.00  0.00    +0.000 A 
ATOM     16  C   UNL     1      47.263   0.913   7.487  0.00  0.00    +0.000 A 
ATOM     17  N   UNL     1      47.968   1.419   6.455  0.00  0.00    +0.000 NA
ATOM     18  C   UNL     1      47.582   2.628   5.993  0.00  0.00    +0.000 A 
ATOM     19  C   UNL     1      46.525   3.351   6.522  0.00  0.00    +0.000 A 
ENDBRANCH  13  14
ENDBRANCH  12  13
ENDBRANCH   4  12
TORSDOF 5
ENDMDL
MODEL 3
REMARK VINA RESULT:    -6.745      1.672      2.034
REMARK INTER + INTRA:          -9.116
REMARK INTER:                  -8.509
REMARK INTRA:                  -0.607
REMARK UNBOUND:                -0.597
REMARK  Name = 
REMARK  5 active torsions:
REMARK  status: ('A' for Active; 'I' for Inactive)
REMARK    1  A    between atoms: N_1  and  C_2
REMARK    2  A    between atoms: C_2  and  C_3
REMARK    3  A    between atoms: C_6  and  O_7
REMARK    4  A    between atoms: O_7  and  C_8
REMARK    5  A    between atoms: C_8  and  C_9
REMARK                            x       y       z     vdW  Elec       q    Type
REMARK                         _______ _______ _______ _____ _____    ______ ____
ROOT
ATOM      1  C   UNL     1      46.219   1.814   7.816  0.00  0.00    +0.000 A 
ATOM      2  C   UNL     1      45.396   1.434   8.890  0.00  0.00    +0.000 A 
ATOM      3  C   UNL     1      44.545   2.351   9.506  0.00  0.00    +0.000 A 
ATOM      4  C   UNL     1      44.477   3.664   9.042  0.00  0.00    +0.000 A 
ATOM      5  C   UNL     1      45.296   4.062   7.986  0.00  0.00    +0.000 A 
ATOM      6  C   UNL     1      46.151   3.142   7.367  0.00  0.00    +0.000 A 
ATOM      7 CL   UNL     1      47.090   3.698   6.027  0.00  0.00    +0.000 Cl
ENDROOT
BRANCH   1   8
ATOM      8  C   UNL     1      47.101   0.768   7.187  0.00  0.00    +0.000 C 
BRANCH   8   9
ATOM      9  N   UNL     1      46.800  -0.560   7.703  0.00  0.00    +0.000 NA
ATOM     10  H   UNL     1      47.674  -1.046   7.897  0.00  0.00    +0.000 HD
ATOM     11  H   UNL     1      46.339  -1.099   6.970  0.00  0.00    +0.000 HD
ENDBRANCH   8   9
ENDBRANCH   1   8
BRANCH   4  12
ATOM     12  O   UNL     1      43.649   4.631   9.546  0.00  0.00    +0.000 OA
BRANCH  12  13
ATOM     13  C   UNL     1      43.417   4.556  10.956  0.00  0.00    +0.000 C 
BRANCH  13  14
ATOM     14  C   UNL     1      44.576   5.131  11.732  0.00  0.00    +0.000 A 
ATOM     15  C   UNL     1      45.233   4.404  12.728  0.00  0.00    +0.000 A 
ATOM     16  C   UNL     1      46.339   4.968  13.343  0.00  0.00    +0.000 A 
ATOM     17  N   UNL     1      46.835   6.183  13.033  0.00  0.00    +0.000 NA
ATOM     18  C   UNL     1      46.195   6.868  12.061  0.00  0.00    +0.000 A 
ATOM     19  C   UNL     1      45.080   6.390  11.390  0.00  0.00    +0.000 A 
ENDBRANCH  13  14
ENDBRANCH  12  13
ENDBRANCH   4  12
TORSDOF 5
ENDMDL
MODEL 4
REMARK VINA RESULT:    -6.407      1.955      5.947
REMARK INTER + INTRA:          -8.689
REMARK INTER:                  -8.191
REMARK INTRA:                  -0.497
REMARK UNBOUND:                -0.597
REMARK  Name = 
REMARK  5 active torsions:
REMARK  status: ('A' for Active; 'I' for Inactive)
REMARK    1  A    between atoms: N_1  and  C_2
REMARK    2  A    between atoms: C_2  and  C_3
REMARK    3  A    between atoms: C_6  and  O_7
REMARK    4  A    between atoms: O_7  and  C_8
REMARK    5  A    between atoms: C_8  and  C_9
REMARK                            x       y       z     vdW  Elec       q    Type
REMARK                         _______ _______ _______ _____ _____    ______ ____
ROOT
ATOM      1  C   UNL     1      45.357   4.750  12.469  0.00  0.00    +0.000 A 
ATOM      2  C   UNL     1      46.068   5.734  11.763  0.00  0.00    +0.000 A 
ATOM      3  C   UNL     1      46.056   5.771  10.369  0.00  0.00    +0.000 A 
ATOM      4  C   UNL     1      45.307   4.841   9.650  0.00  0.00    +0.000 A 
ATOM      5  C   UNL     1      44.605   3.849  10.335  0.00  0.00    +0.000 A 
ATOM      6  C   UNL     1      44.618   3.810  11.734  0.00  0.00    +0.000 A 
ATOM      7 CL   UNL     1      43.675   2.585  12.509  0.00  0.00    +0.000 Cl
ENDROOT
BRANCH   1   8
ATOM      8  C   UNL     1      45.401   4.778  13.974  0.00  0.00    +0.000 C 
BRANCH   8   9
ATOM      9  N   UNL     1      46.722   5.153  14.459  0.00  0.00    +0.000 NA
ATOM     10  H   UNL     1      46.695   5.217  15.476  0.00  0.00    +0.000 HD
ATOM     11  H   UNL     1      46.938   6.092  14.126  0.00  0.00    +0.000 HD
ENDBRANCH   8   9
ENDBRANCH   1   8
BRANCH   4  12
ATOM     12  O   UNL     1      45.193   4.812   8.286  0.00  0.00    +0.000 OA
BRANCH  12  13
ATOM     13  C   UNL     1      44.765   3.561   7.739  0.00  0.00    +0.000 C 
BRANCH  13  14
ATOM     14  C   UNL     1      45.928   2.787   7.172  0.00  0.00    +0.000 A 
ATOM     15  C   UNL     1      46.650   3.242   6.064  0.00  0.00    +0.000 A 
ATOM     16  C   UNL     1      47.755   2.518   5.647  0.00  0.00    +0.000 A 
ATOM     17  N   UNL     1      48.192   1.395   6.253  0.00  0.00    +0.000 NA
ATOM     18  C   UNL     1      47.490   0.975   7.327  0.00  0.00    +0.000 A 
ATOM     19  C   UNL     1      46.371   1.628   7.818  0.00  0.00    +0.000 A 
ENDBRANCH  13  14
ENDBRANCH  12  13
ENDBRANCH   4  12
TORSDOF 5
ENDMDL
MODEL 5
REMARK VINA RESULT:    -5.859      2.312      5.839
REMARK INTER + INTRA:          -7.997
REMARK INTER:                  -7.583
REMARK INTRA:                  -0.414
REMARK UNBOUND:                -0.597
REMARK  Name = 
REMARK  5 active torsions:
REMARK  status: ('A' for Active; 'I' for Inactive)
REMARK    1  A    between atoms: N_1  and  C_2
REMARK    2  A    between atoms: C_2  and  C_3
REMARK    3  A    between atoms: C_6  and  O_7
REMARK    4  A    between atoms: O_7  and  C_8
REMARK    5  A    between atoms: C_8  and  C_9
REMARK                            x       y       z     vdW  Elec       q    Type
REMARK                         _______ _______ _______ _____ _____    ______ ____
ROOT
ATOM      1  C   UNL     1      47.101   6.101  12.814  0.00  0.00    +0.000 A 
ATOM      2  C   UNL     1      46.809   6.708  11.582  0.00  0.00    +0.000 A 
ATOM      3  C   UNL     1      45.874   6.153  10.708  0.00  0.00    +0.000 A 
ATOM      4  C   UNL     1      45.188   4.992  11.062  0.00  0.00    +0.000 A 
ATOM      5  C   UNL     1      45.475   4.369  12.277  0.00  0.00    +0.000 A 
ATOM      6  C   UNL     1      46.414   4.925  13.154  0.00  0.00    +0.000 A 
ATOM      7 CL   UNL     1      46.670   4.125  14.664  0.00  0.00    +0.000 Cl
ENDROOT
BRANCH   1   8
ATOM      8  C   UNL     1      48.110   6.763  13.716  0.00  0.00    +0.000 C 
BRANCH   8   9
ATOM      9  N   UNL     1      48.876   7.775  13.001  0.00  0.00    +0.000 NA
ATOM     10  H   UNL     1      48.369   8.658  13.034  0.00  0.00    +0.000 HD
ATOM     11  H   UNL     1      48.921   7.515  12.016  0.00  0.00    +0.000 HD
ENDBRANCH   8   9
ENDBRANCH   1   8
BRANCH   4  12
ATOM     12  O   UNL     1      44.224   4.388  10.300  0.00  0.00    +0.000 OA
BRANCH  12  13
ATOM     13  C   UNL     1      44.428   2.993  10.059  0.00  0.00    +0.000 C 
BRANCH  13  14
ATOM     14  C   UNL     1      45.268   2.768   8.827  0.00  0.00    +0.000 A 
ATOM     15  C   UNL     1      45.572   3.804   7.940  0.00  0.00    +0.000 A 
ATOM     16  C   UNL     1      46.414   3.540   6.872  0.00  0.00    +0.000 A 
ATOM     17  N   UNL     1      46.976   2.337   6.636  0.00  0.00    +0.000 NA
ATOM     18  C   UNL     1      46.681   1.350   7.509  0.00  0.00    +0.000 A 
ATOM     19  C   UNL     1      45.848   1.515   8.604  0.00  0.00    +0.000 A 
ENDBRANCH  13  14
ENDBRANCH  12  13
ENDBRANCH   4  12
TORSDOF 5
ENDMDL
MODEL 6
REMARK VINA RESULT:    -5.424      2.377      3.005
REMARK INTER + INTRA:          -7.447
REMARK INTER:                  -7.008
REMARK INTRA:                  -0.440
REMARK UNBOUND:                -0.597
REMARK  Name = 
REMARK  5 active torsions:
REMARK  status: ('A' for Active; 'I' for Inactive)
REMARK    1  A    between atoms: N_1  and  C_2
REMARK    2  A    between atoms: C_2  and  C_3
REMARK    3  A    between atoms: C_6  and  O_7
REMARK    4  A    between atoms: O_7  and  C_8
REMARK    5  A    between atoms: C_8  and  C_9
REMARK                            x       y       z     vdW  Elec       q    Type
REMARK                         _______ _______ _______ _____ _____    ______ ____
ROOT
ATOM      1  C   UNL     1      46.037   2.176   8.045  0.00  0.00    +0.000 A 
ATOM      2  C   UNL     1      45.136   1.703   9.013  0.00  0.00    +0.000 A 
ATOM      3  C   UNL     1      44.484   2.579   9.881  0.00  0.00    +0.000 A 
ATOM      4  C   UNL     1      44.696   3.953   9.779  0.00  0.00    +0.000 A 
ATOM      5  C   UNL     1      45.597   4.439   8.831  0.00  0.00    +0.000 A 
ATOM      6  C   UNL     1      46.254   3.561   7.961  0.00  0.00    +0.000 A 
ATOM      7 CL   UNL     1      47.309   4.247   6.777  0.00  0.00    +0.000 Cl
ENDROOT
BRANCH   1   8
ATOM      8  C   UNL     1      46.694   1.176   7.131  0.00  0.00    +0.000 C 
BRANCH   8   9
ATOM      9  N   UNL     1      46.847  -0.118   7.782  0.00  0.00    +0.000 NA
ATOM     10  H   UNL     1      46.042  -0.282   8.384  0.00  0.00    +0.000 HD
ATOM     11  H   UNL     1      47.655  -0.077   8.404  0.00  0.00    +0.000 HD
ENDBRANCH   8   9
ENDBRANCH   1   8
BRANCH   4  12
ATOM     12  O   UNL     1      44.079   4.901  10.550  0.00  0.00    +0.000 OA
BRANCH  12  13
ATOM     13  C   UNL     1      44.752   5.222  11.771  0.00  0.00    +0.000 C 
BRANCH  13  14
ATOM     14  C   UNL     1      44.885   6.714  11.946  0.00  0.00    +0.000 A 
ATOM     15  C   UNL     1      45.739   7.274  12.900  0.00  0.00    +0.000 A 
ATOM     16  C   UNL     1      45.868   8.652  12.950  0.00  0.00    +0.000 A 
ATOM     17  N   UNL     1      45.225   9.499  12.121  0.00  0.00    +0.000 NA
ATOM     18  C   UNL     1      44.412   8.942  11.198  0.00  0.00    +0.000 A 
ATOM     19  C   UNL     1      44.214   7.576  11.072  0.00  0.00    +0.000 A 
ENDBRANCH  13  14
ENDBRANCH  12  13
ENDBRANCH   4  12
TORSDOF 5
ENDMDL
MODEL 7
REMARK VINA RESULT:    -5.324      2.889      6.185
REMARK INTER + INTRA:          -7.321
REMARK INTER:                  -7.064
REMARK INTRA:                  -0.257
REMARK UNBOUND:                -0.597
REMARK  Name = 
REMARK  5 active torsions:
REMARK  status: ('A' for Active; 'I' for Inactive)
REMARK    1  A    between atoms: N_1  and  C_2
REMARK    2  A    between atoms: C_2  and  C_3
REMARK    3  A    between atoms: C_6  and  O_7
REMARK    4  A    between atoms: O_7  and  C_8
REMARK    5  A    between atoms: C_8  and  C_9
REMARK                            x       y       z     vdW  Elec       q    Type
REMARK                         _______ _______ _______ _____ _____    ______ ____
ROOT
ATOM      1  C   UNL     1      45.466   7.417  12.509  0.00  0.00    +0.000 A 
ATOM      2  C   UNL     1      45.751   6.076  12.817  0.00  0.00    +0.000 A 
ATOM      3  C   UNL     1      45.117   5.032  12.145  0.00  0.00    +0.000 A 
ATOM      4  C   UNL     1      44.205   5.306  11.127  0.00  0.00    +0.000 A 
ATOM      5  C   UNL     1      43.901   6.631  10.816  0.00  0.00    +0.000 A 
ATOM      6  C   UNL     1      44.535   7.680  11.491  0.00  0.00    +0.000 A 
ATOM      7 CL   UNL     1      44.148   9.294  11.007  0.00  0.00    +0.000 Cl
ENDROOT
BRANCH   1   8
ATOM      8  C   UNL     1      46.199   8.495  13.263  0.00  0.00    +0.000 C 
BRANCH   8   9
ATOM      9  N   UNL     1      47.244   7.934  14.108  0.00  0.00    +0.000 NA
ATOM     10  H   UNL     1      47.149   8.313  15.049  0.00  0.00    +0.000 HD
ATOM     11  H   UNL     1      48.149   8.259  13.767  0.00  0.00    +0.000 HD
ENDBRANCH   8   9
ENDBRANCH   1   8
BRANCH   4  12
ATOM     12  O   UNL     1      43.559   4.359  10.378  0.00  0.00    +0.000 OA
BRANCH  12  13
ATOM     13  C   UNL     1      44.186   3.073  10.355  0.00  0.00    +0.000 C 
BRANCH  13  14
ATOM     14  C   UNL     1      45.148   2.953   9.200  0.00  0.00    +0.000 A 
ATOM     15  C   UNL     1      45.670   1.721   8.796  0.00  0.00    +0.000 A 
ATOM     16  C   UNL     1      46.486   1.679   7.677  0.00  0.00    +0.000 A 
ATOM     17  N   UNL     1      46.805   2.760   6.937  0.00  0.00    +0.000 NA
ATOM     18  C   UNL     1      46.285   3.941   7.335  0.00  0.00    +0.000 A 
ATOM     19  C   UNL     1      45.461   4.085   8.441  0.00  0.00    +0.000 A 
ENDBRANCH  13  14
ENDBRANCH  12  13
ENDBRANCH   4  12
TORSDOF 5
ENDMDL
MODEL 8
REMARK VINA RESULT:    -5.285      4.310      6.137
REMARK INTER + INTRA:          -7.272
REMARK INTER:                  -6.867
REMARK INTRA:                  -0.404
REMARK UNBOUND:                -0.597
REMARK  Name = 
REMARK  5 active torsions:
REMARK  status: ('A' for Active; 'I' for Inactive)
REMARK    1  A    between atoms: N_1  and  C_2
REMARK    2  A    between atoms: C_2  and  C_3
REMARK    3  A    between atoms: C_6  and  O_7
REMARK    4  A    between atoms: O_7  and  C_8
REMARK    5  A    between atoms: C_8  and  C_9
REMARK                            x       y       z     vdW  Elec       q    Type
REMARK                         _______ _______ _______ _____ _____    ______ ____
ROOT
ATOM      1  C   UNL     1      45.631   5.691  12.038  0.00  0.00    +0.000 A 
ATOM      2  C   UNL     1      46.494   6.230  13.007  0.00  0.00    +0.000 A 
ATOM      3  C   UNL     1      47.121   5.414  13.949  0.00  0.00    +0.000 A 
ATOM      4  C   UNL     1      46.922   4.034  13.923  0.00  0.00    +0.000 A 
ATOM      5  C   UNL     1      46.059   3.483  12.975  0.00  0.00    +0.000 A 
ATOM      6  C   UNL     1      45.428   4.302  12.031  0.00  0.00    +0.000 A 
ATOM      7 CL   UNL     1      44.420   3.535  10.854  0.00  0.00    +0.000 Cl
ENDROOT
BRANCH   1   8
ATOM      8  C   UNL     1      45.000   6.628  11.042  0.00  0.00    +0.000 C 
BRANCH   8   9
ATOM      9  N   UNL     1      43.641   6.978  11.431  0.00  0.00    +0.000 NA
ATOM     10  H   UNL     1      43.011   6.232  11.139  0.00  0.00    +0.000 HD
ATOM     11  H   UNL     1      43.355   7.805  10.907  0.00  0.00    +0.000 HD
ENDBRANCH   8   9
ENDBRANCH   1   8
BRANCH   4  12
ATOM     12  O   UNL     1      47.518   3.140  14.771  0.00  0.00    +0.000 OA
BRANCH  12  13
ATOM     13  C   UNL     1      47.528   3.526  16.149  0.00  0.00    +0.000 C 
BRANCH  13  14
ATOM     14  C   UNL     1      48.883   3.301  16.770  0.00  0.00    +0.000 A 
ATOM     15  C   UNL     1      49.555   2.080  16.658  0.00  0.00    +0.000 A 
ATOM     16  C   UNL     1      50.830   1.971  17.187  0.00  0.00    +0.000 A 
ATOM     17  N   UNL     1      51.480   2.982  17.800  0.00  0.00    +0.000 NA
ATOM     18  C   UNL     1      50.822   4.158  17.890  0.00  0.00    +0.000 A 
ATOM     19  C   UNL     1      49.543   4.364  17.395  0.00  0.00    +0.000 A 
ENDBRANCH  13  14
ENDBRANCH  12  13
ENDBRANCH   4  12
TORSDOF 5
ENDMDL
MODEL 9
REMARK VINA RESULT:    -5.226      4.905      8.337
REMARK INTER + INTRA:          -7.198
REMARK INTER:                  -6.820
REMARK INTRA:                  -0.378
REMARK UNBOUND:                -0.597
REMARK  Name = 
REMARK  5 active torsions:
REMARK  status: ('A' for Active; 'I' for Inactive)
REMARK    1  A    between atoms: N_1  and  C_2
REMARK    2  A    between atoms: C_2  and  C_3
REMARK    3  A    between atoms: C_6  and  O_7
REMARK    4  A    between atoms: O_7  and  C_8
REMARK    5  A    between atoms: C_8  and  C_9
REMARK                            x       y       z     vdW  Elec       q    Type
REMARK                         _______ _______ _______ _____ _____    ______ ____
ROOT
ATOM      1  C   UNL     1      48.831   4.206  18.072  0.00  0.00    +0.000 A 
ATOM      2  C   UNL     1      48.737   2.895  17.578  0.00  0.00    +0.000 A 
ATOM      3  C   UNL     1      48.106   2.625  16.363  0.00  0.00    +0.000 A 
ATOM      4  C   UNL     1      47.581   3.667  15.601  0.00  0.00    +0.000 A 
ATOM      5  C   UNL     1      47.654   4.974  16.082  0.00  0.00    +0.000 A 
ATOM      6  C   UNL     1      48.285   5.245  17.302  0.00  0.00    +0.000 A 
ATOM      7 CL   UNL     1      48.386   6.897  17.800  0.00  0.00    +0.000 Cl
ENDROOT
BRANCH   1   8
ATOM      8  C   UNL     1      49.539   4.428  19.382  0.00  0.00    +0.000 C 
BRANCH   8   9
ATOM      9  N   UNL     1      48.723   3.989  20.507  0.00  0.00    +0.000 NA
ATOM     10  H   UNL     1      48.984   4.525  21.333  0.00  0.00    +0.000 HD
ATOM     11  H   UNL     1      48.956   3.019  20.720  0.00  0.00    +0.000 HD
ENDBRANCH   8   9
ENDBRANCH   1   8
BRANCH   4  12
ATOM     12  O   UNL     1      46.980   3.518  14.379  0.00  0.00    +0.000 OA
BRANCH  12  13
ATOM     13  C   UNL     1      46.455   4.722  13.812  0.00  0.00    +0.000 C 
BRANCH  13  14
ATOM     14  C   UNL     1      45.260   4.437  12.936  0.00  0.00    +0.000 A 
ATOM     15  C   UNL     1      45.208   3.320  12.097  0.00  0.00    +0.000 A 
ATOM     16  C   UNL     1      44.047   3.080  11.381  0.00  0.00    +0.000 A 
ATOM     17  N   UNL     1      42.946   3.857  11.448  0.00  0.00    +0.000 NA
ATOM     18  C   UNL     1      43.010   4.926  12.271  0.00  0.00    +0.000 A 
ATOM     19  C   UNL     1      44.126   5.251  13.025  0.00  0.00    +0.000 A 
ENDBRANCH  13  14
ENDBRANCH  12  13
ENDBRANCH   4  12
TORSDOF 5
ENDMDL
