MODEL 1
REMARK VINA RESULT:    -8.666      0.000      0.000
REMARK INTER + INTRA:         -12.050
REMARK INTER:                 -11.200
REMARK INTRA:                  -0.851
REMARK UNBOUND:                -0.851
REMARK  Name = 
REMARK  5 active torsions:
REMARK  status: ('A' for Active; 'I' for Inactive)
REMARK    1  A    between atoms: C_2  and  C_4
REMARK    2  A    between atoms: C_7  and  O_8
REMARK    3  A    between atoms: O_8  and  C_9
REMARK    4  A    between atoms: C_9  and  C_10
REMARK    5  A    between atoms: C_13  and  C_14
REMARK                            x       y       z     vdW  Elec       q    Type
REMARK                         _______ _______ _______ _____ _____    ______ ____
ROOT
ATOM      1  C   UNL     1      44.222   5.683  10.906  0.00  0.00    +0.000 C 
ENDROOT
BRANCH   1   2
ATOM      2  C   UNL     1      45.184   5.349  12.006  0.00  0.00    +0.000 A 
ATOM      3  C   UNL     1      46.394   6.027  12.142  0.00  0.00    +0.000 A 
ATOM      4  C   UNL     1      47.213   5.756  13.235  0.00  0.00    +0.000 A 
ATOM      5  C   UNL     1      46.808   4.810  14.176  0.00  0.00    +0.000 A 
ATOM      6  N   UNL     1      45.666   4.094  14.017  0.00  0.00    +0.000 NA
ATOM      7  C   UNL     1      44.891   4.372  12.945  0.00  0.00    +0.000 A 
BRANCH   5   8
ATOM      8  C   UNL     1      47.547   4.573  15.432  0.00  0.00    +0.000 A 
ATOM      9  C   UNL     1      47.566   3.307  16.046  0.00  0.00    +0.000 A 
ATOM     10  C   UNL     1      48.311   3.069  17.203  0.00  0.00    +0.000 A 
ATOM     11  C   UNL     1      49.057   4.094  17.773  0.00  0.00    +0.000 A 
ATOM     12  C   UNL     1      49.053   5.360  17.190  0.00  0.00    +0.000 A 
ATOM     13  C   UNL     1      48.307   5.595  16.032  0.00  0.00    +0.000 A 
ENDBRANCH   5   8
ENDBRANCH   1   2
BRANCH   1  14
ATOM     14  O   UNL     1      43.800   4.487  10.259  0.00  0.00    +0.000 OA
BRANCH  14  18
ATOM     15  C   UNL     1      46.485   2.497   7.759  0.00  0.00    +0.000 A 
ATOM     16  C   UNL     1      46.400   3.890   7.673  0.00  0.00    +0.000 A 
ATOM     17  C   UNL     1      45.516   4.592   8.496  0.00  0.00    +0.000 A 
ATOM     18  C   UNL     1      44.709   3.913   9.413  0.00  0.00    +0.000 A 
ATOM     19  C   UNL     1      44.798   2.519   9.498  0.00  0.00    +0.000 A 
ATOM     20  C   UNL     1      45.676   1.811   8.672  0.00  0.00    +0.000 A 
BRANCH  15  22
ATOM     21  N   UNL     1      48.501   2.350   6.401  0.00  0.00    +0.000 N 
ATOM     22  C   UNL     1      47.380   1.720   6.866  0.00  0.00    +0.000 C 
ATOM     23  O   UNL     1      47.142   0.555   6.572  0.00  0.00    +0.000 OA
ATOM     24  H   UNL     1      49.141   1.782   5.861  0.00  0.00    +0.000 HD
ATOM     25  H   UNL     1      48.861   3.195   6.818  0.00  0.00    +0.000 HD
ENDBRANCH  15  22
ENDBRANCH  14  18
ENDBRANCH   1  14
TORSDOF 5
ENDMDL
MODEL 2
REMARK VINA RESULT:    -8.358      1.706      2.612
REMARK INTER + INTRA:         -11.651
REMARK INTER:                 -10.715
REMARK INTRA:                  -0.936
REMARK UNBOUND:                -0.851
REMARK  Name = 
REMARK  5 active torsions:
REMARK  status: ('A' for Active; 'I' for Inactive)
REMARK    1  A    between atoms: C_2  and  C_4
REMARK    2  A    between atoms: C_7  and  O_8
REMARK    3  A    between atoms: O_8  and  C_9
REMARK    4  A    between atoms: C_9  and  C_10
REMARK    5  A    between atoms: C_13  and  C_14
REMARK                            x       y       z     vdW  Elec       q    Type
REMARK                         _______ _______ _______ _____ _____    ______ ____
ROOT
ATOM      1  C   UNL     1      43.605   3.264  11.699  0.00  0.00    +0.000 C 
ENDROOT
BRANCH   1   2
ATOM      2  C   UNL     1      44.733   4.001  12.356  0.00  0.00    +0.000 A 
ATOM      3  C   UNL     1      45.827   3.325  12.891  0.00  0.00    +0.000 A 
ATOM      4  C   UNL     1      46.900   4.051  13.402  0.00  0.00    +0.000 A 
ATOM      5  C   UNL     1      46.859   5.445  13.371  0.00  0.00    +0.000 A 
ATOM      6  N   UNL     1      45.769   6.114  12.917  0.00  0.00    +0.000 NA
ATOM      7  C   UNL     1      44.739   5.386  12.431  0.00  0.00    +0.000 A 
BRANCH   5   8
ATOM      8  C   UNL     1      48.013   6.281  13.757  0.00  0.00    +0.000 A 
ATOM      9  C   UNL     1      48.454   6.352  15.092  0.00  0.00    +0.000 A 
ATOM     10  C   UNL     1      49.580   7.099  15.449  0.00  0.00    +0.000 A 
ATOM     11  C   UNL     1      50.292   7.790  14.477  0.00  0.00    +0.000 A 
ATOM     12  C   UNL     1      49.875   7.743  13.148  0.00  0.00    +0.000 A 
ATOM     13  C   UNL     1      48.750   6.995  12.794  0.00  0.00    +0.000 A 
ENDBRANCH   5   8
ENDBRANCH   1   2
BRANCH   1  14
ATOM     14  O   UNL     1      43.460   3.710  10.354  0.00  0.00    +0.000 OA
BRANCH  14  18
ATOM     15  C   UNL     1      46.396   2.611   7.599  0.00  0.00    +0.000 A 
ATOM     16  C   UNL     1      45.826   1.616   8.398  0.00  0.00    +0.000 A 
ATOM     17  C   UNL     1      44.837   1.944   9.330  0.00  0.00    +0.000 A 
ATOM     18  C   UNL     1      44.407   3.266   9.472  0.00  0.00    +0.000 A 
ATOM     19  C   UNL     1      44.979   4.259   8.669  0.00  0.00    +0.000 A 
ATOM     20  C   UNL     1      45.973   3.937   7.741  0.00  0.00    +0.000 A 
BRANCH  15  22
ATOM     21  N   UNL     1      47.501   3.009   5.466  0.00  0.00    +0.000 N 
ATOM     22  C   UNL     1      47.482   2.301   6.636  0.00  0.00    +0.000 C 
ATOM     23  O   UNL     1      48.341   1.465   6.881  0.00  0.00    +0.000 OA
ATOM     24  H   UNL     1      48.292   2.845   4.857  0.00  0.00    +0.000 HD
ATOM     25  H   UNL     1      46.983   3.867   5.342  0.00  0.00    +0.000 HD
ENDBRANCH  15  22
ENDBRANCH  14  18
ENDBRANCH   1  14
TORSDOF 5
ENDMDL
MODEL 3
REMARK VINA RESULT:    -8.180      2.687      4.029
REMARK INTER + INTRA:         -11.422
REMARK INTER:                 -10.559
REMARK INTRA:                  -0.863
REMARK UNBOUND:                -0.851
REMARK  Name = 
REMARK  5 active torsions:
REMARK  status: ('A' for Active; 'I' for Inactive)
REMARK    1  A    between atoms: C_2  and  C_4
REMARK    2  A    between atoms: C_7  and  O_8
REMARK    3  A    between atoms: O_8  and  C_9
REMARK    4  A    between atoms: C_9  and  C_10
REMARK    5  A    between atoms: C_13  and  C_14
REMARK                            x       y       z     vdW  Elec       q    Type
REMARK                         _______ _______ _______ _____ _____    ______ ____
ROOT
ATOM      1  C   UNL     1      43.801   3.865  11.650  0.00  0.00    +0.000 C 
ENDROOT
BRANCH   1   2
ATOM      2  C   UNL     1      44.741   5.010  11.878  0.00  0.00    +0.000 A 
ATOM      3  C   UNL     1      45.998   4.814  12.444  0.00  0.00    +0.000 A 
ATOM      4  C   UNL     1      46.879   5.888  12.547  0.00  0.00    +0.000 A 
ATOM      5  C   UNL     1      46.487   7.142  12.082  0.00  0.00    +0.000 A 
ATOM      6  N   UNL     1      45.239   7.360  11.593  0.00  0.00    +0.000 NA
ATOM      7  C   UNL     1      44.401   6.303  11.509  0.00  0.00    +0.000 A 
BRANCH   5   8
ATOM      8  C   UNL     1      47.412   8.292  12.022  0.00  0.00    +0.000 A 
ATOM      9  C   UNL     1      48.777   8.121  11.724  0.00  0.00    +0.000 A 
ATOM     10  C   UNL     1      49.641   9.213  11.612  0.00  0.00    +0.000 A 
ATOM     11  C   UNL     1      49.156  10.504  11.793  0.00  0.00    +0.000 A 
ATOM     12  C   UNL     1      47.810  10.703  12.095  0.00  0.00    +0.000 A 
ATOM     13  C   UNL     1      46.949   9.608  12.205  0.00  0.00    +0.000 A 
ENDBRANCH   5   8
ENDBRANCH   1   2
BRANCH   1  14
ATOM     14  O   UNL     1      43.432   3.814  10.275  0.00  0.00    +0.000 OA
BRANCH  14  18
ATOM     15  C   UNL     1      46.370   2.587   7.576  0.00  0.00    +0.000 A 
ATOM     16  C   UNL     1      45.847   1.645   8.466  0.00  0.00    +0.000 A 
ATOM     17  C   UNL     1      44.859   2.017   9.382  0.00  0.00    +0.000 A 
ATOM     18  C   UNL     1      44.383   3.330   9.419  0.00  0.00    +0.000 A 
ATOM     19  C   UNL     1      44.907   4.270   8.525  0.00  0.00    +0.000 A 
ATOM     20  C   UNL     1      45.900   3.905   7.611  0.00  0.00    +0.000 A 
BRANCH  15  22
ATOM     21  N   UNL     1      47.531   2.961   5.468  0.00  0.00    +0.000 N 
ATOM     22  C   UNL     1      47.453   2.235   6.625  0.00  0.00    +0.000 C 
ATOM     23  O   UNL     1      48.261   1.348   6.869  0.00  0.00    +0.000 OA
ATOM     24  H   UNL     1      48.323   2.764   4.869  0.00  0.00    +0.000 HD
ATOM     25  H   UNL     1      47.064   3.848   5.352  0.00  0.00    +0.000 HD
ENDBRANCH  15  22
ENDBRANCH  14  18
ENDBRANCH   1  14
TORSDOF 5
ENDMDL
MODEL 4
REMARK VINA RESULT:    -8.029      3.313      7.029
REMARK INTER + INTRA:         -11.226
REMARK INTER:                 -10.574
REMARK INTRA:                  -0.652
REMARK UNBOUND:                -0.851
REMARK  Name = 
REMARK  5 active torsions:
REMARK  status: ('A' for Active; 'I' for Inactive)
REMARK    1  A    between atoms: C_2  and  C_4
REMARK    2  A    between atoms: C_7  and  O_8
REMARK    3  A    between atoms: O_8  and  C_9
REMARK    4  A    between atoms: C_9  and  C_10
REMARK    5  A    between atoms: C_13  and  C_14
REMARK                            x       y       z     vdW  Elec       q    Type
REMARK                         _______ _______ _______ _____ _____    ______ ____
ROOT
ATOM      1  C   UNL     1      42.793   4.848  12.517  0.00  0.00    +0.000 C 
ENDROOT
BRANCH   1   2
ATOM      2  C   UNL     1      43.448   4.311  11.280  0.00  0.00    +0.000 A 
ATOM      3  C   UNL     1      43.723   5.134  10.190  0.00  0.00    +0.000 A 
ATOM      4  C   UNL     1      44.423   4.619   9.102  0.00  0.00    +0.000 A 
ATOM      5  C   UNL     1      44.837   3.288   9.121  0.00  0.00    +0.000 A 
ATOM      6  N   UNL     1      44.514   2.459  10.146  0.00  0.00    +0.000 NA
ATOM      7  C   UNL     1      43.829   2.981  11.189  0.00  0.00    +0.000 A 
BRANCH   5   8
ATOM      8  C   UNL     1      45.705   2.711   8.076  0.00  0.00    +0.000 A 
ATOM      9  C   UNL     1      46.068   3.448   6.933  0.00  0.00    +0.000 A 
ATOM     10  C   UNL     1      46.934   2.923   5.971  0.00  0.00    +0.000 A 
ATOM     11  C   UNL     1      47.461   1.647   6.133  0.00  0.00    +0.000 A 
ATOM     12  C   UNL     1      47.115   0.891   7.252  0.00  0.00    +0.000 A 
ATOM     13  C   UNL     1      46.248   1.420   8.212  0.00  0.00    +0.000 A 
ENDBRANCH   5   8
ENDBRANCH   1   2
BRANCH   1  14
ATOM     14  O   UNL     1      43.762   4.988  13.551  0.00  0.00    +0.000 OA
BRANCH  14  18
ATOM     15  C   UNL     1      47.340   6.909  12.591  0.00  0.00    +0.000 A 
ATOM     16  C   UNL     1      46.143   7.614  12.437  0.00  0.00    +0.000 A 
ATOM     17  C   UNL     1      44.924   7.005  12.752  0.00  0.00    +0.000 A 
ATOM     18  C   UNL     1      44.889   5.691  13.223  0.00  0.00    +0.000 A 
ATOM     19  C   UNL     1      46.089   4.989  13.379  0.00  0.00    +0.000 A 
ATOM     20  C   UNL     1      47.310   5.591  13.059  0.00  0.00    +0.000 A 
BRANCH  15  22
ATOM     21  N   UNL     1      49.768   6.965  12.777  0.00  0.00    +0.000 N 
ATOM     22  C   UNL     1      48.645   7.511  12.220  0.00  0.00    +0.000 C 
ATOM     23  O   UNL     1      48.722   8.444  11.430  0.00  0.00    +0.000 OA
ATOM     24  H   UNL     1      50.653   7.332  12.451  0.00  0.00    +0.000 HD
ATOM     25  H   UNL     1      49.769   6.054  13.212  0.00  0.00    +0.000 HD
ENDBRANCH  15  22
ENDBRANCH  14  18
ENDBRANCH   1  14
TORSDOF 5
ENDMDL
MODEL 5
REMARK VINA RESULT:    -6.354      4.304      8.478
REMARK INTER + INTRA:          -9.062
REMARK INTER:                  -8.363
REMARK INTRA:                  -0.698
REMARK UNBOUND:                -0.851
REMARK  Name = 
REMARK  5 active torsions:
REMARK  status: ('A' for Active; 'I' for Inactive)
REMARK    1  A    between atoms: C_2  and  C_4
REMARK    2  A    between atoms: C_7  and  O_8
REMARK    3  A    between atoms: O_8  and  C_9
REMARK    4  A    between atoms: C_9  and  C_10
REMARK    5  A    between atoms: C_13  and  C_14
REMARK                            x       y       z     vdW  Elec       q    Type
REMARK                         _______ _______ _______ _____ _____    ______ ____
ROOT
ATOM      1  C   UNL     1      49.116   5.645  16.892  0.00  0.00    +0.000 C 
ENDROOT
BRANCH   1   2
ATOM      2  C   UNL     1      48.199   5.529  15.711  0.00  0.00    +0.000 A 
ATOM      3  C   UNL     1      48.281   6.416  14.640  0.00  0.00    +0.000 A 
ATOM      4  C   UNL     1      47.480   6.213  13.519  0.00  0.00    +0.000 A 
ATOM      5  C   UNL     1      46.608   5.125  13.489  0.00  0.00    +0.000 A 
ATOM      6  N   UNL     1      46.470   4.296  14.555  0.00  0.00    +0.000 NA
ATOM      7  C   UNL     1      47.255   4.517  15.632  0.00  0.00    +0.000 A 
BRANCH   5   8
ATOM      8  C   UNL     1      45.836   4.760  12.284  0.00  0.00    +0.000 A 
ATOM      9  C   UNL     1      45.775   5.612  11.165  0.00  0.00    +0.000 A 
ATOM     10  C   UNL     1      45.091   5.242  10.005  0.00  0.00    +0.000 A 
ATOM     11  C   UNL     1      44.454   4.008   9.936  0.00  0.00    +0.000 A 
ATOM     12  C   UNL     1      44.493   3.147  11.031  0.00  0.00    +0.000 A 
ATOM     13  C   UNL     1      45.179   3.519  12.190  0.00  0.00    +0.000 A 
ENDBRANCH   5   8
ENDBRANCH   1   2
BRANCH   1  14
ATOM     14  O   UNL     1      49.004   4.480  17.703  0.00  0.00    +0.000 OA
BRANCH  14  18
ATOM     15  C   UNL     1      52.220   1.821  17.696  0.00  0.00    +0.000 A 
ATOM     16  C   UNL     1      52.434   3.125  18.151  0.00  0.00    +0.000 A 
ATOM     17  C   UNL     1      51.381   4.043  18.172  0.00  0.00    +0.000 A 
ATOM     18  C   UNL     1      50.106   3.670  17.741  0.00  0.00    +0.000 A 
ATOM     19  C   UNL     1      49.894   2.363  17.288  0.00  0.00    +0.000 A 
ATOM     20  C   UNL     1      50.946   1.443  17.259  0.00  0.00    +0.000 A 
BRANCH  15  22
ATOM     21  N   UNL     1      53.168  -0.343  18.287  0.00  0.00    +0.000 N 
ATOM     22  C   UNL     1      53.329   0.838  17.617  0.00  0.00    +0.000 C 
ATOM     23  O   UNL     1      54.340   1.058  16.961  0.00  0.00    +0.000 OA
ATOM     24  H   UNL     1      53.895  -1.035  18.157  0.00  0.00    +0.000 HD
ATOM     25  H   UNL     1      52.268  -0.665  18.611  0.00  0.00    +0.000 HD
ENDBRANCH  15  22
ENDBRANCH  14  18
ENDBRANCH   1  14
TORSDOF 5
ENDMDL
MODEL 6
REMARK VINA RESULT:    -6.081      2.357      3.189
REMARK INTER + INTRA:          -8.709
REMARK INTER:                  -8.095
REMARK INTRA:                  -0.614
REMARK UNBOUND:                -0.851
REMARK  Name = 
REMARK  5 active torsions:
REMARK  status: ('A' for Active; 'I' for Inactive)
REMARK    1  A    between atoms: C_2  and  C_4
REMARK    2  A    between atoms: C_7  and  O_8
REMARK    3  A    between atoms: O_8  and  C_9
REMARK    4  A    between atoms: C_9  and  C_10
REMARK    5  A    between atoms: C_13  and  C_14
REMARK                            x       y       z     vdW  Elec       q    Type
REMARK                         _______ _______ _______ _____ _____    ______ ____
ROOT
ATOM      1  C   UNL     1      44.972   6.445  10.884  0.00  0.00    +0.000 C 
ENDROOT
BRANCH   1   2
ATOM      2  C   UNL     1      45.937   6.794  11.977  0.00  0.00    +0.000 A 
ATOM      3  C   UNL     1      46.939   5.909  12.368  0.00  0.00    +0.000 A 
ATOM      4  C   UNL     1      47.877   6.311  13.316  0.00  0.00    +0.000 A 
ATOM      5  C   UNL     1      47.797   7.593  13.858  0.00  0.00    +0.000 A 
ATOM      6  N   UNL     1      46.784   8.438  13.536  0.00  0.00    +0.000 NA
ATOM      7  C   UNL     1      45.884   8.023  12.617  0.00  0.00    +0.000 A 
BRANCH   5   8
ATOM      8  C   UNL     1      48.833   8.143  14.754  0.00  0.00    +0.000 A 
ATOM      9  C   UNL     1      49.974   8.793  14.247  0.00  0.00    +0.000 A 
ATOM     10  C   UNL     1      50.927   9.362  15.095  0.00  0.00    +0.000 A 
ATOM     11  C   UNL     1      50.758   9.295  16.473  0.00  0.00    +0.000 A 
ATOM     12  C   UNL     1      49.642   8.652  17.004  0.00  0.00    +0.000 A 
ATOM     13  C   UNL     1      48.690   8.085  16.153  0.00  0.00    +0.000 A 
ENDBRANCH   5   8
ENDBRANCH   1   2
BRANCH   1  14
ATOM     14  O   UNL     1      44.653   5.059  10.951  0.00  0.00    +0.000 OA
BRANCH  14  18
ATOM     15  C   UNL     1      46.178   2.930   7.700  0.00  0.00    +0.000 A 
ATOM     16  C   UNL     1      45.515   2.224   8.708  0.00  0.00    +0.000 A 
ATOM     17  C   UNL     1      44.987   2.902   9.810  0.00  0.00    +0.000 A 
ATOM     18  C   UNL     1      45.115   4.289   9.917  0.00  0.00    +0.000 A 
ATOM     19  C   UNL     1      45.776   4.994   8.906  0.00  0.00    +0.000 A 
ATOM     20  C   UNL     1      46.312   4.319   7.804  0.00  0.00    +0.000 A 
BRANCH  15  22
ATOM     21  N   UNL     1      47.013   2.972   5.413  0.00  0.00    +0.000 N 
ATOM     22  C   UNL     1      46.790   2.234   6.542  0.00  0.00    +0.000 C 
ATOM     23  O   UNL     1      47.108   1.052   6.596  0.00  0.00    +0.000 OA
ATOM     24  H   UNL     1      47.505   2.506   4.662  0.00  0.00    +0.000 HD
ATOM     25  H   UNL     1      47.011   3.982   5.416  0.00  0.00    +0.000 HD
ENDBRANCH  15  22
ENDBRANCH  14  18
ENDBRANCH   1  14
TORSDOF 5
ENDMDL
MODEL 7
REMARK VINA RESULT:    -5.956      2.884      3.899
REMARK INTER + INTRA:          -8.547
REMARK INTER:                  -7.762
REMARK INTRA:                  -0.785
REMARK UNBOUND:                -0.851
REMARK  Name = 
REMARK  5 active torsions:
REMARK  status: ('A' for Active; 'I' for Inactive)
REMARK    1  A    between atoms: C_2  and  C_4
REMARK    2  A    between atoms: C_7  and  O_8
REMARK    3  A    between atoms: O_8  and  C_9
REMARK    4  A    between atoms: C_9  and  C_10
REMARK    5  A    between atoms: C_13  and  C_14
REMARK                            x       y       z     vdW  Elec       q    Type
REMARK                         _______ _______ _______ _____ _____    ______ ____
ROOT
ATOM      1  C   UNL     1      44.810   5.048  13.040  0.00  0.00    +0.000 C 
ENDROOT
BRANCH   1   2
ATOM      2  C   UNL     1      45.982   5.980  12.966  0.00  0.00    +0.000 A 
ATOM      3  C   UNL     1      45.809   7.350  12.785  0.00  0.00    +0.000 A 
ATOM      4  C   UNL     1      46.917   8.192  12.822  0.00  0.00    +0.000 A 
ATOM      5  C   UNL     1      48.183   7.649  13.040  0.00  0.00    +0.000 A 
ATOM      6  N   UNL     1      48.371   6.309  13.147  0.00  0.00    +0.000 NA
ATOM      7  C   UNL     1      47.281   5.513  13.103  0.00  0.00    +0.000 A 
BRANCH   5   8
ATOM      8  C   UNL     1      49.383   8.487  13.237  0.00  0.00    +0.000 A 
ATOM      9  C   UNL     1      49.359   9.618  14.074  0.00  0.00    +0.000 A 
ATOM     10  C   UNL     1      50.508  10.379  14.305  0.00  0.00    +0.000 A 
ATOM     11  C   UNL     1      51.710  10.021  13.705  0.00  0.00    +0.000 A 
ATOM     12  C   UNL     1      51.762   8.909  12.868  0.00  0.00    +0.000 A 
ATOM     13  C   UNL     1      50.611   8.150  12.639  0.00  0.00    +0.000 A 
ENDBRANCH   5   8
ENDBRANCH   1   2
BRANCH   1  14
ATOM     14  O   UNL     1      44.072   5.108  11.824  0.00  0.00    +0.000 OA
BRANCH  14  18
ATOM     15  C   UNL     1      45.771   3.225   8.510  0.00  0.00    +0.000 A 
ATOM     16  C   UNL     1      45.210   2.430   9.514  0.00  0.00    +0.000 A 
ATOM     17  C   UNL     1      44.628   3.024  10.637  0.00  0.00    +0.000 A 
ATOM     18  C   UNL     1      44.600   4.415  10.770  0.00  0.00    +0.000 A 
ATOM     19  C   UNL     1      45.160   5.208   9.762  0.00  0.00    +0.000 A 
ATOM     20  C   UNL     1      45.750   4.618   8.640  0.00  0.00    +0.000 A 
BRANCH  15  22
ATOM     21  N   UNL     1      46.665   3.438   6.255  0.00  0.00    +0.000 N 
ATOM     22  C   UNL     1      46.439   2.623   7.329  0.00  0.00    +0.000 C 
ATOM     23  O   UNL     1      46.797   1.452   7.320  0.00  0.00    +0.000 OA
ATOM     24  H   UNL     1      47.193   3.036   5.491  0.00  0.00    +0.000 HD
ATOM     25  H   UNL     1      46.627   4.444   6.320  0.00  0.00    +0.000 HD
ENDBRANCH  15  22
ENDBRANCH  14  18
ENDBRANCH   1  14
TORSDOF 5
ENDMDL
MODEL 8
REMARK VINA RESULT:    -5.821      2.941      4.070
REMARK INTER + INTRA:          -8.373
REMARK INTER:                  -7.682
REMARK INTRA:                  -0.691
REMARK UNBOUND:                -0.851
REMARK  Name = 
REMARK  5 active torsions:
REMARK  status: ('A' for Active; 'I' for Inactive)
REMARK    1  A    between atoms: C_2  and  C_4
REMARK    2  A    between atoms: C_7  and  O_8
REMARK    3  A    between atoms: O_8  and  C_9
REMARK    4  A    between atoms: C_9  and  C_10
REMARK    5  A    between atoms: C_13  and  C_14
REMARK                            x       y       z     vdW  Elec       q    Type
REMARK                         _______ _______ _______ _____ _____    ______ ____
ROOT
ATOM      1  C   UNL     1      47.124   8.194  12.170  0.00  0.00    +0.000 C 
ENDROOT
BRANCH   1   2
ATOM      2  C   UNL     1      47.780   7.727  13.434  0.00  0.00    +0.000 A 
ATOM      3  C   UNL     1      48.065   8.611  14.472  0.00  0.00    +0.000 A 
ATOM      4  C   UNL     1      48.582   8.120  15.669  0.00  0.00    +0.000 A 
ATOM      5  C   UNL     1      48.807   6.750  15.806  0.00  0.00    +0.000 A 
ATOM      6  N   UNL     1      48.599   5.890  14.777  0.00  0.00    +0.000 NA
ATOM      7  C   UNL     1      48.102   6.391  13.625  0.00  0.00    +0.000 A 
BRANCH   5   8
ATOM      8  C   UNL     1      49.214   6.138  17.087  0.00  0.00    +0.000 A 
ATOM      9  C   UNL     1      48.800   4.842  17.445  0.00  0.00    +0.000 A 
ATOM     10  C   UNL     1      49.230   4.240  18.630  0.00  0.00    +0.000 A 
ATOM     11  C   UNL     1      50.088   4.923  19.484  0.00  0.00    +0.000 A 
ATOM     12  C   UNL     1      50.510   6.210  19.158  0.00  0.00    +0.000 A 
ATOM     13  C   UNL     1      50.079   6.809  17.971  0.00  0.00    +0.000 A 
ENDBRANCH   5   8
ENDBRANCH   1   2
BRANCH   1  14
ATOM     14  O   UNL     1      45.710   8.069  12.289  0.00  0.00    +0.000 OA
BRANCH  14  18
ATOM     15  C   UNL     1      44.295   4.252  11.371  0.00  0.00    +0.000 A 
ATOM     16  C   UNL     1      43.943   4.815  12.601  0.00  0.00    +0.000 A 
ATOM     17  C   UNL     1      44.394   6.093  12.942  0.00  0.00    +0.000 A 
ATOM     18  C   UNL     1      45.199   6.820  12.061  0.00  0.00    +0.000 A 
ATOM     19  C   UNL     1      45.547   6.254  10.830  0.00  0.00    +0.000 A 
ATOM     20  C   UNL     1      45.104   4.973  10.487  0.00  0.00    +0.000 A 
BRANCH  15  22
ATOM     21  N   UNL     1      44.566   2.257  10.001  0.00  0.00    +0.000 N 
ATOM     22  C   UNL     1      43.871   2.878  11.001  0.00  0.00    +0.000 C 
ATOM     23  O   UNL     1      42.953   2.310  11.578  0.00  0.00    +0.000 OA
ATOM     24  H   UNL     1      44.320   1.293   9.816  0.00  0.00    +0.000 HD
ATOM     25  H   UNL     1      45.472   2.578   9.689  0.00  0.00    +0.000 HD
ENDBRANCH  15  22
ENDBRANCH  14  18
ENDBRANCH   1  14
TORSDOF 5
ENDMDL
MODEL 9
REMARK VINA RESULT:    -5.793      4.450      8.276
REMARK INTER + INTRA:          -8.336
REMARK INTER:                  -7.589
REMARK INTRA:                  -0.748
REMARK UNBOUND:                -0.851
REMARK  Name = 
REMARK  5 active torsions:
REMARK  status: ('A' for Active; 'I' for Inactive)
REMARK    1  A    between atoms: C_2  and  C_4
REMARK    2  A    between atoms: C_7  and  O_8
REMARK    3  A    between atoms: O_8  and  C_9
REMARK    4  A    between atoms: C_9  and  C_10
REMARK    5  A    between atoms: C_13  and  C_14
REMARK                            x       y       z     vdW  Elec       q    Type
REMARK                         _______ _______ _______ _____ _____    ______ ____
ROOT
ATOM      1  C   UNL     1      46.980   3.765  14.020  0.00  0.00    +0.000 C 
ENDROOT
BRANCH   1   2
ATOM      2  C   UNL     1      46.583   5.139  13.572  0.00  0.00    +0.000 A 
ATOM      3  C   UNL     1      47.532   6.140  13.376  0.00  0.00    +0.000 A 
ATOM      4  C   UNL     1      47.133   7.372  12.863  0.00  0.00    +0.000 A 
ATOM      5  C   UNL     1      45.790   7.583  12.555  0.00  0.00    +0.000 A 
ATOM      6  N   UNL     1      44.847   6.640  12.808  0.00  0.00    +0.000 NA
ATOM      7  C   UNL     1      45.258   5.455  13.310  0.00  0.00    +0.000 A 
BRANCH   5   8
ATOM      8  C   UNL     1      45.313   8.804  11.875  0.00  0.00    +0.000 A 
ATOM      9  C   UNL     1      44.129   8.807  11.115  0.00  0.00    +0.000 A 
ATOM     10  C   UNL     1      43.649   9.975  10.518  0.00  0.00    +0.000 A 
ATOM     11  C   UNL     1      44.343  11.169  10.671  0.00  0.00    +0.000 A 
ATOM     12  C   UNL     1      45.522  11.196  11.413  0.00  0.00    +0.000 A 
ATOM     13  C   UNL     1      45.999  10.026  12.010  0.00  0.00    +0.000 A 
ENDBRANCH   5   8
ENDBRANCH   1   2
BRANCH   1  14
ATOM     14  O   UNL     1      46.775   3.639  15.423  0.00  0.00    +0.000 OA
BRANCH  14  18
ATOM     15  C   UNL     1      50.222   3.806  17.771  0.00  0.00    +0.000 A 
ATOM     16  C   UNL     1      49.546   4.998  17.492  0.00  0.00    +0.000 A 
ATOM     17  C   UNL     1      48.386   4.982  16.713  0.00  0.00    +0.000 A 
ATOM     18  C   UNL     1      47.889   3.779  16.205  0.00  0.00    +0.000 A 
ATOM     19  C   UNL     1      48.566   2.588  16.488  0.00  0.00    +0.000 A 
ATOM     20  C   UNL     1      49.731   2.599  17.261  0.00  0.00    +0.000 A 
BRANCH  15  22
ATOM     21  N   UNL     1      52.264   2.678  18.468  0.00  0.00    +0.000 N 
ATOM     22  C   UNL     1      51.482   3.796  18.554  0.00  0.00    +0.000 C 
ATOM     23  O   UNL     1      51.825   4.755  19.234  0.00  0.00    +0.000 OA
ATOM     24  H   UNL     1      53.157   2.719  18.941  0.00  0.00    +0.000 HD
ATOM     25  H   UNL     1      52.153   1.994  17.734  0.00  0.00    +0.000 HD
ENDBRANCH  15  22
ENDBRANCH  14  18
ENDBRANCH   1  14
TORSDOF 5
ENDMDL
