MODEL 1
REMARK VINA RESULT:    -7.473      0.000      0.000
REMARK INTER + INTRA:          -9.058
REMARK INTER:                  -8.783
REMARK INTRA:                  -0.275
REMARK UNBOUND:                -0.275
REMARK  Name = 
REMARK  5 active torsions:
REMARK  status: ('A' for Active; 'I' for Inactive)
REMARK    1  A    between atoms: C_1  and  C_2
REMARK    2  A    between atoms: C_5  and  C_6
REMARK    3  A    between atoms: C_6  and  C_7
REMARK    4  A    between atoms: C_6  and  N_8
REMARK    5  A    between atoms: C_12  and  C_13
REMARK                            x       y       z     vdW  Elec       q    Type
REMARK                         _______ _______ _______ _____ _____    ______ ____
ROOT
ATOM      1  N   UNL     1      43.813   4.948   9.853  0.00  0.00    +0.000 N 
ATOM      2  C   UNL     1      44.587   3.943   9.259  0.00  0.00    +0.000 A 
ATOM      3  C   UNL     1      44.864   4.051   7.897  0.00  0.00    +0.000 A 
ATOM      4  C   UNL     1      45.631   3.071   7.264  0.00  0.00    +0.000 A 
ATOM      5  C   UNL     1      46.118   1.993   8.002  0.00  0.00    +0.000 A 
ATOM      6  C   UNL     1      45.784   1.954   9.345  0.00  0.00    +0.000 A 
ATOM      7  N   UNL     1      45.030   2.892   9.977  0.00  0.00    +0.000 NA
ATOM      8  H   UNL     1      44.255   5.846   9.671  0.00  0.00    +0.000 HD
ENDROOT
BRANCH   5   9
ATOM      9  C   UNL     1      46.944   0.964   7.323  0.00  0.00    +0.000 C 
ATOM     10  N   UNL     1      46.735  -0.356   7.612  0.00  0.00    +0.000 N 
ATOM     11  O   UNL     1      47.813   1.281   6.519  0.00  0.00    +0.000 OA
ATOM     12  H   UNL     1      46.069  -0.726   8.271  0.00  0.00    +0.000 HD
ATOM     13  H   UNL     1      47.332  -1.020   7.132  0.00  0.00    +0.000 HD
ENDBRANCH   5   9
BRANCH   1  14
ATOM     14  C   UNL     1      43.504   4.787  11.278  0.00  0.00    +0.000 C 
ATOM     15  C   UNL     1      42.284   5.634  11.649  0.00  0.00    +0.000 C 
BRANCH  14  20
ATOM     16  C   UNL     1      48.158   6.467  14.398  0.00  0.00    +0.000 C 
ATOM     17  C   UNL     1      46.975   6.031  13.587  0.00  0.00    +0.000 A 
ATOM     18  C   UNL     1      46.515   6.801  12.514  0.00  0.00    +0.000 A 
ATOM     19  C   UNL     1      45.400   6.393  11.776  0.00  0.00    +0.000 A 
ATOM     20  C   UNL     1      44.723   5.205  12.093  0.00  0.00    +0.000 A 
ATOM     21  C   UNL     1      45.190   4.438  13.171  0.00  0.00    +0.000 A 
ATOM     22  C   UNL     1      46.305   4.846  13.908  0.00  0.00    +0.000 A 
ENDBRANCH  14  20
ENDBRANCH   1  14
TORSDOF 3
ENDMDL
MODEL 2
REMARK VINA RESULT:    -7.399      3.514      6.831
REMARK INTER + INTRA:          -8.971
REMARK INTER:                  -8.548
REMARK INTRA:                  -0.424
REMARK UNBOUND:                -0.275
REMARK  Name = 
REMARK  5 active torsions:
REMARK  status: ('A' for Active; 'I' for Inactive)
REMARK    1  A    between atoms: C_1  and  C_2
REMARK    2  A    between atoms: C_5  and  C_6
REMARK    3  A    between atoms: C_6  and  C_7
REMARK    4  A    between atoms: C_6  and  N_8
REMARK    5  A    between atoms: C_12  and  C_13
REMARK                            x       y       z     vdW  Elec       q    Type
REMARK                         _______ _______ _______ _____ _____    ______ ____
ROOT
ATOM      1  N   UNL     1      45.081   4.625  11.824  0.00  0.00    +0.000 N 
ATOM      2  C   UNL     1      45.104   6.026  11.877  0.00  0.00    +0.000 A 
ATOM      3  C   UNL     1      45.963   6.631  12.791  0.00  0.00    +0.000 A 
ATOM      4  C   UNL     1      46.017   8.024  12.877  0.00  0.00    +0.000 A 
ATOM      5  C   UNL     1      45.212   8.798  12.043  0.00  0.00    +0.000 A 
ATOM      6  C   UNL     1      44.376   8.117  11.175  0.00  0.00    +0.000 A 
ATOM      7  N   UNL     1      44.302   6.763  11.082  0.00  0.00    +0.000 NA
ATOM      8  H   UNL     1      46.029   4.293  11.665  0.00  0.00    +0.000 HD
ENDROOT
BRANCH   5   9
ATOM      9  C   UNL     1      45.287  10.278  12.132  0.00  0.00    +0.000 C 
ATOM     10  N   UNL     1      46.509  10.876  12.265  0.00  0.00    +0.000 N 
ATOM     11  O   UNL     1      44.273  10.965  12.096  0.00  0.00    +0.000 OA
ATOM     12  H   UNL     1      47.400  10.410  12.330  0.00  0.00    +0.000 HD
ATOM     13  H   UNL     1      46.507  11.887  12.334  0.00  0.00    +0.000 HD
ENDBRANCH   5   9
BRANCH   1  14
ATOM     14  C   UNL     1      44.138   4.016  10.881  0.00  0.00    +0.000 C 
ATOM     15  C   UNL     1      43.374   2.878  11.565  0.00  0.00    +0.000 C 
BRANCH  14  20
ATOM     16  C   UNL     1      47.176   2.094   6.267  0.00  0.00    +0.000 C 
ATOM     17  C   UNL     1      46.385   2.589   7.440  0.00  0.00    +0.000 A 
ATOM     18  C   UNL     1      46.178   3.957   7.643  0.00  0.00    +0.000 A 
ATOM     19  C   UNL     1      45.454   4.407   8.750  0.00  0.00    +0.000 A 
ATOM     20  C   UNL     1      44.917   3.499   9.676  0.00  0.00    +0.000 A 
ATOM     21  C   UNL     1      45.129   2.127   9.466  0.00  0.00    +0.000 A 
ATOM     22  C   UNL     1      45.853   1.678   8.359  0.00  0.00    +0.000 A 
ENDBRANCH  14  20
ENDBRANCH   1  14
TORSDOF 3
ENDMDL
MODEL 3
REMARK VINA RESULT:    -7.318      3.326      6.731
REMARK INTER + INTRA:          -8.876
REMARK INTER:                  -8.410
REMARK INTRA:                  -0.466
REMARK UNBOUND:                -0.275
REMARK  Name = 
REMARK  5 active torsions:
REMARK  status: ('A' for Active; 'I' for Inactive)
REMARK    1  A    between atoms: C_1  and  C_2
REMARK    2  A    between atoms: C_5  and  C_6
REMARK    3  A    between atoms: C_6  and  C_7
REMARK    4  A    between atoms: C_6  and  N_8
REMARK    5  A    between atoms: C_12  and  C_13
REMARK                            x       y       z     vdW  Elec       q    Type
REMARK                         _______ _______ _______ _____ _____    ______ ____
ROOT
ATOM      1  N   UNL     1      45.516   3.835  12.082  0.00  0.00    +0.000 N 
ATOM      2  C   UNL     1      46.019   5.074  12.502  0.00  0.00    +0.000 A 
ATOM      3  C   UNL     1      46.974   5.081  13.517  0.00  0.00    +0.000 A 
ATOM      4  C   UNL     1      47.501   6.294  13.966  0.00  0.00    +0.000 A 
ATOM      5  C   UNL     1      47.069   7.489  13.392  0.00  0.00    +0.000 A 
ATOM      6  C   UNL     1      46.108   7.393  12.401  0.00  0.00    +0.000 A 
ATOM      7  N   UNL     1      45.575   6.224  11.956  0.00  0.00    +0.000 NA
ATOM      8  H   UNL     1      46.298   3.245  11.811  0.00  0.00    +0.000 HD
ENDROOT
BRANCH   5   9
ATOM      9  C   UNL     1      47.646   8.771  13.866  0.00  0.00    +0.000 C 
ATOM     10  N   UNL     1      47.472   9.138  15.171  0.00  0.00    +0.000 N 
ATOM     11  O   UNL     1      48.264   9.506  13.104  0.00  0.00    +0.000 OA
ATOM     12  H   UNL     1      46.964   8.625  15.874  0.00  0.00    +0.000 HD
ATOM     13  H   UNL     1      47.874  10.027  15.445  0.00  0.00    +0.000 HD
ENDBRANCH   5   9
BRANCH   1  14
ATOM     14  C   UNL     1      44.483   3.860  11.041  0.00  0.00    +0.000 C 
ATOM     15  C   UNL     1      43.368   2.869  11.385  0.00  0.00    +0.000 C 
BRANCH  14  20
ATOM     16  C   UNL     1      47.007   2.575   5.923  0.00  0.00    +0.000 C 
ATOM     17  C   UNL     1      46.347   2.908   7.227  0.00  0.00    +0.000 A 
ATOM     18  C   UNL     1      46.192   4.236   7.636  0.00  0.00    +0.000 A 
ATOM     19  C   UNL     1      45.590   4.534   8.862  0.00  0.00    +0.000 A 
ATOM     20  C   UNL     1      45.128   3.510   9.704  0.00  0.00    +0.000 A 
ATOM     21  C   UNL     1      45.288   2.180   9.287  0.00  0.00    +0.000 A 
ATOM     22  C   UNL     1      45.889   1.883   8.061  0.00  0.00    +0.000 A 
ENDBRANCH  14  20
ENDBRANCH   1  14
TORSDOF 3
ENDMDL
MODEL 4
REMARK VINA RESULT:    -7.212      2.943      6.079
REMARK INTER + INTRA:          -8.752
REMARK INTER:                  -9.629
REMARK INTRA:                   0.877
REMARK UNBOUND:                -0.275
REMARK  Name = 
REMARK  5 active torsions:
REMARK  status: ('A' for Active; 'I' for Inactive)
REMARK    1  A    between atoms: C_1  and  C_2
REMARK    2  A    between atoms: C_5  and  C_6
REMARK    3  A    between atoms: C_6  and  C_7
REMARK    4  A    between atoms: C_6  and  N_8
REMARK    5  A    between atoms: C_12  and  C_13
REMARK                            x       y       z     vdW  Elec       q    Type
REMARK                         _______ _______ _______ _____ _____    ______ ____
ROOT
ATOM      1  N   UNL     1      44.272   5.510  10.519  0.00  0.00    +0.000 N 
ATOM      2  C   UNL     1      45.161   5.504  11.603  0.00  0.00    +0.000 A 
ATOM      3  C   UNL     1      45.708   6.720  12.006  0.00  0.00    +0.000 A 
ATOM      4  C   UNL     1      46.598   6.760  13.081  0.00  0.00    +0.000 A 
ATOM      5  C   UNL     1      46.929   5.581  13.746  0.00  0.00    +0.000 A 
ATOM      6  C   UNL     1      46.353   4.414  13.272  0.00  0.00    +0.000 A 
ATOM      7  N   UNL     1      45.493   4.353  12.222  0.00  0.00    +0.000 NA
ATOM      8  H   UNL     1      43.521   6.164  10.721  0.00  0.00    +0.000 HD
ENDROOT
BRANCH   5   9
ATOM      9  C   UNL     1      47.865   5.635  14.896  0.00  0.00    +0.000 C 
ATOM     10  N   UNL     1      47.493   5.073  16.086  0.00  0.00    +0.000 N 
ATOM     11  O   UNL     1      48.957   6.182  14.797  0.00  0.00    +0.000 OA
ATOM     12  H   UNL     1      46.614   4.622  16.285  0.00  0.00    +0.000 HD
ATOM     13  H   UNL     1      48.160   5.146  16.845  0.00  0.00    +0.000 HD
ENDBRANCH   5   9
BRANCH   1  14
ATOM     14  C   UNL     1      43.744   4.210  10.092  0.00  0.00    +0.000 C 
ATOM     15  C   UNL     1      43.453   3.335  11.314  0.00  0.00    +0.000 C 
BRANCH  14  20
ATOM     16  C   UNL     1      47.715   1.714   6.597  0.00  0.00    +0.000 C 
ATOM     17  C   UNL     1      46.688   2.354   7.481  0.00  0.00    +0.000 A 
ATOM     18  C   UNL     1      46.449   3.731   7.426  0.00  0.00    +0.000 A 
ATOM     19  C   UNL     1      45.500   4.319   8.267  0.00  0.00    +0.000 A 
ATOM     20  C   UNL     1      44.767   3.543   9.179  0.00  0.00    +0.000 A 
ATOM     21  C   UNL     1      45.012   2.162   9.228  0.00  0.00    +0.000 A 
ATOM     22  C   UNL     1      45.960   1.574   8.386  0.00  0.00    +0.000 A 
ENDBRANCH  14  20
ENDBRANCH   1  14
TORSDOF 3
ENDMDL
MODEL 5
REMARK VINA RESULT:    -6.542      4.330      6.469
REMARK INTER + INTRA:          -7.964
REMARK INTER:                  -7.499
REMARK INTRA:                  -0.465
REMARK UNBOUND:                -0.275
REMARK  Name = 
REMARK  5 active torsions:
REMARK  status: ('A' for Active; 'I' for Inactive)
REMARK    1  A    between atoms: C_1  and  C_2
REMARK    2  A    between atoms: C_5  and  C_6
REMARK    3  A    between atoms: C_6  and  C_7
REMARK    4  A    between atoms: C_6  and  N_8
REMARK    5  A    between atoms: C_12  and  C_13
REMARK                            x       y       z     vdW  Elec       q    Type
REMARK                         _______ _______ _______ _____ _____    ______ ____
ROOT
ATOM      1  N   UNL     1      47.875   5.408  15.696  0.00  0.00    +0.000 N 
ATOM      2  C   UNL     1      47.157   5.258  14.501  0.00  0.00    +0.000 A 
ATOM      3  C   UNL     1      47.297   6.245  13.527  0.00  0.00    +0.000 A 
ATOM      4  C   UNL     1      46.600   6.135  12.322  0.00  0.00    +0.000 A 
ATOM      5  C   UNL     1      45.771   5.036  12.102  0.00  0.00    +0.000 A 
ATOM      6  C   UNL     1      45.678   4.110  13.127  0.00  0.00    +0.000 A 
ATOM      7  N   UNL     1      46.339   4.203  14.311  0.00  0.00    +0.000 NA
ATOM      8  H   UNL     1      48.860   5.518  15.469  0.00  0.00    +0.000 HD
ENDROOT
BRANCH   5   9
ATOM      9  C   UNL     1      45.046   4.921  10.813  0.00  0.00    +0.000 C 
ATOM     10  N   UNL     1      45.548   5.549   9.707  0.00  0.00    +0.000 N 
ATOM     11  O   UNL     1      44.004   4.282  10.729  0.00  0.00    +0.000 OA
ATOM     12  H   UNL     1      46.379   6.118   9.668  0.00  0.00    +0.000 HD
ATOM     13  H   UNL     1      45.011   5.451   8.853  0.00  0.00    +0.000 HD
ENDBRANCH   5   9
BRANCH   1  14
ATOM     14  C   UNL     1      47.676   4.375  16.719  0.00  0.00    +0.000 C 
ATOM     15  C   UNL     1      47.073   4.997  17.981  0.00  0.00    +0.000 C 
BRANCH  14  20
ATOM     16  C   UNL     1      52.844   1.928  17.952  0.00  0.00    +0.000 C 
ATOM     17  C   UNL     1      51.526   2.561  17.623  0.00  0.00    +0.000 A 
ATOM     18  C   UNL     1      51.308   3.925  17.843  0.00  0.00    +0.000 A 
ATOM     19  C   UNL     1      50.069   4.500  17.548  0.00  0.00    +0.000 A 
ATOM     20  C   UNL     1      49.022   3.725  17.024  0.00  0.00    +0.000 A 
ATOM     21  C   UNL     1      49.248   2.358  16.806  0.00  0.00    +0.000 A 
ATOM     22  C   UNL     1      50.488   1.783  17.100  0.00  0.00    +0.000 A 
ENDBRANCH  14  20
ENDBRANCH   1  14
TORSDOF 3
ENDMDL
MODEL 6
REMARK VINA RESULT:    -5.669      5.662      8.349
REMARK INTER + INTRA:          -6.938
REMARK INTER:                  -6.437
REMARK INTRA:                  -0.500
REMARK UNBOUND:                -0.275
REMARK  Name = 
REMARK  5 active torsions:
REMARK  status: ('A' for Active; 'I' for Inactive)
REMARK    1  A    between atoms: C_1  and  C_2
REMARK    2  A    between atoms: C_5  and  C_6
REMARK    3  A    between atoms: C_6  and  C_7
REMARK    4  A    between atoms: C_6  and  N_8
REMARK    5  A    between atoms: C_12  and  C_13
REMARK                            x       y       z     vdW  Elec       q    Type
REMARK                         _______ _______ _______ _____ _____    ______ ____
ROOT
ATOM      1  N   UNL     1      48.233   7.184  14.754  0.00  0.00    +0.000 N 
ATOM      2  C   UNL     1      48.463   6.504  15.959  0.00  0.00    +0.000 A 
ATOM      3  C   UNL     1      48.513   7.254  17.132  0.00  0.00    +0.000 A 
ATOM      4  C   UNL     1      48.740   6.617  18.354  0.00  0.00    +0.000 A 
ATOM      5  C   UNL     1      48.911   5.234  18.390  0.00  0.00    +0.000 A 
ATOM      6  C   UNL     1      48.862   4.568  17.177  0.00  0.00    +0.000 A 
ATOM      7  N   UNL     1      48.652   5.169  15.977  0.00  0.00    +0.000 NA
ATOM      8  H   UNL     1      47.375   7.721  14.846  0.00  0.00    +0.000 HD
ENDROOT
BRANCH   5   9
ATOM      9  C   UNL     1      49.138   4.564  19.695  0.00  0.00    +0.000 C 
ATOM     10  N   UNL     1      48.427   3.436  19.997  0.00  0.00    +0.000 N 
ATOM     11  O   UNL     1      49.942   5.013  20.503  0.00  0.00    +0.000 OA
ATOM     12  H   UNL     1      47.727   2.997  19.420  0.00  0.00    +0.000 HD
ATOM     13  H   UNL     1      48.608   3.022  20.904  0.00  0.00    +0.000 HD
ENDBRANCH   5   9
BRANCH   1  14
ATOM     14  C   UNL     1      48.226   6.375  13.531  0.00  0.00    +0.000 C 
ATOM     15  C   UNL     1      49.069   7.054  12.449  0.00  0.00    +0.000 C 
BRANCH  14  20
ATOM     16  C   UNL     1      42.714   5.738  11.679  0.00  0.00    +0.000 C 
ATOM     17  C   UNL     1      44.122   5.913  12.163  0.00  0.00    +0.000 A 
ATOM     18  C   UNL     1      44.925   6.951  11.681  0.00  0.00    +0.000 A 
ATOM     19  C   UNL     1      46.242   7.094  12.127  0.00  0.00    +0.000 A 
ATOM     20  C   UNL     1      46.783   6.203  13.067  0.00  0.00    +0.000 A 
ATOM     21  C   UNL     1      45.972   5.163  13.546  0.00  0.00    +0.000 A 
ATOM     22  C   UNL     1      44.655   5.022  13.101  0.00  0.00    +0.000 A 
ENDBRANCH  14  20
ENDBRANCH   1  14
TORSDOF 3
ENDMDL
MODEL 7
REMARK VINA RESULT:    -5.661      5.522      7.610
REMARK INTER + INTRA:          -6.929
REMARK INTER:                  -6.435
REMARK INTRA:                  -0.494
REMARK UNBOUND:                -0.275
REMARK  Name = 
REMARK  5 active torsions:
REMARK  status: ('A' for Active; 'I' for Inactive)
REMARK    1  A    between atoms: C_1  and  C_2
REMARK    2  A    between atoms: C_5  and  C_6
REMARK    3  A    between atoms: C_6  and  C_7
REMARK    4  A    between atoms: C_6  and  N_8
REMARK    5  A    between atoms: C_12  and  C_13
REMARK                            x       y       z     vdW  Elec       q    Type
REMARK                         _______ _______ _______ _____ _____    ______ ____
ROOT
ATOM      1  N   UNL     1      48.982   7.558  13.792  0.00  0.00    +0.000 N 
ATOM      2  C   UNL     1      48.572   6.591  14.721  0.00  0.00    +0.000 A 
ATOM      3  C   UNL     1      48.998   6.731  16.040  0.00  0.00    +0.000 A 
ATOM      4  C   UNL     1      48.613   5.791  16.998  0.00  0.00    +0.000 A 
ATOM      5  C   UNL     1      47.802   4.719  16.625  0.00  0.00    +0.000 A 
ATOM      6  C   UNL     1      47.437   4.647  15.292  0.00  0.00    +0.000 A 
ATOM      7  N   UNL     1      47.809   5.546  14.343  0.00  0.00    +0.000 NA
ATOM      8  H   UNL     1      48.707   8.474  14.137  0.00  0.00    +0.000 HD
ENDROOT
BRANCH   5   9
ATOM      9  C   UNL     1      47.387   3.733  17.653  0.00  0.00    +0.000 C 
ATOM     10  N   UNL     1      47.993   3.751  18.878  0.00  0.00    +0.000 N 
ATOM     11  O   UNL     1      46.519   2.901  17.416  0.00  0.00    +0.000 OA
ATOM     12  H   UNL     1      48.731   4.372  19.172  0.00  0.00    +0.000 HD
ATOM     13  H   UNL     1      47.684   3.051  19.543  0.00  0.00    +0.000 HD
ENDBRANCH   5   9
BRANCH   1  14
ATOM     14  C   UNL     1      48.553   7.362  12.403  0.00  0.00    +0.000 C 
ATOM     15  C   UNL     1      49.687   7.738  11.446  0.00  0.00    +0.000 C 
BRANCH  14  20
ATOM     16  C   UNL     1      43.780  10.610  11.463  0.00  0.00    +0.000 C 
ATOM     17  C   UNL     1      45.004   9.775  11.689  0.00  0.00    +0.000 A 
ATOM     18  C   UNL     1      44.933   8.379  11.685  0.00  0.00    +0.000 A 
ATOM     19  C   UNL     1      46.078   7.611  11.914  0.00  0.00    +0.000 A 
ATOM     20  C   UNL     1      47.320   8.223  12.147  0.00  0.00    +0.000 A 
ATOM     21  C   UNL     1      47.383   9.624  12.150  0.00  0.00    +0.000 A 
ATOM     22  C   UNL     1      46.238  10.392  11.920  0.00  0.00    +0.000 A 
ENDBRANCH  14  20
ENDBRANCH   1  14
TORSDOF 3
ENDMDL
MODEL 8
REMARK VINA RESULT:    -5.373      4.136      5.834
REMARK INTER + INTRA:          -6.591
REMARK INTER:                  -6.140
REMARK INTRA:                  -0.450
REMARK UNBOUND:                -0.275
REMARK  Name = 
REMARK  5 active torsions:
REMARK  status: ('A' for Active; 'I' for Inactive)
REMARK    1  A    between atoms: C_1  and  C_2
REMARK    2  A    between atoms: C_5  and  C_6
REMARK    3  A    between atoms: C_6  and  C_7
REMARK    4  A    between atoms: C_6  and  N_8
REMARK    5  A    between atoms: C_12  and  C_13
REMARK                            x       y       z     vdW  Elec       q    Type
REMARK                         _______ _______ _______ _____ _____    ______ ____
ROOT
ATOM      1  N   UNL     1      47.069   8.127  12.089  0.00  0.00    +0.000 N 
ATOM      2  C   UNL     1      46.372   6.911  12.070  0.00  0.00    +0.000 A 
ATOM      3  C   UNL     1      45.209   6.837  11.307  0.00  0.00    +0.000 A 
ATOM      4  C   UNL     1      44.483   5.645  11.260  0.00  0.00    +0.000 A 
ATOM      5  C   UNL     1      44.931   4.536  11.976  0.00  0.00    +0.000 A 
ATOM      6  C   UNL     1      46.087   4.699  12.720  0.00  0.00    +0.000 A 
ATOM      7  N   UNL     1      46.802   5.853  12.787  0.00  0.00    +0.000 NA
ATOM      8  H   UNL     1      47.280   8.393  11.130  0.00  0.00    +0.000 HD
ENDROOT
BRANCH   5   9
ATOM      9  C   UNL     1      44.161   3.270  11.909  0.00  0.00    +0.000 C 
ATOM     10  N   UNL     1      44.143   2.561  10.740  0.00  0.00    +0.000 N 
ATOM     11  O   UNL     1      43.536   2.858  12.880  0.00  0.00    +0.000 OA
ATOM     12  H   UNL     1      44.597   2.818   9.878  0.00  0.00    +0.000 HD
ATOM     13  H   UNL     1      43.594   1.710  10.740  0.00  0.00    +0.000 HD
ENDBRANCH   5   9
BRANCH   1  14
ATOM     14  C   UNL     1      48.268   8.187  12.932  0.00  0.00    +0.000 C 
ATOM     15  C   UNL     1      48.029   9.128  14.116  0.00  0.00    +0.000 C 
BRANCH  14  20
ATOM     16  C   UNL     1      52.764  10.104   9.719  0.00  0.00    +0.000 C 
ATOM     17  C   UNL     1      51.603   9.613  10.530  0.00  0.00    +0.000 A 
ATOM     18  C   UNL     1      50.622  10.498  10.991  0.00  0.00    +0.000 A 
ATOM     19  C   UNL     1      49.553  10.031  11.760  0.00  0.00    +0.000 A 
ATOM     20  C   UNL     1      49.439   8.670  12.083  0.00  0.00    +0.000 A 
ATOM     21  C   UNL     1      50.427   7.788  11.618  0.00  0.00    +0.000 A 
ATOM     22  C   UNL     1      51.495   8.255  10.847  0.00  0.00    +0.000 A 
ENDBRANCH  14  20
ENDBRANCH   1  14
TORSDOF 3
ENDMDL
MODEL 9
REMARK VINA RESULT:    -5.370      3.342      5.778
REMARK INTER + INTRA:          -6.587
REMARK INTER:                  -6.252
REMARK INTRA:                  -0.335
REMARK UNBOUND:                -0.275
REMARK  Name = 
REMARK  5 active torsions:
REMARK  status: ('A' for Active; 'I' for Inactive)
REMARK    1  A    between atoms: C_1  and  C_2
REMARK    2  A    between atoms: C_5  and  C_6
REMARK    3  A    between atoms: C_6  and  C_7
REMARK    4  A    between atoms: C_6  and  N_8
REMARK    5  A    between atoms: C_12  and  C_13
REMARK                            x       y       z     vdW  Elec       q    Type
REMARK                         _______ _______ _______ _____ _____    ______ ____
ROOT
ATOM      1  N   UNL     1      47.730   5.997  14.260  0.00  0.00    +0.000 N 
ATOM      2  C   UNL     1      46.799   5.541  13.317  0.00  0.00    +0.000 A 
ATOM      3  C   UNL     1      46.335   4.233  13.437  0.00  0.00    +0.000 A 
ATOM      4  C   UNL     1      45.406   3.739  12.518  0.00  0.00    +0.000 A 
ATOM      5  C   UNL     1      44.949   4.560  11.489  0.00  0.00    +0.000 A 
ATOM      6  C   UNL     1      45.473   5.840  11.434  0.00  0.00    +0.000 A 
ATOM      7  N   UNL     1      46.383   6.338  12.311  0.00  0.00    +0.000 NA
ATOM      8  H   UNL     1      47.340   5.864  15.189  0.00  0.00    +0.000 HD
ENDROOT
BRANCH   5   9
ATOM      9  C   UNL     1      43.952   4.030  10.526  0.00  0.00    +0.000 C 
ATOM     10  N   UNL     1      43.959   4.489   9.239  0.00  0.00    +0.000 N 
ATOM     11  O   UNL     1      43.121   3.197  10.871  0.00  0.00    +0.000 OA
ATOM     12  H   UNL     1      44.578   5.186   8.856  0.00  0.00    +0.000 HD
ATOM     13  H   UNL     1      43.252   4.106   8.622  0.00  0.00    +0.000 HD
ENDBRANCH   5   9
BRANCH   1  14
ATOM     14  C   UNL     1      48.232   7.364  14.085  0.00  0.00    +0.000 C 
ATOM     15  C   UNL     1      49.494   7.353  13.218  0.00  0.00    +0.000 C 
BRANCH  14  20
ATOM     16  C   UNL     1      49.417   9.602  19.358  0.00  0.00    +0.000 C 
ATOM     17  C   UNL     1      49.101   9.020  18.013  0.00  0.00    +0.000 A 
ATOM     18  C   UNL     1      49.472   7.712  17.690  0.00  0.00    +0.000 A 
ATOM     19  C   UNL     1      49.187   7.186  16.426  0.00  0.00    +0.000 A 
ATOM     20  C   UNL     1      48.523   7.957  15.460  0.00  0.00    +0.000 A 
ATOM     21  C   UNL     1      48.154   9.270  15.791  0.00  0.00    +0.000 A 
ATOM     22  C   UNL     1      48.438   9.795  17.055  0.00  0.00    +0.000 A 
ENDBRANCH  14  20
ENDBRANCH   1  14
TORSDOF 3
ENDMDL
