MODEL 1
REMARK VINA RESULT:    -8.446      0.000      0.000
REMARK INTER + INTRA:         -11.624
REMARK INTER:                 -10.915
REMARK INTRA:                  -0.710
REMARK UNBOUND:                -0.710
REMARK  Name = 
REMARK  5 active torsions:
REMARK  status: ('A' for Active; 'I' for Inactive)
REMARK    1  A    between atoms: C_2  and  C_3
REMARK    2  A    between atoms: C_6  and  N_7
REMARK    3  A    between atoms: N_7  and  C_8
REMARK    4  A    between atoms: C_8  and  C_9
REMARK    5  A    between atoms: C_11  and  C_12
REMARK                            x       y       z     vdW  Elec       q    Type
REMARK                         _______ _______ _______ _____ _____    ______ ____
ROOT
ATOM      1  C   UNL     1      43.878   4.894  11.312  0.00  0.00    +0.000 C 
ATOM      2  C   UNL     1      42.633   5.018  12.188  0.00  0.00    +0.000 C 
ATOM      3  C   UNL     1      43.043   6.165  11.323  0.00  0.00    +0.000 C 
ENDROOT
BRANCH   1   4
ATOM      4  C   UNL     1      45.223   4.981  12.042  0.00  0.00    +0.000 A 
ATOM      5  C   UNL     1      46.086   6.033  11.741  0.00  0.00    +0.000 A 
ATOM      6  C   UNL     1      47.156   6.365  12.579  0.00  0.00    +0.000 A 
ATOM      7  C   UNL     1      47.348   5.550  13.697  0.00  0.00    +0.000 A 
ATOM      8  C   UNL     1      46.520   4.454  13.885  0.00  0.00    +0.000 A 
ATOM      9  N   UNL     1      45.474   4.156  13.088  0.00  0.00    +0.000 NA
BRANCH   6  10
ATOM     10  C   UNL     1      48.015   7.528  12.266  0.00  0.00    +0.000 A 
ATOM     11  C   UNL     1      47.481   8.833  12.156  0.00  0.00    +0.000 A 
ATOM     12  C   UNL     1      48.270   9.914  11.744  0.00  0.00    +0.000 A 
ATOM     13  C   UNL     1      49.610   9.722  11.464  0.00  0.00    +0.000 A 
ATOM     14  C   UNL     1      50.161   8.458  11.617  0.00  0.00    +0.000 A 
ATOM     15  F   UNL     1      51.463   8.273  11.360  0.00  0.00    +0.000 F 
ATOM     16  C   UNL     1      49.385   7.373  12.012  0.00  0.00    +0.000 A 
ENDBRANCH   6  10
ENDBRANCH   1   4
BRANCH   1  17
ATOM     17  N   UNL     1      43.781   3.906  10.239  0.00  0.00    +0.000 N 
ATOM     18  H   UNL     1      43.025   3.226  10.271  0.00  0.00    +0.000 HD
BRANCH  17  22
ATOM     19  C   UNL     1      46.549   2.529   7.538  0.00  0.00    +0.000 A 
ATOM     20  C   UNL     1      45.924   1.708   8.457  0.00  0.00    +0.000 A 
ATOM     21  N   UNL     1      45.027   2.174   9.363  0.00  0.00    +0.000 NA
ATOM     22  C   UNL     1      44.746   3.498   9.331  0.00  0.00    +0.000 A 
ATOM     23  C   UNL     1      45.381   4.311   8.393  0.00  0.00    +0.000 A 
ATOM     24  N   UNL     1      46.297   3.860   7.488  0.00  0.00    +0.000 NA
BRANCH  19  26
ATOM     25  N   UNL     1      48.251   1.595   5.817  0.00  0.00    +0.000 NA
ATOM     26  C   UNL     1      47.469   1.987   6.582  0.00  0.00    +0.000 C 
ENDBRANCH  19  26
ENDBRANCH  17  22
ENDBRANCH   1  17
TORSDOF 5
ENDMDL
MODEL 2
REMARK VINA RESULT:    -8.215      3.451      7.105
REMARK INTER + INTRA:         -11.325
REMARK INTER:                 -10.577
REMARK INTRA:                  -0.748
REMARK UNBOUND:                -0.710
REMARK  Name = 
REMARK  5 active torsions:
REMARK  status: ('A' for Active; 'I' for Inactive)
REMARK    1  A    between atoms: C_2  and  C_3
REMARK    2  A    between atoms: C_6  and  N_7
REMARK    3  A    between atoms: N_7  and  C_8
REMARK    4  A    between atoms: C_8  and  C_9
REMARK    5  A    between atoms: C_11  and  C_12
REMARK                            x       y       z     vdW  Elec       q    Type
REMARK                         _______ _______ _______ _____ _____    ______ ____
ROOT
ATOM      1  C   UNL     1      46.159   6.985  12.130  0.00  0.00    +0.000 C 
ATOM      2  C   UNL     1      46.357   8.453  11.759  0.00  0.00    +0.000 C 
ATOM      3  C   UNL     1      45.472   8.097  12.908  0.00  0.00    +0.000 C 
ENDROOT
BRANCH   1   4
ATOM      4  C   UNL     1      45.252   6.173  11.199  0.00  0.00    +0.000 A 
ATOM      5  C   UNL     1      45.834   5.380  10.213  0.00  0.00    +0.000 A 
ATOM      6  C   UNL     1      45.111   4.376   9.559  0.00  0.00    +0.000 A 
ATOM      7  C   UNL     1      43.763   4.255   9.903  0.00  0.00    +0.000 A 
ATOM      8  C   UNL     1      43.215   5.144  10.814  0.00  0.00    +0.000 A 
ATOM      9  N   UNL     1      43.924   6.091  11.461  0.00  0.00    +0.000 NA
BRANCH   6  10
ATOM     10  C   UNL     1      45.776   3.508   8.563  0.00  0.00    +0.000 A 
ATOM     11  C   UNL     1      46.321   4.035   7.369  0.00  0.00    +0.000 A 
ATOM     12  C   UNL     1      46.843   3.202   6.373  0.00  0.00    +0.000 A 
ATOM     13  C   UNL     1      46.863   1.832   6.560  0.00  0.00    +0.000 A 
ATOM     14  C   UNL     1      46.381   1.302   7.749  0.00  0.00    +0.000 A 
ATOM     15  F   UNL     1      46.412  -0.023   7.938  0.00  0.00    +0.000 F 
ATOM     16  C   UNL     1      45.845   2.119   8.740  0.00  0.00    +0.000 A 
ENDBRANCH   6  10
ENDBRANCH   1   4
BRANCH   1  17
ATOM     17  N   UNL     1      47.356   6.309  12.628  0.00  0.00    +0.000 N 
ATOM     18  H   UNL     1      48.112   6.116  11.976  0.00  0.00    +0.000 HD
BRANCH  17  22
ATOM     19  C   UNL     1      47.861   4.262  16.151  0.00  0.00    +0.000 A 
ATOM     20  C   UNL     1      48.392   5.519  15.930  0.00  0.00    +0.000 A 
ATOM     21  N   UNL     1      48.241   6.180  14.754  0.00  0.00    +0.000 NA
ATOM     22  C   UNL     1      47.526   5.562  13.784  0.00  0.00    +0.000 A 
ATOM     23  C   UNL     1      46.993   4.297  14.025  0.00  0.00    +0.000 A 
ATOM     24  N   UNL     1      47.151   3.613  15.196  0.00  0.00    +0.000 NA
BRANCH  19  26
ATOM     25  N   UNL     1      48.212   3.110  18.448  0.00  0.00    +0.000 NA
ATOM     26  C   UNL     1      48.024   3.614  17.419  0.00  0.00    +0.000 C 
ENDBRANCH  19  26
ENDBRANCH  17  22
ENDBRANCH   1  17
TORSDOF 5
ENDMDL
MODEL 3
REMARK VINA RESULT:    -7.851      2.189      3.711
REMARK INTER + INTRA:         -10.856
REMARK INTER:                 -10.864
REMARK INTRA:                   0.008
REMARK UNBOUND:                -0.710
REMARK  Name = 
REMARK  5 active torsions:
REMARK  status: ('A' for Active; 'I' for Inactive)
REMARK    1  A    between atoms: C_2  and  C_3
REMARK    2  A    between atoms: C_6  and  N_7
REMARK    3  A    between atoms: N_7  and  C_8
REMARK    4  A    between atoms: C_8  and  C_9
REMARK    5  A    between atoms: C_11  and  C_12
REMARK                            x       y       z     vdW  Elec       q    Type
REMARK                         _______ _______ _______ _____ _____    ______ ____
ROOT
ATOM      1  C   UNL     1      43.937   4.964  11.441  0.00  0.00    +0.000 C 
ATOM      2  C   UNL     1      43.380   3.826  12.293  0.00  0.00    +0.000 C 
ATOM      3  C   UNL     1      42.674   5.142  12.269  0.00  0.00    +0.000 C 
ENDROOT
BRANCH   1   4
ATOM      4  C   UNL     1      45.188   5.661  11.987  0.00  0.00    +0.000 A 
ATOM      5  C   UNL     1      45.708   5.251  13.213  0.00  0.00    +0.000 A 
ATOM      6  C   UNL     1      47.004   5.596  13.611  0.00  0.00    +0.000 A 
ATOM      7  C   UNL     1      47.723   6.423  12.745  0.00  0.00    +0.000 A 
ATOM      8  C   UNL     1      47.112   6.885  11.590  0.00  0.00    +0.000 A 
ATOM      9  N   UNL     1      45.873   6.526  11.198  0.00  0.00    +0.000 NA
BRANCH   6  10
ATOM     10  C   UNL     1      47.550   5.090  14.890  0.00  0.00    +0.000 A 
ATOM     11  C   UNL     1      47.239   3.796  15.366  0.00  0.00    +0.000 A 
ATOM     12  C   UNL     1      47.657   3.360  16.629  0.00  0.00    +0.000 A 
ATOM     13  C   UNL     1      48.420   4.192  17.427  0.00  0.00    +0.000 A 
ATOM     14  C   UNL     1      48.778   5.447  16.953  0.00  0.00    +0.000 A 
ATOM     15  F   UNL     1      49.529   6.249  17.719  0.00  0.00    +0.000 F 
ATOM     16  C   UNL     1      48.357   5.896  15.705  0.00  0.00    +0.000 A 
ENDBRANCH   6  10
ENDBRANCH   1   4
BRANCH   1  17
ATOM     17  N   UNL     1      43.897   4.731   9.998  0.00  0.00    +0.000 N 
ATOM     18  H   UNL     1      43.028   4.908   9.501  0.00  0.00    +0.000 HD
BRANCH  17  22
ATOM     19  C   UNL     1      46.548   2.652   7.652  0.00  0.00    +0.000 A 
ATOM     20  C   UNL     1      46.400   4.024   7.582  0.00  0.00    +0.000 A 
ATOM     21  N   UNL     1      45.505   4.703   8.344  0.00  0.00    +0.000 NA
ATOM     22  C   UNL     1      44.751   3.979   9.206  0.00  0.00    +0.000 A 
ATOM     23  C   UNL     1      44.917   2.596   9.268  0.00  0.00    +0.000 A 
ATOM     24  N   UNL     1      45.800   1.899   8.496  0.00  0.00    +0.000 NA
BRANCH  19  26
ATOM     25  N   UNL     1      48.293   1.464   6.145  0.00  0.00    +0.000 NA
ATOM     26  C   UNL     1      47.525   1.982   6.847  0.00  0.00    +0.000 C 
ENDBRANCH  19  26
ENDBRANCH  17  22
ENDBRANCH   1  17
TORSDOF 5
ENDMDL
MODEL 4
REMARK VINA RESULT:    -7.018      1.545      2.185
REMARK INTER + INTRA:          -9.779
REMARK INTER:                  -9.749
REMARK INTRA:                  -0.030
REMARK UNBOUND:                -0.710
REMARK  Name = 
REMARK  5 active torsions:
REMARK  status: ('A' for Active; 'I' for Inactive)
REMARK    1  A    between atoms: C_2  and  C_3
REMARK    2  A    between atoms: C_6  and  N_7
REMARK    3  A    between atoms: N_7  and  C_8
REMARK    4  A    between atoms: C_8  and  C_9
REMARK    5  A    between atoms: C_11  and  C_12
REMARK                            x       y       z     vdW  Elec       q    Type
REMARK                         _______ _______ _______ _____ _____    ______ ____
ROOT
ATOM      1  C   UNL     1      44.175   4.318  11.601  0.00  0.00    +0.000 C 
ATOM      2  C   UNL     1      44.852   3.288  12.500  0.00  0.00    +0.000 C 
ATOM      3  C   UNL     1      43.429   3.664  12.753  0.00  0.00    +0.000 C 
ENDROOT
BRANCH   1   4
ATOM      4  C   UNL     1      44.585   5.779  11.825  0.00  0.00    +0.000 A 
ATOM      5  C   UNL     1      45.883   6.057  12.247  0.00  0.00    +0.000 A 
ATOM      6  C   UNL     1      46.423   7.344  12.153  0.00  0.00    +0.000 A 
ATOM      7  C   UNL     1      45.572   8.344  11.674  0.00  0.00    +0.000 A 
ATOM      8  C   UNL     1      44.258   8.025  11.372  0.00  0.00    +0.000 A 
ATOM      9  N   UNL     1      43.752   6.776  11.438  0.00  0.00    +0.000 NA
BRANCH   6  10
ATOM     10  C   UNL     1      47.827   7.594  12.548  0.00  0.00    +0.000 A 
ATOM     11  C   UNL     1      48.746   8.203  11.663  0.00  0.00    +0.000 A 
ATOM     12  C   UNL     1      50.101   8.332  11.991  0.00  0.00    +0.000 A 
ATOM     13  C   UNL     1      50.559   7.887  13.218  0.00  0.00    +0.000 A 
ATOM     14  C   UNL     1      49.659   7.335  14.119  0.00  0.00    +0.000 A 
ATOM     15  F   UNL     1      50.098   6.917  15.313  0.00  0.00    +0.000 F 
ATOM     16  C   UNL     1      48.313   7.188  13.799  0.00  0.00    +0.000 A 
ENDBRANCH   6  10
ENDBRANCH   1   4
BRANCH   1  17
ATOM     17  N   UNL     1      43.989   3.899  10.213  0.00  0.00    +0.000 N 
ATOM     18  H   UNL     1      43.066   3.592   9.916  0.00  0.00    +0.000 HD
BRANCH  17  22
ATOM     19  C   UNL     1      46.704   2.599   7.420  0.00  0.00    +0.000 A 
ATOM     20  C   UNL     1      46.057   1.745   8.293  0.00  0.00    +0.000 A 
ATOM     21  N   UNL     1      45.178   2.184   9.229  0.00  0.00    +0.000 NA
ATOM     22  C   UNL     1      44.938   3.516   9.276  0.00  0.00    +0.000 A 
ATOM     23  C   UNL     1      45.594   4.363   8.385  0.00  0.00    +0.000 A 
ATOM     24  N   UNL     1      46.493   3.938   7.450  0.00  0.00    +0.000 NA
BRANCH  19  26
ATOM     25  N   UNL     1      48.357   1.725   5.622  0.00  0.00    +0.000 NA
ATOM     26  C   UNL     1      47.603   2.087   6.429  0.00  0.00    +0.000 C 
ENDBRANCH  19  26
ENDBRANCH  17  22
ENDBRANCH   1  17
TORSDOF 5
ENDMDL
MODEL 5
REMARK VINA RESULT:    -6.634      3.391      6.957
REMARK INTER + INTRA:          -9.282
REMARK INTER:                  -8.704
REMARK INTRA:                  -0.578
REMARK UNBOUND:                -0.710
REMARK  Name = 
REMARK  5 active torsions:
REMARK  status: ('A' for Active; 'I' for Inactive)
REMARK    1  A    between atoms: C_2  and  C_3
REMARK    2  A    between atoms: C_6  and  N_7
REMARK    3  A    between atoms: N_7  and  C_8
REMARK    4  A    between atoms: C_8  and  C_9
REMARK    5  A    between atoms: C_11  and  C_12
REMARK                            x       y       z     vdW  Elec       q    Type
REMARK                         _______ _______ _______ _____ _____    ______ ____
ROOT
ATOM      1  C   UNL     1      46.077   5.661  12.952  0.00  0.00    +0.000 C 
ATOM      2  C   UNL     1      45.883   4.702  14.124  0.00  0.00    +0.000 C 
ATOM      3  C   UNL     1      47.138   4.636  13.318  0.00  0.00    +0.000 C 
ENDROOT
BRANCH   1   4
ATOM      4  C   UNL     1      45.267   5.350  11.688  0.00  0.00    +0.000 A 
ATOM      5  C   UNL     1      45.886   4.670  10.641  0.00  0.00    +0.000 A 
ATOM      6  C   UNL     1      45.143   4.068   9.619  0.00  0.00    +0.000 A 
ATOM      7  C   UNL     1      43.758   4.238   9.672  0.00  0.00    +0.000 A 
ATOM      8  C   UNL     1      43.210   5.014  10.680  0.00  0.00    +0.000 A 
ATOM      9  N   UNL     1      43.929   5.568  11.678  0.00  0.00    +0.000 NA
BRANCH   6  10
ATOM     10  C   UNL     1      45.827   3.298   8.556  0.00  0.00    +0.000 A 
ATOM     11  C   UNL     1      46.294   3.921   7.376  0.00  0.00    +0.000 A 
ATOM     12  C   UNL     1      46.833   3.178   6.320  0.00  0.00    +0.000 A 
ATOM     13  C   UNL     1      46.947   1.804   6.431  0.00  0.00    +0.000 A 
ATOM     14  C   UNL     1      46.541   1.183   7.604  0.00  0.00    +0.000 A 
ATOM     15  F   UNL     1      46.663  -0.146   7.719  0.00  0.00    +0.000 F 
ATOM     16  C   UNL     1      45.990   1.909   8.655  0.00  0.00    +0.000 A 
ENDBRANCH   6  10
ENDBRANCH   1   4
BRANCH   1  17
ATOM     17  N   UNL     1      46.194   7.071  13.320  0.00  0.00    +0.000 N 
ATOM     18  H   UNL     1      45.455   7.490  13.880  0.00  0.00    +0.000 HD
BRANCH  17  22
ATOM     19  C   UNL     1      48.638   9.873  11.580  0.00  0.00    +0.000 A 
ATOM     20  C   UNL     1      49.098   8.648  12.025  0.00  0.00    +0.000 A 
ATOM     21  N   UNL     1      48.289   7.735  12.620  0.00  0.00    +0.000 NA
ATOM     22  C   UNL     1      46.982   8.064  12.759  0.00  0.00    +0.000 A 
ATOM     23  C   UNL     1      46.534   9.301  12.300  0.00  0.00    +0.000 A 
ATOM     24  N   UNL     1      47.339  10.235  11.715  0.00  0.00    +0.000 NA
BRANCH  19  26
ATOM     25  N   UNL     1      50.229  11.515  10.354  0.00  0.00    +0.000 NA
ATOM     26  C   UNL     1      49.525  10.793  10.932  0.00  0.00    +0.000 C 
ENDBRANCH  19  26
ENDBRANCH  17  22
ENDBRANCH   1  17
TORSDOF 5
ENDMDL
MODEL 6
REMARK VINA RESULT:    -6.466      3.827      7.749
REMARK INTER + INTRA:          -9.065
REMARK INTER:                  -8.393
REMARK INTRA:                  -0.672
REMARK UNBOUND:                -0.710
REMARK  Name = 
REMARK  5 active torsions:
REMARK  status: ('A' for Active; 'I' for Inactive)
REMARK    1  A    between atoms: C_2  and  C_3
REMARK    2  A    between atoms: C_6  and  N_7
REMARK    3  A    between atoms: N_7  and  C_8
REMARK    4  A    between atoms: C_8  and  C_9
REMARK    5  A    between atoms: C_11  and  C_12
REMARK                            x       y       z     vdW  Elec       q    Type
REMARK                         _______ _______ _______ _____ _____    ______ ____
ROOT
ATOM      1  C   UNL     1      48.918   7.828  12.528  0.00  0.00    +0.000 C 
ATOM      2  C   UNL     1      49.887   8.178  11.401  0.00  0.00    +0.000 C 
ATOM      3  C   UNL     1      49.520   9.219  12.407  0.00  0.00    +0.000 C 
ENDROOT
BRANCH   1   4
ATOM      4  C   UNL     1      47.442   7.710  12.133  0.00  0.00    +0.000 A 
ATOM      5  C   UNL     1      47.041   6.641  11.334  0.00  0.00    +0.000 A 
ATOM      6  C   UNL     1      45.694   6.285  11.211  0.00  0.00    +0.000 A 
ATOM      7  C   UNL     1      44.771   7.094  11.878  0.00  0.00    +0.000 A 
ATOM      8  C   UNL     1      45.224   8.206  12.570  0.00  0.00    +0.000 A 
ATOM      9  N   UNL     1      46.526   8.528  12.708  0.00  0.00    +0.000 NA
BRANCH   6  10
ATOM     10  C   UNL     1      45.306   5.105  10.407  0.00  0.00    +0.000 A 
ATOM     11  C   UNL     1      44.582   4.030  10.973  0.00  0.00    +0.000 A 
ATOM     12  C   UNL     1      44.318   2.863  10.248  0.00  0.00    +0.000 A 
ATOM     13  C   UNL     1      44.741   2.756   8.936  0.00  0.00    +0.000 A 
ATOM     14  C   UNL     1      45.407   3.822   8.348  0.00  0.00    +0.000 A 
ATOM     15  F   UNL     1      45.806   3.727   7.073  0.00  0.00    +0.000 F 
ATOM     16  C   UNL     1      45.688   4.983   9.064  0.00  0.00    +0.000 A 
ENDBRANCH   6  10
ENDBRANCH   1   4
BRANCH   1  17
ATOM     17  N   UNL     1      49.417   6.843  13.486  0.00  0.00    +0.000 N 
ATOM     18  H   UNL     1      49.878   6.008  13.131  0.00  0.00    +0.000 HD
BRANCH  17  22
ATOM     19  C   UNL     1      48.430   6.127  17.407  0.00  0.00    +0.000 A 
ATOM     20  C   UNL     1      48.057   5.288  16.373  0.00  0.00    +0.000 A 
ATOM     21  N   UNL     1      48.367   5.543  15.076  0.00  0.00    +0.000 NA
ATOM     22  C   UNL     1      49.081   6.665  14.820  0.00  0.00    +0.000 A 
ATOM     23  C   UNL     1      49.454   7.497  15.874  0.00  0.00    +0.000 A 
ATOM     24  N   UNL     1      49.135   7.262  17.180  0.00  0.00    +0.000 NA
BRANCH  19  26
ATOM     25  N   UNL     1      47.854   5.595  19.879  0.00  0.00    +0.000 NA
ATOM     26  C   UNL     1      48.104   5.802  18.763  0.00  0.00    +0.000 C 
ENDBRANCH  19  26
ENDBRANCH  17  22
ENDBRANCH   1  17
TORSDOF 5
ENDMDL
MODEL 7
REMARK VINA RESULT:    -6.369      3.198      7.000
REMARK INTER + INTRA:          -8.940
REMARK INTER:                  -8.343
REMARK INTRA:                  -0.598
REMARK UNBOUND:                -0.710
REMARK  Name = 
REMARK  5 active torsions:
REMARK  status: ('A' for Active; 'I' for Inactive)
REMARK    1  A    between atoms: C_2  and  C_3
REMARK    2  A    between atoms: C_6  and  N_7
REMARK    3  A    between atoms: N_7  and  C_8
REMARK    4  A    between atoms: C_8  and  C_9
REMARK    5  A    between atoms: C_11  and  C_12
REMARK                            x       y       z     vdW  Elec       q    Type
REMARK                         _______ _______ _______ _____ _____    ______ ____
ROOT
ATOM      1  C   UNL     1      46.138   5.321  12.917  0.00  0.00    +0.000 C 
ATOM      2  C   UNL     1      45.662   4.521  14.127  0.00  0.00    +0.000 C 
ATOM      3  C   UNL     1      46.888   4.087  13.392  0.00  0.00    +0.000 C 
ENDROOT
BRANCH   1   4
ATOM      4  C   UNL     1      45.323   5.144  11.631  0.00  0.00    +0.000 A 
ATOM      5  C   UNL     1      45.869   4.405  10.583  0.00  0.00    +0.000 A 
ATOM      6  C   UNL     1      45.076   3.927   9.534  0.00  0.00    +0.000 A 
ATOM      7  C   UNL     1      43.725   4.281   9.562  0.00  0.00    +0.000 A 
ATOM      8  C   UNL     1      43.264   5.107  10.575  0.00  0.00    +0.000 A 
ATOM      9  N   UNL     1      44.027   5.542  11.597  0.00  0.00    +0.000 NA
BRANCH   6  10
ATOM     10  C   UNL     1      45.674   3.090   8.470  0.00  0.00    +0.000 A 
ATOM     11  C   UNL     1      45.924   1.712   8.666  0.00  0.00    +0.000 A 
ATOM     12  C   UNL     1      46.596   0.947   7.707  0.00  0.00    +0.000 A 
ATOM     13  C   UNL     1      47.004   1.530   6.521  0.00  0.00    +0.000 A 
ATOM     14  C   UNL     1      46.720   2.869   6.291  0.00  0.00    +0.000 A 
ATOM     15  F   UNL     1      47.102   3.433   5.138  0.00  0.00    +0.000 F 
ATOM     16  C   UNL     1      46.065   3.644   7.243  0.00  0.00    +0.000 A 
ENDBRANCH   6  10
ENDBRANCH   1   4
BRANCH   1  17
ATOM     17  N   UNL     1      46.598   6.677  13.216  0.00  0.00    +0.000 N 
ATOM     18  H   UNL     1      45.905   7.413  13.322  0.00  0.00    +0.000 HD
BRANCH  17  22
ATOM     19  C   UNL     1      50.385   8.230  12.889  0.00  0.00    +0.000 A 
ATOM     20  C   UNL     1      49.794   7.941  14.105  0.00  0.00    +0.000 A 
ATOM     21  N   UNL     1      48.532   7.450  14.206  0.00  0.00    +0.000 NA
ATOM     22  C   UNL     1      47.858   7.233  13.052  0.00  0.00    +0.000 A 
ATOM     23  C   UNL     1      48.470   7.525  11.835  0.00  0.00    +0.000 A 
ATOM     24  N   UNL     1      49.731   8.035  11.718  0.00  0.00    +0.000 NA
BRANCH  19  26
ATOM     25  N   UNL     1      52.837   9.067  12.764  0.00  0.00    +0.000 NA
ATOM     26  C   UNL     1      51.729   8.722  12.831  0.00  0.00    +0.000 C 
ENDBRANCH  19  26
ENDBRANCH  17  22
ENDBRANCH   1  17
TORSDOF 5
ENDMDL
MODEL 8
REMARK VINA RESULT:    -6.361      3.655      6.167
REMARK INTER + INTRA:          -8.930
REMARK INTER:                  -8.295
REMARK INTRA:                  -0.634
REMARK UNBOUND:                -0.710
REMARK  Name = 
REMARK  5 active torsions:
REMARK  status: ('A' for Active; 'I' for Inactive)
REMARK    1  A    between atoms: C_2  and  C_3
REMARK    2  A    between atoms: C_6  and  N_7
REMARK    3  A    between atoms: N_7  and  C_8
REMARK    4  A    between atoms: C_8  and  C_9
REMARK    5  A    between atoms: C_11  and  C_12
REMARK                            x       y       z     vdW  Elec       q    Type
REMARK                         _______ _______ _______ _____ _____    ______ ____
ROOT
ATOM      1  C   UNL     1      47.989   8.070  12.498  0.00  0.00    +0.000 C 
ATOM      2  C   UNL     1      48.881   9.035  11.720  0.00  0.00    +0.000 C 
ATOM      3  C   UNL     1      49.199   7.576  11.722  0.00  0.00    +0.000 C 
ENDROOT
BRANCH   1   4
ATOM      4  C   UNL     1      48.147   8.091  14.023  0.00  0.00    +0.000 A 
ATOM      5  C   UNL     1      48.316   6.885  14.700  0.00  0.00    +0.000 A 
ATOM      6  C   UNL     1      48.791   6.844  16.015  0.00  0.00    +0.000 A 
ATOM      7  C   UNL     1      49.024   8.076  16.633  0.00  0.00    +0.000 A 
ATOM      8  C   UNL     1      48.736   9.242  15.943  0.00  0.00    +0.000 A 
ATOM      9  N   UNL     1      48.305   9.275  14.666  0.00  0.00    +0.000 NA
BRANCH   6  10
ATOM     10  C   UNL     1      49.021   5.545  16.684  0.00  0.00    +0.000 A 
ATOM     11  C   UNL     1      50.298   5.181  17.172  0.00  0.00    +0.000 A 
ATOM     12  C   UNL     1      50.545   3.907  17.697  0.00  0.00    +0.000 A 
ATOM     13  C   UNL     1      49.520   2.983  17.776  0.00  0.00    +0.000 A 
ATOM     14  C   UNL     1      48.248   3.342  17.350  0.00  0.00    +0.000 A 
ATOM     15  F   UNL     1      47.250   2.453  17.438  0.00  0.00    +0.000 F 
ATOM     16  C   UNL     1      47.993   4.600  16.813  0.00  0.00    +0.000 A 
ENDBRANCH   6  10
ENDBRANCH   1   4
BRANCH   1  17
ATOM     17  N   UNL     1      46.626   7.940  11.986  0.00  0.00    +0.000 N 
ATOM     18  H   UNL     1      46.072   8.784  11.859  0.00  0.00    +0.000 HD
BRANCH  17  22
ATOM     19  C   UNL     1      44.327   4.546  11.767  0.00  0.00    +0.000 A 
ATOM     20  C   UNL     1      45.172   4.947  10.750  0.00  0.00    +0.000 A 
ATOM     21  N   UNL     1      45.912   6.083  10.819  0.00  0.00    +0.000 NA
ATOM     22  C   UNL     1      45.804   6.824  11.947  0.00  0.00    +0.000 A 
ATOM     23  C   UNL     1      44.951   6.402  12.966  0.00  0.00    +0.000 A 
ATOM     24  N   UNL     1      44.189   5.272  12.903  0.00  0.00    +0.000 NA
BRANCH  19  26
ATOM     25  N   UNL     1      43.033   2.308  11.549  0.00  0.00    +0.000 NA
ATOM     26  C   UNL     1      43.586   3.325  11.660  0.00  0.00    +0.000 C 
ENDBRANCH  19  26
ENDBRANCH  17  22
ENDBRANCH   1  17
TORSDOF 5
ENDMDL
MODEL 9
REMARK VINA RESULT:    -5.917      4.261      8.272
REMARK INTER + INTRA:          -8.357
REMARK INTER:                  -7.723
REMARK INTRA:                  -0.634
REMARK UNBOUND:                -0.710
REMARK  Name = 
REMARK  5 active torsions:
REMARK  status: ('A' for Active; 'I' for Inactive)
REMARK    1  A    between atoms: C_2  and  C_3
REMARK    2  A    between atoms: C_6  and  N_7
REMARK    3  A    between atoms: N_7  and  C_8
REMARK    4  A    between atoms: C_8  and  C_9
REMARK    5  A    between atoms: C_11  and  C_12
REMARK                            x       y       z     vdW  Elec       q    Type
REMARK                         _______ _______ _______ _____ _____    ______ ____
ROOT
ATOM      1  C   UNL     1      49.463   7.954  12.527  0.00  0.00    +0.000 C 
ATOM      2  C   UNL     1      50.328   7.766  11.283  0.00  0.00    +0.000 C 
ATOM      3  C   UNL     1      50.211   9.120  11.900  0.00  0.00    +0.000 C 
ENDROOT
BRANCH   1   4
ATOM      4  C   UNL     1      47.947   7.943  12.299  0.00  0.00    +0.000 A 
ATOM      5  C   UNL     1      47.354   6.801  11.764  0.00  0.00    +0.000 A 
ATOM      6  C   UNL     1      45.973   6.591  11.836  0.00  0.00    +0.000 A 
ATOM      7  C   UNL     1      45.216   7.613  12.415  0.00  0.00    +0.000 A 
ATOM      8  C   UNL     1      45.853   8.771  12.832  0.00  0.00    +0.000 A 
ATOM      9  N   UNL     1      47.188   8.955  12.785  0.00  0.00    +0.000 NA
BRANCH   6  10
ATOM     10  C   UNL     1      45.381   5.339  11.316  0.00  0.00    +0.000 A 
ATOM     11  C   UNL     1      45.360   5.050   9.932  0.00  0.00    +0.000 A 
ATOM     12  C   UNL     1      44.697   3.925   9.429  0.00  0.00    +0.000 A 
ATOM     13  C   UNL     1      44.071   3.049  10.296  0.00  0.00    +0.000 A 
ATOM     14  C   UNL     1      44.127   3.289  11.662  0.00  0.00    +0.000 A 
ATOM     15  F   UNL     1      43.533   2.435  12.505  0.00  0.00    +0.000 F 
ATOM     16  C   UNL     1      44.771   4.412  12.173  0.00  0.00    +0.000 A 
ENDBRANCH   6  10
ENDBRANCH   1   4
BRANCH   1  17
ATOM     17  N   UNL     1      49.947   7.269  13.725  0.00  0.00    +0.000 N 
ATOM     18  H   UNL     1      50.489   6.416  13.611  0.00  0.00    +0.000 HD
BRANCH  17  22
ATOM     19  C   UNL     1      48.607   7.791  17.570  0.00  0.00    +0.000 A 
ATOM     20  C   UNL     1      49.065   8.833  16.787  0.00  0.00    +0.000 A 
ATOM     21  N   UNL     1      49.529   8.650  15.524  0.00  0.00    +0.000 NA
ATOM     22  C   UNL     1      49.518   7.386  15.037  0.00  0.00    +0.000 A 
ATOM     23  C   UNL     1      49.047   6.347  15.839  0.00  0.00    +0.000 A 
ATOM     24  N   UNL     1      48.594   6.514  17.115  0.00  0.00    +0.000 NA
BRANCH  19  26
ATOM     25  N   UNL     1      47.675   8.177  19.960  0.00  0.00    +0.000 NA
ATOM     26  C   UNL     1      48.102   8.036  18.888  0.00  0.00    +0.000 C 
ENDBRANCH  19  26
ENDBRANCH  17  22
ENDBRANCH   1  17
TORSDOF 5
ENDMDL
