MODEL 1
REMARK VINA RESULT:    -8.174      0.000      0.000
REMARK INTER + INTRA:         -12.756
REMARK INTER:                 -11.757
REMARK INTRA:                  -0.999
REMARK UNBOUND:                -0.999
REMARK  Name = 
REMARK  8 active torsions:
REMARK  status: ('A' for Active; 'I' for Inactive)
REMARK    1  A    between atoms: N_1  and  C_2
REMARK    2  A    between atoms: C_2  and  C_3
REMARK    3  A    between atoms: C_3  and  N_4
REMARK    4  A    between atoms: C_3  and  C_22
REMARK    5  A    between atoms: C_5  and  C_7
REMARK    6  A    between atoms: C_10  and  C_11
REMARK    7  A    between atoms: C_11  and  N_12
REMARK    8  A    between atoms: C_13  and  C_15
REMARK                            x       y       z     vdW  Elec       q    Type
REMARK                         _______ _______ _______ _____ _____    ______ ____
ROOT
ATOM      1  N   UNL     1      47.598   5.464  15.873  0.00  0.00    +0.000 N 
ATOM      2  C   UNL     1      47.318   4.352  15.107  0.00  0.00    +0.000 C 
ATOM      3  O   UNL     1      47.571   3.208  15.467  0.00  0.00    +0.000 OA
ATOM      4  H   UNL     1      47.130   6.330  15.661  0.00  0.00    +0.000 HD
ENDROOT
BRANCH   2   5
ATOM      5  C   UNL     1      46.671   4.597  13.782  0.00  0.00    +0.000 A 
ATOM      6  C   UNL     1      46.880   5.782  13.065  0.00  0.00    +0.000 A 
ATOM      7  C   UNL     1      46.300   5.955  11.803  0.00  0.00    +0.000 A 
ATOM      8  C   UNL     1      45.504   4.951  11.235  0.00  0.00    +0.000 A 
ATOM      9  C   UNL     1      45.315   3.757  11.947  0.00  0.00    +0.000 A 
ATOM     10  C   UNL     1      45.894   3.582  13.211  0.00  0.00    +0.000 A 
BRANCH   8  11
ATOM     11  C   UNL     1      44.902   5.133   9.864  0.00  0.00    +0.000 C 
BRANCH  11  12
ATOM     12  N   UNL     1      45.732   4.549   8.838  0.00  0.00    +0.000 N 
ATOM     13  C   UNL     1      45.446   3.310   8.316  0.00  0.00    +0.000 C 
ATOM     14  O   UNL     1      44.489   2.643   8.695  0.00  0.00    +0.000 OA
ATOM     15  H   UNL     1      46.505   5.085   8.474  0.00  0.00    +0.000 HD
BRANCH  13  16
ATOM     16  C   UNL     1      46.343   2.848   7.290  0.00  0.00    +0.000 A 
ATOM     17  C   UNL     1      46.650   3.292   6.018  0.00  0.00    +0.000 A 
ATOM     18  C   UNL     1      47.617   2.391   5.534  0.00  0.00    +0.000 A 
ATOM     19  N   UNL     1      47.909   1.439   6.421  0.00  0.00    +0.000 NA
ATOM     20  N   UNL     1      47.129   1.739   7.474  0.00  0.00    +0.000 N 
ATOM     21  H   UNL     1      47.171   1.150   8.302  0.00  0.00    +0.000 HD
ENDBRANCH  13  16
ENDBRANCH  11  12
ENDBRANCH   8  11
ENDBRANCH   2   5
BRANCH   1  22
ATOM     22  C   UNL     1      48.312   5.365  17.147  0.00  0.00    +0.000 C 
BRANCH  22  23
ATOM     23  C   UNL     1      49.740   5.856  16.961  0.00  0.00    +0.000 A 
ATOM     24  C   UNL     1      50.128   7.125  16.556  0.00  0.00    +0.000 A 
ATOM     25  S   UNL     1      51.823   7.327  16.471  0.00  0.00    +0.000 S 
ATOM     26  C   UNL     1      52.097   5.742  17.024  0.00  0.00    +0.000 A 
ATOM     27  N   UNL     1      53.359   5.268  17.214  0.00  0.00    +0.000 NA
ATOM     28  C   UNL     1      53.407   4.060  17.665  0.00  0.00    +0.000 A 
ATOM     29  N   UNL     1      52.313   3.276  17.936  0.00  0.00    +0.000 N 
ATOM     30  C   UNL     1      51.018   3.712  17.766  0.00  0.00    +0.000 A 
ATOM     31  O   UNL     1      50.059   3.004  18.051  0.00  0.00    +0.000 OA
ATOM     32  C   UNL     1      50.914   5.067  17.254  0.00  0.00    +0.000 A 
ATOM     33  H   UNL     1      52.421   2.341  18.296  0.00  0.00    +0.000 HD
ENDBRANCH  22  23
BRANCH  22  34
ATOM     34  C   UNL     1      47.576   6.122  18.288  0.00  0.00    +0.000 C 
BRANCH  34  35
ATOM     35  N   UNL     1      46.410   5.403  18.836  0.00  0.00    +0.000 NA
ATOM     36  H   UNL     1      45.986   4.855  18.088  0.00  0.00    +0.000 HD
ATOM     37  H   UNL     1      45.709   6.081  19.125  0.00  0.00    +0.000 HD
ENDBRANCH  34  35
ENDBRANCH  22  34
ENDBRANCH   1  22
TORSDOF 8
ENDMDL
MODEL 2
REMARK VINA RESULT:    -7.812      2.198      2.828
REMARK INTER + INTRA:         -12.237
REMARK INTER:                 -11.273
REMARK INTRA:                  -0.964
REMARK UNBOUND:                -0.999
REMARK  Name = 
REMARK  8 active torsions:
REMARK  status: ('A' for Active; 'I' for Inactive)
REMARK    1  A    between atoms: N_1  and  C_2
REMARK    2  A    between atoms: C_2  and  C_3
REMARK    3  A    between atoms: C_3  and  N_4
REMARK    4  A    between atoms: C_3  and  C_22
REMARK    5  A    between atoms: C_5  and  C_7
REMARK    6  A    between atoms: C_10  and  C_11
REMARK    7  A    between atoms: C_11  and  N_12
REMARK    8  A    between atoms: C_13  and  C_15
REMARK                            x       y       z     vdW  Elec       q    Type
REMARK                         _______ _______ _______ _____ _____    ______ ____
ROOT
ATOM      1  N   UNL     1      47.493   5.491  15.827  0.00  0.00    +0.000 N 
ATOM      2  C   UNL     1      47.290   4.326  15.121  0.00  0.00    +0.000 C 
ATOM      3  O   UNL     1      47.677   3.229  15.509  0.00  0.00    +0.000 OA
ATOM      4  H   UNL     1      46.928   6.297  15.609  0.00  0.00    +0.000 HD
ENDROOT
BRANCH   2   5
ATOM      5  C   UNL     1      46.555   4.447  13.824  0.00  0.00    +0.000 A 
ATOM      6  C   UNL     1      46.507   5.651  13.112  0.00  0.00    +0.000 A 
ATOM      7  C   UNL     1      45.854   5.715  11.875  0.00  0.00    +0.000 A 
ATOM      8  C   UNL     1      45.240   4.579  11.329  0.00  0.00    +0.000 A 
ATOM      9  C   UNL     1      45.308   3.370  12.036  0.00  0.00    +0.000 A 
ATOM     10  C   UNL     1      45.961   3.304  13.274  0.00  0.00    +0.000 A 
BRANCH   8  11
ATOM     11  C   UNL     1      44.559   4.648   9.984  0.00  0.00    +0.000 C 
BRANCH  11  12
ATOM     12  N   UNL     1      45.442   4.234   8.921  0.00  0.00    +0.000 N 
ATOM     13  C   UNL     1      45.456   2.932   8.480  0.00  0.00    +0.000 C 
ATOM     14  O   UNL     1      44.735   2.065   8.965  0.00  0.00    +0.000 OA
ATOM     15  H   UNL     1      46.021   4.926   8.471  0.00  0.00    +0.000 HD
BRANCH  13  16
ATOM     16  C   UNL     1      46.372   2.652   7.406  0.00  0.00    +0.000 A 
ATOM     17  C   UNL     1      46.702   3.310   6.236  0.00  0.00    +0.000 A 
ATOM     18  C   UNL     1      47.678   2.503   5.620  0.00  0.00    +0.000 A 
ATOM     19  N   UNL     1      47.954   1.410   6.332  0.00  0.00    +0.000 NA
ATOM     20  N   UNL     1      47.154   1.525   7.408  0.00  0.00    +0.000 N 
ATOM     21  H   UNL     1      47.181   0.801   8.121  0.00  0.00    +0.000 HD
ENDBRANCH  13  16
ENDBRANCH  11  12
ENDBRANCH   8  11
ENDBRANCH   2   5
BRANCH   1  22
ATOM     22  C   UNL     1      48.276   5.520  17.063  0.00  0.00    +0.000 C 
BRANCH  22  23
ATOM     23  C   UNL     1      48.584   6.965  17.429  0.00  0.00    +0.000 A 
ATOM     24  C   UNL     1      48.325   7.579  18.645  0.00  0.00    +0.000 A 
ATOM     25  S   UNL     1      48.820   9.214  18.706  0.00  0.00    +0.000 S 
ATOM     26  C   UNL     1      49.447   9.142  17.125  0.00  0.00    +0.000 A 
ATOM     27  N   UNL     1      50.058  10.216  16.558  0.00  0.00    +0.000 NA
ATOM     28  C   UNL     1      50.509  10.001  15.368  0.00  0.00    +0.000 A 
ATOM     29  N   UNL     1      50.397   8.814  14.686  0.00  0.00    +0.000 N 
ATOM     30  C   UNL     1      49.794   7.698  15.220  0.00  0.00    +0.000 A 
ATOM     31  O   UNL     1      49.740   6.640  14.604  0.00  0.00    +0.000 OA
ATOM     32  C   UNL     1      49.265   7.895  16.558  0.00  0.00    +0.000 A 
ATOM     33  H   UNL     1      50.781   8.710  13.760  0.00  0.00    +0.000 HD
ENDBRANCH  22  23
BRANCH  22  34
ATOM     34  C   UNL     1      47.568   4.762  18.221  0.00  0.00    +0.000 C 
BRANCH  34  35
ATOM     35  N   UNL     1      48.150   3.440  18.521  0.00  0.00    +0.000 NA
ATOM     36  H   UNL     1      48.264   3.357  19.531  0.00  0.00    +0.000 HD
ATOM     37  H   UNL     1      49.085   3.392  18.123  0.00  0.00    +0.000 HD
ENDBRANCH  34  35
ENDBRANCH  22  34
ENDBRANCH   1  22
TORSDOF 8
ENDMDL
MODEL 3
REMARK VINA RESULT:    -7.719      2.611      3.538
REMARK INTER + INTRA:         -12.103
REMARK INTER:                 -11.310
REMARK INTRA:                  -0.793
REMARK UNBOUND:                -0.999
REMARK  Name = 
REMARK  8 active torsions:
REMARK  status: ('A' for Active; 'I' for Inactive)
REMARK    1  A    between atoms: N_1  and  C_2
REMARK    2  A    between atoms: C_2  and  C_3
REMARK    3  A    between atoms: C_3  and  N_4
REMARK    4  A    between atoms: C_3  and  C_22
REMARK    5  A    between atoms: C_5  and  C_7
REMARK    6  A    between atoms: C_10  and  C_11
REMARK    7  A    between atoms: C_11  and  N_12
REMARK    8  A    between atoms: C_13  and  C_15
REMARK                            x       y       z     vdW  Elec       q    Type
REMARK                         _______ _______ _______ _____ _____    ______ ____
ROOT
ATOM      1  N   UNL     1      47.983   6.308  14.819  0.00  0.00    +0.000 N 
ATOM      2  C   UNL     1      47.295   7.087  13.914  0.00  0.00    +0.000 C 
ATOM      3  O   UNL     1      47.297   8.312  13.944  0.00  0.00    +0.000 OA
ATOM      4  H   UNL     1      48.170   5.345  14.588  0.00  0.00    +0.000 HD
ENDROOT
BRANCH   2   5
ATOM      5  C   UNL     1      46.522   6.363  12.858  0.00  0.00    +0.000 A 
ATOM      6  C   UNL     1      46.545   6.767  11.518  0.00  0.00    +0.000 A 
ATOM      7  C   UNL     1      45.852   6.034  10.547  0.00  0.00    +0.000 A 
ATOM      8  C   UNL     1      45.125   4.887  10.897  0.00  0.00    +0.000 A 
ATOM      9  C   UNL     1      45.121   4.475  12.238  0.00  0.00    +0.000 A 
ATOM     10  C   UNL     1      45.814   5.207  13.211  0.00  0.00    +0.000 A 
BRANCH   8  11
ATOM     11  C   UNL     1      44.400   4.088   9.843  0.00  0.00    +0.000 C 
BRANCH  11  12
ATOM     12  N   UNL     1      45.242   3.827   8.702  0.00  0.00    +0.000 N 
ATOM     13  C   UNL     1      45.761   2.574   8.476  0.00  0.00    +0.000 C 
ATOM     14  O   UNL     1      45.545   1.629   9.228  0.00  0.00    +0.000 OA
ATOM     15  H   UNL     1      45.411   4.571   8.041  0.00  0.00    +0.000 HD
BRANCH  13  16
ATOM     16  C   UNL     1      46.575   2.444   7.297  0.00  0.00    +0.000 A 
ATOM     17  C   UNL     1      46.585   3.078   6.069  0.00  0.00    +0.000 A 
ATOM     18  C   UNL     1      47.642   2.483   5.353  0.00  0.00    +0.000 A 
ATOM     19  N   UNL     1      48.263   1.539   6.061  0.00  0.00    +0.000 NA
ATOM     20  N   UNL     1      47.602   1.537   7.233  0.00  0.00    +0.000 N 
ATOM     21  H   UNL     1      47.894   0.891   7.962  0.00  0.00    +0.000 HD
ENDBRANCH  13  16
ENDBRANCH  11  12
ENDBRANCH   8  11
ENDBRANCH   2   5
BRANCH   1  22
ATOM     22  C   UNL     1      48.702   6.892  15.952  0.00  0.00    +0.000 C 
BRANCH  22  23
ATOM     23  C   UNL     1      48.633   5.938  17.136  0.00  0.00    +0.000 A 
ATOM     24  C   UNL     1      48.977   4.594  17.131  0.00  0.00    +0.000 A 
ATOM     25  S   UNL     1      48.786   3.834  18.650  0.00  0.00    +0.000 S 
ATOM     26  C   UNL     1      48.288   5.288  19.379  0.00  0.00    +0.000 A 
ATOM     27  N   UNL     1      47.993   5.348  20.706  0.00  0.00    +0.000 NA
ATOM     28  C   UNL     1      47.661   6.524  21.121  0.00  0.00    +0.000 A 
ATOM     29  N   UNL     1      47.584   7.645  20.332  0.00  0.00    +0.000 N 
ATOM     30  C   UNL     1      47.878   7.636  18.987  0.00  0.00    +0.000 A 
ATOM     31  O   UNL     1      47.838   8.659  18.314  0.00  0.00    +0.000 OA
ATOM     32  C   UNL     1      48.253   6.330  18.473  0.00  0.00    +0.000 A 
ATOM     33  H   UNL     1      47.325   8.538  20.722  0.00  0.00    +0.000 HD
ENDBRANCH  22  23
BRANCH  22  34
ATOM     34  C   UNL     1      50.166   7.265  15.586  0.00  0.00    +0.000 C 
BRANCH  34  35
ATOM     35  N   UNL     1      50.455   7.226  14.139  0.00  0.00    +0.000 NA
ATOM     36  H   UNL     1      51.367   6.790  14.002  0.00  0.00    +0.000 HD
ATOM     37  H   UNL     1      50.538   8.178  13.793  0.00  0.00    +0.000 HD
ENDBRANCH  34  35
ENDBRANCH  22  34
ENDBRANCH   1  22
TORSDOF 8
ENDMDL
MODEL 4
REMARK VINA RESULT:    -7.483      2.431      3.425
REMARK INTER + INTRA:         -11.764
REMARK INTER:                 -10.782
REMARK INTRA:                  -0.981
REMARK UNBOUND:                -0.999
REMARK  Name = 
REMARK  8 active torsions:
REMARK  status: ('A' for Active; 'I' for Inactive)
REMARK    1  A    between atoms: N_1  and  C_2
REMARK    2  A    between atoms: C_2  and  C_3
REMARK    3  A    between atoms: C_3  and  N_4
REMARK    4  A    between atoms: C_3  and  C_22
REMARK    5  A    between atoms: C_5  and  C_7
REMARK    6  A    between atoms: C_10  and  C_11
REMARK    7  A    between atoms: C_11  and  N_12
REMARK    8  A    between atoms: C_13  and  C_15
REMARK                            x       y       z     vdW  Elec       q    Type
REMARK                         _______ _______ _______ _____ _____    ______ ____
ROOT
ATOM      1  N   UNL     1      47.900   7.586  14.636  0.00  0.00    +0.000 N 
ATOM      2  C   UNL     1      47.169   7.990  13.540  0.00  0.00    +0.000 C 
ATOM      3  O   UNL     1      47.197   9.133  13.099  0.00  0.00    +0.000 OA
ATOM      4  H   UNL     1      48.054   6.602  14.782  0.00  0.00    +0.000 HD
ENDROOT
BRANCH   2   5
ATOM      5  C   UNL     1      46.317   6.952  12.883  0.00  0.00    +0.000 A 
ATOM      6  C   UNL     1      45.328   7.290  11.951  0.00  0.00    +0.000 A 
ATOM      7  C   UNL     1      44.584   6.288  11.316  0.00  0.00    +0.000 A 
ATOM      8  C   UNL     1      44.815   4.935  11.599  0.00  0.00    +0.000 A 
ATOM      9  C   UNL     1      45.821   4.600  12.518  0.00  0.00    +0.000 A 
ATOM     10  C   UNL     1      46.566   5.601  13.154  0.00  0.00    +0.000 A 
BRANCH   8  11
ATOM     11  C   UNL     1      44.028   3.859  10.894  0.00  0.00    +0.000 C 
BRANCH  11  12
ATOM     12  N   UNL     1      44.877   3.033  10.070  0.00  0.00    +0.000 N 
ATOM     13  C   UNL     1      45.169   3.391   8.775  0.00  0.00    +0.000 C 
ATOM     14  O   UNL     1      44.724   4.411   8.258  0.00  0.00    +0.000 OA
ATOM     15  H   UNL     1      45.293   2.208  10.472  0.00  0.00    +0.000 HD
BRANCH  13  16
ATOM     16  C   UNL     1      46.037   2.490   8.064  0.00  0.00    +0.000 A 
ATOM     17  C   UNL     1      46.993   2.661   7.081  0.00  0.00    +0.000 A 
ATOM     18  C   UNL     1      47.487   1.369   6.815  0.00  0.00    +0.000 A 
ATOM     19  N   UNL     1      46.896   0.438   7.564  0.00  0.00    +0.000 NA
ATOM     20  N   UNL     1      46.027   1.141   8.313  0.00  0.00    +0.000 N 
ATOM     21  H   UNL     1      45.445   0.648   8.985  0.00  0.00    +0.000 HD
ENDBRANCH  13  16
ENDBRANCH  11  12
ENDBRANCH   8  11
ENDBRANCH   2   5
BRANCH   1  22
ATOM     22  C   UNL     1      48.700   8.527  15.421  0.00  0.00    +0.000 C 
BRANCH  22  23
ATOM     23  C   UNL     1      48.378   8.351  16.898  0.00  0.00    +0.000 A 
ATOM     24  C   UNL     1      47.899   9.328  17.758  0.00  0.00    +0.000 A 
ATOM     25  S   UNL     1      47.634   8.768  19.351  0.00  0.00    +0.000 S 
ATOM     26  C   UNL     1      48.100   7.186  18.933  0.00  0.00    +0.000 A 
ATOM     27  N   UNL     1      48.072   6.177  19.845  0.00  0.00    +0.000 NA
ATOM     28  C   UNL     1      48.423   5.028  19.373  0.00  0.00    +0.000 A 
ATOM     29  N   UNL     1      48.810   4.794  18.077  0.00  0.00    +0.000 N 
ATOM     30  C   UNL     1      48.848   5.780  17.117  0.00  0.00    +0.000 A 
ATOM     31  O   UNL     1      49.162   5.536  15.958  0.00  0.00    +0.000 OA
ATOM     32  C   UNL     1      48.465   7.094  17.604  0.00  0.00    +0.000 A 
ATOM     33  H   UNL     1      49.064   3.868  17.770  0.00  0.00    +0.000 HD
ENDBRANCH  22  23
BRANCH  22  34
ATOM     34  C   UNL     1      50.221   8.381  15.133  0.00  0.00    +0.000 C 
BRANCH  34  35
ATOM     35  N   UNL     1      50.560   7.270  14.224  0.00  0.00    +0.000 NA
ATOM     36  H   UNL     1      51.241   7.603  13.543  0.00  0.00    +0.000 HD
ATOM     37  H   UNL     1      49.730   7.011  13.695  0.00  0.00    +0.000 HD
ENDBRANCH  34  35
ENDBRANCH  22  34
ENDBRANCH   1  22
TORSDOF 8
ENDMDL
MODEL 5
REMARK VINA RESULT:    -7.367      1.583      2.008
REMARK INTER + INTRA:         -11.596
REMARK INTER:                 -11.004
REMARK INTRA:                  -0.593
REMARK UNBOUND:                -0.999
REMARK  Name = 
REMARK  8 active torsions:
REMARK  status: ('A' for Active; 'I' for Inactive)
REMARK    1  A    between atoms: N_1  and  C_2
REMARK    2  A    between atoms: C_2  and  C_3
REMARK    3  A    between atoms: C_3  and  N_4
REMARK    4  A    between atoms: C_3  and  C_22
REMARK    5  A    between atoms: C_5  and  C_7
REMARK    6  A    between atoms: C_10  and  C_11
REMARK    7  A    between atoms: C_11  and  N_12
REMARK    8  A    between atoms: C_13  and  C_15
REMARK                            x       y       z     vdW  Elec       q    Type
REMARK                         _______ _______ _______ _____ _____    ______ ____
ROOT
ATOM      1  N   UNL     1      48.031   5.640  16.215  0.00  0.00    +0.000 N 
ATOM      2  C   UNL     1      48.248   6.343  15.050  0.00  0.00    +0.000 C 
ATOM      3  O   UNL     1      49.086   7.232  14.948  0.00  0.00    +0.000 OA
ATOM      4  H   UNL     1      47.544   4.759  16.168  0.00  0.00    +0.000 HD
ENDROOT
BRANCH   2   5
ATOM      5  C   UNL     1      47.401   5.972  13.876  0.00  0.00    +0.000 A 
ATOM      6  C   UNL     1      46.583   4.835  13.884  0.00  0.00    +0.000 A 
ATOM      7  C   UNL     1      45.763   4.547  12.787  0.00  0.00    +0.000 A 
ATOM      8  C   UNL     1      45.745   5.387  11.665  0.00  0.00    +0.000 A 
ATOM      9  C   UNL     1      46.550   6.535  11.669  0.00  0.00    +0.000 A 
ATOM     10  C   UNL     1      47.371   6.825  12.766  0.00  0.00    +0.000 A 
BRANCH   8  11
ATOM     11  C   UNL     1      44.841   5.084  10.495  0.00  0.00    +0.000 C 
BRANCH  11  12
ATOM     12  N   UNL     1      45.556   4.429   9.427  0.00  0.00    +0.000 N 
ATOM     13  C   UNL     1      45.345   3.100   9.145  0.00  0.00    +0.000 C 
ATOM     14  O   UNL     1      44.556   2.410   9.782  0.00  0.00    +0.000 OA
ATOM     15  H   UNL     1      46.185   4.973   8.857  0.00  0.00    +0.000 HD
BRANCH  13  16
ATOM     16  C   UNL     1      46.112   2.571   8.048  0.00  0.00    +0.000 A 
ATOM     17  C   UNL     1      46.701   3.137   6.934  0.00  0.00    +0.000 A 
ATOM     18  C   UNL     1      47.308   2.066   6.251  0.00  0.00    +0.000 A 
ATOM     19  N   UNL     1      47.123   0.900   6.872  0.00  0.00    +0.000 NA
ATOM     20  N   UNL     1      46.400   1.233   7.957  0.00  0.00    +0.000 N 
ATOM     21  H   UNL     1      46.127   0.503   8.609  0.00  0.00    +0.000 HD
ENDBRANCH  13  16
ENDBRANCH  11  12
ENDBRANCH   8  11
ENDBRANCH   2   5
BRANCH   1  22
ATOM     22  C   UNL     1      48.730   5.969  17.458  0.00  0.00    +0.000 C 
BRANCH  22  23
ATOM     23  C   UNL     1      50.128   5.368  17.422  0.00  0.00    +0.000 A 
ATOM     24  C   UNL     1      51.325   6.069  17.417  0.00  0.00    +0.000 A 
ATOM     25  S   UNL     1      52.707   5.064  17.388  0.00  0.00    +0.000 S 
ATOM     26  C   UNL     1      51.753   3.656  17.434  0.00  0.00    +0.000 A 
ATOM     27  N   UNL     1      52.320   2.419  17.465  0.00  0.00    +0.000 NA
ATOM     28  C   UNL     1      51.471   1.450  17.530  0.00  0.00    +0.000 A 
ATOM     29  N   UNL     1      50.106   1.599  17.557  0.00  0.00    +0.000 N 
ATOM     30  C   UNL     1      49.487   2.828  17.535  0.00  0.00    +0.000 A 
ATOM     31  O   UNL     1      48.267   2.933  17.597  0.00  0.00    +0.000 OA
ATOM     32  C   UNL     1      50.404   3.951  17.456  0.00  0.00    +0.000 A 
ATOM     33  H   UNL     1      49.498   0.797  17.617  0.00  0.00    +0.000 HD
ENDBRANCH  22  23
BRANCH  22  34
ATOM     34  C   UNL     1      48.758   7.500  17.725  0.00  0.00    +0.000 C 
BRANCH  34  35
ATOM     35  N   UNL     1      47.475   8.053  18.201  0.00  0.00    +0.000 NA
ATOM     36  H   UNL     1      47.671   8.830  18.831  0.00  0.00    +0.000 HD
ATOM     37  H   UNL     1      46.997   7.348  18.757  0.00  0.00    +0.000 HD
ENDBRANCH  34  35
ENDBRANCH  22  34
ENDBRANCH   1  22
TORSDOF 8
ENDMDL
MODEL 6
REMARK VINA RESULT:    -7.114      2.178      2.881
REMARK INTER + INTRA:         -11.232
REMARK INTER:                 -10.024
REMARK INTRA:                  -1.208
REMARK UNBOUND:                -0.999
REMARK  Name = 
REMARK  8 active torsions:
REMARK  status: ('A' for Active; 'I' for Inactive)
REMARK    1  A    between atoms: N_1  and  C_2
REMARK    2  A    between atoms: C_2  and  C_3
REMARK    3  A    between atoms: C_3  and  N_4
REMARK    4  A    between atoms: C_3  and  C_22
REMARK    5  A    between atoms: C_5  and  C_7
REMARK    6  A    between atoms: C_10  and  C_11
REMARK    7  A    between atoms: C_11  and  N_12
REMARK    8  A    between atoms: C_13  and  C_15
REMARK                            x       y       z     vdW  Elec       q    Type
REMARK                         _______ _______ _______ _____ _____    ______ ____
ROOT
ATOM      1  N   UNL     1      48.957   7.233  14.159  0.00  0.00    +0.000 N 
ATOM      2  C   UNL     1      47.660   7.595  13.863  0.00  0.00    +0.000 C 
ATOM      3  O   UNL     1      47.197   8.701  14.116  0.00  0.00    +0.000 OA
ATOM      4  H   UNL     1      49.358   6.436  13.692  0.00  0.00    +0.000 HD
ENDROOT
BRANCH   2   5
ATOM      5  C   UNL     1      46.811   6.559  13.198  0.00  0.00    +0.000 A 
ATOM      6  C   UNL     1      46.117   6.824  12.011  0.00  0.00    +0.000 A 
ATOM      7  C   UNL     1      45.374   5.814  11.388  0.00  0.00    +0.000 A 
ATOM      8  C   UNL     1      45.311   4.526  11.937  0.00  0.00    +0.000 A 
ATOM      9  C   UNL     1      46.024   4.260  13.115  0.00  0.00    +0.000 A 
ATOM     10  C   UNL     1      46.769   5.269  13.740  0.00  0.00    +0.000 A 
BRANCH   8  11
ATOM     11  C   UNL     1      44.528   3.436  11.248  0.00  0.00    +0.000 C 
BRANCH  11  12
ATOM     12  N   UNL     1      45.308   2.793  10.219  0.00  0.00    +0.000 N 
ATOM     13  C   UNL     1      45.194   3.174   8.903  0.00  0.00    +0.000 C 
ATOM     14  O   UNL     1      44.429   4.062   8.540  0.00  0.00    +0.000 OA
ATOM     15  H   UNL     1      45.975   2.085  10.484  0.00  0.00    +0.000 HD
BRANCH  13  16
ATOM     16  C   UNL     1      46.036   2.463   7.977  0.00  0.00    +0.000 A 
ATOM     17  C   UNL     1      46.756   2.838   6.859  0.00  0.00    +0.000 A 
ATOM     18  C   UNL     1      47.373   1.658   6.402  0.00  0.00    +0.000 A 
ATOM     19  N   UNL     1      47.073   0.604   7.161  0.00  0.00    +0.000 NA
ATOM     20  N   UNL     1      46.266   1.117   8.108  0.00  0.00    +0.000 N 
ATOM     21  H   UNL     1      45.897   0.501   8.827  0.00  0.00    +0.000 HD
ENDBRANCH  13  16
ENDBRANCH  11  12
ENDBRANCH   8  11
ENDBRANCH   2   5
BRANCH   1  22
ATOM     22  C   UNL     1      49.859   8.123  14.890  0.00  0.00    +0.000 C 
BRANCH  22  23
ATOM     23  C   UNL     1      50.952   7.297  15.553  0.00  0.00    +0.000 A 
ATOM     24  C   UNL     1      52.318   7.425  15.350  0.00  0.00    +0.000 A 
ATOM     25  S   UNL     1      53.253   6.334  16.276  0.00  0.00    +0.000 S 
ATOM     26  C   UNL     1      51.866   5.689  17.021  0.00  0.00    +0.000 A 
ATOM     27  N   UNL     1      51.960   4.716  17.967  0.00  0.00    +0.000 NA
ATOM     28  C   UNL     1      50.826   4.349  18.463  0.00  0.00    +0.000 A 
ATOM     29  N   UNL     1      49.604   4.857  18.094  0.00  0.00    +0.000 N 
ATOM     30  C   UNL     1      49.459   5.845  17.147  0.00  0.00    +0.000 A 
ATOM     31  O   UNL     1      48.359   6.306  16.864  0.00  0.00    +0.000 OA
ATOM     32  C   UNL     1      50.710   6.287  16.557  0.00  0.00    +0.000 A 
ATOM     33  H   UNL     1      48.755   4.531  18.528  0.00  0.00    +0.000 HD
ENDBRANCH  22  23
BRANCH  22  34
ATOM     34  C   UNL     1      50.442   9.241  13.980  0.00  0.00    +0.000 C 
BRANCH  34  35
ATOM     35  N   UNL     1      49.676  10.502  14.007  0.00  0.00    +0.000 NA
ATOM     36  H   UNL     1      49.092  10.509  14.843  0.00  0.00    +0.000 HD
ATOM     37  H   UNL     1      49.040  10.520  13.214  0.00  0.00    +0.000 HD
ENDBRANCH  34  35
ENDBRANCH  22  34
ENDBRANCH   1  22
TORSDOF 8
ENDMDL
MODEL 7
REMARK VINA RESULT:    -7.002      3.444      8.998
REMARK INTER + INTRA:         -11.071
REMARK INTER:                 -11.311
REMARK INTRA:                   0.240
REMARK UNBOUND:                -0.999
REMARK  Name = 
REMARK  8 active torsions:
REMARK  status: ('A' for Active; 'I' for Inactive)
REMARK    1  A    between atoms: N_1  and  C_2
REMARK    2  A    between atoms: C_2  and  C_3
REMARK    3  A    between atoms: C_3  and  N_4
REMARK    4  A    between atoms: C_3  and  C_22
REMARK    5  A    between atoms: C_5  and  C_7
REMARK    6  A    between atoms: C_10  and  C_11
REMARK    7  A    between atoms: C_11  and  N_12
REMARK    8  A    between atoms: C_13  and  C_15
REMARK                            x       y       z     vdW  Elec       q    Type
REMARK                         _______ _______ _______ _____ _____    ______ ____
ROOT
ATOM      1  N   UNL     1      46.251   6.522  12.903  0.00  0.00    +0.000 N 
ATOM      2  C   UNL     1      47.587   6.371  13.208  0.00  0.00    +0.000 C 
ATOM      3  O   UNL     1      48.491   6.715  12.456  0.00  0.00    +0.000 OA
ATOM      4  H   UNL     1      45.575   6.483  13.648  0.00  0.00    +0.000 HD
ENDROOT
BRANCH   2   5
ATOM      5  C   UNL     1      47.906   5.754  14.532  0.00  0.00    +0.000 A 
ATOM      6  C   UNL     1      48.852   6.314  15.399  0.00  0.00    +0.000 A 
ATOM      7  C   UNL     1      49.088   5.740  16.654  0.00  0.00    +0.000 A 
ATOM      8  C   UNL     1      48.383   4.600  17.065  0.00  0.00    +0.000 A 
ATOM      9  C   UNL     1      47.421   4.054  16.201  0.00  0.00    +0.000 A 
ATOM     10  C   UNL     1      47.185   4.627  14.945  0.00  0.00    +0.000 A 
BRANCH   8  11
ATOM     11  C   UNL     1      48.624   4.000  18.428  0.00  0.00    +0.000 C 
BRANCH  11  12
ATOM     12  N   UNL     1      49.916   3.362  18.507  0.00  0.00    +0.000 N 
ATOM     13  C   UNL     1      50.274   2.376  17.618  0.00  0.00    +0.000 C 
ATOM     14  O   UNL     1      49.521   1.986  16.731  0.00  0.00    +0.000 OA
ATOM     15  H   UNL     1      50.576   3.683  19.199  0.00  0.00    +0.000 HD
BRANCH  13  16
ATOM     16  C   UNL     1      51.593   1.831  17.797  0.00  0.00    +0.000 A 
ATOM     17  C   UNL     1      52.861   2.381  17.805  0.00  0.00    +0.000 A 
ATOM     18  C   UNL     1      53.733   1.300  18.034  0.00  0.00    +0.000 A 
ATOM     19  N   UNL     1      53.082   0.144  18.161  0.00  0.00    +0.000 NA
ATOM     20  N   UNL     1      51.791   0.491  18.017  0.00  0.00    +0.000 N 
ATOM     21  H   UNL     1      51.077  -0.230  18.078  0.00  0.00    +0.000 HD
ENDBRANCH  13  16
ENDBRANCH  11  12
ENDBRANCH   8  11
ENDBRANCH   2   5
BRANCH   1  22
ATOM     22  C   UNL     1      45.808   7.027  11.603  0.00  0.00    +0.000 C 
BRANCH  22  23
ATOM     23  C   UNL     1      45.454   5.852  10.702  0.00  0.00    +0.000 A 
ATOM     24  C   UNL     1      45.880   5.658   9.396  0.00  0.00    +0.000 A 
ATOM     25  S   UNL     1      45.295   4.215   8.693  0.00  0.00    +0.000 S 
ATOM     26  C   UNL     1      44.495   3.772  10.128  0.00  0.00    +0.000 A 
ATOM     27  N   UNL     1      43.810   2.601  10.223  0.00  0.00    +0.000 NA
ATOM     28  C   UNL     1      43.283   2.388  11.381  0.00  0.00    +0.000 A 
ATOM     29  N   UNL     1      43.367   3.243  12.453  0.00  0.00    +0.000 N 
ATOM     30  C   UNL     1      44.054   4.435  12.408  0.00  0.00    +0.000 A 
ATOM     31  O   UNL     1      44.144   5.161  13.391  0.00  0.00    +0.000 OA
ATOM     32  C   UNL     1      44.661   4.719  11.120  0.00  0.00    +0.000 A 
ATOM     33  H   UNL     1      42.938   3.012  13.336  0.00  0.00    +0.000 HD
ENDBRANCH  22  23
BRANCH  22  34
ATOM     34  C   UNL     1      44.633   8.035  11.737  0.00  0.00    +0.000 C 
BRANCH  34  35
ATOM     35  N   UNL     1      43.382   7.595  11.090  0.00  0.00    +0.000 NA
ATOM     36  H   UNL     1      42.597   8.035  11.568  0.00  0.00    +0.000 HD
ATOM     37  H   UNL     1      43.274   6.592  11.227  0.00  0.00    +0.000 HD
ENDBRANCH  34  35
ENDBRANCH  22  34
ENDBRANCH   1  22
TORSDOF 8
ENDMDL
MODEL 8
REMARK VINA RESULT:    -6.970      3.020      9.715
REMARK INTER + INTRA:         -11.025
REMARK INTER:                  -9.996
REMARK INTRA:                  -1.029
REMARK UNBOUND:                -0.999
REMARK  Name = 
REMARK  8 active torsions:
REMARK  status: ('A' for Active; 'I' for Inactive)
REMARK    1  A    between atoms: N_1  and  C_2
REMARK    2  A    between atoms: C_2  and  C_3
REMARK    3  A    between atoms: C_3  and  N_4
REMARK    4  A    between atoms: C_3  and  C_22
REMARK    5  A    between atoms: C_5  and  C_7
REMARK    6  A    between atoms: C_10  and  C_11
REMARK    7  A    between atoms: C_11  and  N_12
REMARK    8  A    between atoms: C_13  and  C_15
REMARK                            x       y       z     vdW  Elec       q    Type
REMARK                         _______ _______ _______ _____ _____    ______ ____
ROOT
ATOM      1  N   UNL     1      46.003   5.977  13.539  0.00  0.00    +0.000 N 
ATOM      2  C   UNL     1      47.369   5.842  13.659  0.00  0.00    +0.000 C 
ATOM      3  O   UNL     1      48.140   5.939  12.711  0.00  0.00    +0.000 OA
ATOM      4  H   UNL     1      45.458   6.162  14.366  0.00  0.00    +0.000 HD
ENDROOT
BRANCH   2   5
ATOM      5  C   UNL     1      47.897   5.565  15.030  0.00  0.00    +0.000 A 
ATOM      6  C   UNL     1      47.501   4.438  15.761  0.00  0.00    +0.000 A 
ATOM      7  C   UNL     1      48.057   4.183  17.021  0.00  0.00    +0.000 A 
ATOM      8  C   UNL     1      49.014   5.045  17.571  0.00  0.00    +0.000 A 
ATOM      9  C   UNL     1      49.423   6.162  16.826  0.00  0.00    +0.000 A 
ATOM     10  C   UNL     1      48.869   6.419  15.566  0.00  0.00    +0.000 A 
BRANCH   8  11
ATOM     11  C   UNL     1      49.627   4.752  18.918  0.00  0.00    +0.000 C 
BRANCH  11  12
ATOM     12  N   UNL     1      50.639   3.727  18.829  0.00  0.00    +0.000 N 
ATOM     13  C   UNL     1      51.968   4.054  18.701  0.00  0.00    +0.000 C 
ATOM     14  O   UNL     1      52.356   5.217  18.649  0.00  0.00    +0.000 OA
ATOM     15  H   UNL     1      50.361   2.761  18.907  0.00  0.00    +0.000 HD
BRANCH  13  16
ATOM     16  C   UNL     1      52.877   2.941  18.636  0.00  0.00    +0.000 A 
ATOM     17  C   UNL     1      54.250   2.821  18.737  0.00  0.00    +0.000 A 
ATOM     18  C   UNL     1      54.514   1.447  18.585  0.00  0.00    +0.000 A 
ATOM     19  N   UNL     1      53.402   0.735  18.398  0.00  0.00    +0.000 NA
ATOM     20  N   UNL     1      52.426   1.660  18.436  0.00  0.00    +0.000 N 
ATOM     21  H   UNL     1      51.461   1.363  18.320  0.00  0.00    +0.000 HD
ENDBRANCH  13  16
ENDBRANCH  11  12
ENDBRANCH   8  11
ENDBRANCH   2   5
BRANCH   1  22
ATOM     22  C   UNL     1      45.356   6.159  12.239  0.00  0.00    +0.000 C 
BRANCH  22  23
ATOM     23  C   UNL     1      44.743   4.838  11.795  0.00  0.00    +0.000 A 
ATOM     24  C   UNL     1      43.912   4.022  12.549  0.00  0.00    +0.000 A 
ATOM     25  S   UNL     1      43.398   2.618  11.721  0.00  0.00    +0.000 S 
ATOM     26  C   UNL     1      44.225   3.079  10.307  0.00  0.00    +0.000 A 
ATOM     27  N   UNL     1      44.173   2.321   9.179  0.00  0.00    +0.000 NA
ATOM     28  C   UNL     1      44.824   2.815   8.180  0.00  0.00    +0.000 A 
ATOM     29  N   UNL     1      45.531   3.991   8.205  0.00  0.00    +0.000 N 
ATOM     30  C   UNL     1      45.608   4.796   9.320  0.00  0.00    +0.000 A 
ATOM     31  O   UNL     1      46.216   5.860   9.304  0.00  0.00    +0.000 OA
ATOM     32  C   UNL     1      44.894   4.277  10.473  0.00  0.00    +0.000 A 
ATOM     33  H   UNL     1      46.012   4.326   7.384  0.00  0.00    +0.000 HD
ENDBRANCH  22  23
BRANCH  22  34
ATOM     34  C   UNL     1      44.311   7.310  12.262  0.00  0.00    +0.000 C 
BRANCH  34  35
ATOM     35  N   UNL     1      43.440   7.358  11.072  0.00  0.00    +0.000 NA
ATOM     36  H   UNL     1      43.584   8.250  10.600  0.00  0.00    +0.000 HD
ATOM     37  H   UNL     1      42.468   7.347  11.373  0.00  0.00    +0.000 HD
ENDBRANCH  34  35
ENDBRANCH  22  34
ENDBRANCH   1  22
TORSDOF 8
ENDMDL
MODEL 9
REMARK VINA RESULT:    -6.789      2.627      4.054
REMARK INTER + INTRA:         -10.765
REMARK INTER:                  -9.739
REMARK INTRA:                  -1.026
REMARK UNBOUND:                -0.999
REMARK  Name = 
REMARK  8 active torsions:
REMARK  status: ('A' for Active; 'I' for Inactive)
REMARK    1  A    between atoms: N_1  and  C_2
REMARK    2  A    between atoms: C_2  and  C_3
REMARK    3  A    between atoms: C_3  and  N_4
REMARK    4  A    between atoms: C_3  and  C_22
REMARK    5  A    between atoms: C_5  and  C_7
REMARK    6  A    between atoms: C_10  and  C_11
REMARK    7  A    between atoms: C_11  and  N_12
REMARK    8  A    between atoms: C_13  and  C_15
REMARK                            x       y       z     vdW  Elec       q    Type
REMARK                         _______ _______ _______ _____ _____    ______ ____
ROOT
ATOM      1  N   UNL     1      48.719   5.945  16.034  0.00  0.00    +0.000 N 
ATOM      2  C   UNL     1      48.696   6.636  14.842  0.00  0.00    +0.000 C 
ATOM      3  O   UNL     1      49.426   7.591  14.606  0.00  0.00    +0.000 OA
ATOM      4  H   UNL     1      48.311   5.024  16.071  0.00  0.00    +0.000 HD
ENDROOT
BRANCH   2   5
ATOM      5  C   UNL     1      47.720   6.163  13.813  0.00  0.00    +0.000 A 
ATOM      6  C   UNL     1      46.850   5.094  14.055  0.00  0.00    +0.000 A 
ATOM      7  C   UNL     1      45.913   4.712  13.087  0.00  0.00    +0.000 A 
ATOM      8  C   UNL     1      45.829   5.390  11.863  0.00  0.00    +0.000 A 
ATOM      9  C   UNL     1      46.689   6.474  11.633  0.00  0.00    +0.000 A 
ATOM     10  C   UNL     1      47.627   6.857  12.600  0.00  0.00    +0.000 A 
BRANCH   8  11
ATOM     11  C   UNL     1      44.801   4.990  10.834  0.00  0.00    +0.000 C 
BRANCH  11  12
ATOM     12  N   UNL     1      45.419   4.431   9.656  0.00  0.00    +0.000 N 
ATOM     13  C   UNL     1      45.216   3.117   9.307  0.00  0.00    +0.000 C 
ATOM     14  O   UNL     1      44.517   2.360   9.973  0.00  0.00    +0.000 OA
ATOM     15  H   UNL     1      45.970   5.033   9.063  0.00  0.00    +0.000 HD
BRANCH  13  16
ATOM     16  C   UNL     1      45.879   2.687   8.104  0.00  0.00    +0.000 A 
ATOM     17  C   UNL     1      46.112   3.281   6.878  0.00  0.00    +0.000 A 
ATOM     18  C   UNL     1      46.822   2.321   6.131  0.00  0.00    +0.000 A 
ATOM     19  N   UNL     1      47.028   1.197   6.818  0.00  0.00    +0.000 NA
ATOM     20  N   UNL     1      46.452   1.444   8.007  0.00  0.00    +0.000 N 
ATOM     21  H   UNL     1      46.478   0.726   8.726  0.00  0.00    +0.000 HD
ENDBRANCH  13  16
ENDBRANCH  11  12
ENDBRANCH   8  11
ENDBRANCH   2   5
BRANCH   1  22
ATOM     22  C   UNL     1      49.562   6.364  17.154  0.00  0.00    +0.000 C 
BRANCH  22  23
ATOM     23  C   UNL     1      48.689   6.606  18.377  0.00  0.00    +0.000 A 
ATOM     24  C   UNL     1      48.226   5.643  19.262  0.00  0.00    +0.000 A 
ATOM     25  S   UNL     1      47.279   6.281  20.533  0.00  0.00    +0.000 S 
ATOM     26  C   UNL     1      47.500   7.873  19.976  0.00  0.00    +0.000 A 
ATOM     27  N   UNL     1      46.969   8.935  20.641  0.00  0.00    +0.000 NA
ATOM     28  C   UNL     1      47.247  10.080  20.115  0.00  0.00    +0.000 A 
ATOM     29  N   UNL     1      47.998  10.265  18.980  0.00  0.00    +0.000 N 
ATOM     30  C   UNL     1      48.561   9.224  18.278  0.00  0.00    +0.000 A 
ATOM     31  O   UNL     1      49.258   9.419  17.289  0.00  0.00    +0.000 OA
ATOM     32  C   UNL     1      48.270   7.913  18.830  0.00  0.00    +0.000 A 
ATOM     33  H   UNL     1      48.185  11.190  18.627  0.00  0.00    +0.000 HD
ENDBRANCH  22  23
BRANCH  22  34
ATOM     34  C   UNL     1      50.701   5.345  17.442  0.00  0.00    +0.000 C 
BRANCH  34  35
ATOM     35  N   UNL     1      50.392   3.963  17.026  0.00  0.00    +0.000 NA
ATOM     36  H   UNL     1      50.367   3.372  17.857  0.00  0.00    +0.000 HD
ATOM     37  H   UNL     1      51.154   3.613  16.450  0.00  0.00    +0.000 HD
ENDBRANCH  34  35
ENDBRANCH  22  34
ENDBRANCH   1  22
TORSDOF 8
ENDMDL
