MODEL 1
REMARK VINA RESULT:    -7.253      0.000      0.000
REMARK INTER + INTRA:         -11.429
REMARK INTER:                 -10.221
REMARK INTRA:                  -1.208
REMARK UNBOUND:                -1.208
REMARK  Name = 
REMARK  8 active torsions:
REMARK  status: ('A' for Active; 'I' for Inactive)
REMARK    1  A    between atoms: C_1  and  O_2
REMARK    2  A    between atoms: O_2  and  C_3
REMARK    3  A    between atoms: C_8  and  C_9
REMARK    4  A    between atoms: N_11  and  C_12
REMARK    5  A    between atoms: C_12  and  C_13
REMARK    6  A    between atoms: C_16  and  C_17
REMARK    7  A    between atoms: C_17  and  N_18
REMARK    8  A    between atoms: C_19  and  C_21
REMARK                            x       y       z     vdW  Elec       q    Type
REMARK                         _______ _______ _______ _____ _____    ______ ____
ROOT
ATOM      1  C   UNL     1      50.283   7.390  15.259  0.00  0.00    +0.000 A 
ATOM      2  C   UNL     1      50.601   8.141  14.120  0.00  0.00    +0.000 A 
ATOM      3  C   UNL     1      49.694   8.253  13.057  0.00  0.00    +0.000 A 
ATOM      4  C   UNL     1      48.439   7.631  13.119  0.00  0.00    +0.000 A 
ATOM      5  C   UNL     1      48.131   6.868  14.254  0.00  0.00    +0.000 A 
ATOM      6  C   UNL     1      49.035   6.758  15.316  0.00  0.00    +0.000 A 
ENDROOT
BRANCH   1   7
ATOM      7  C   UNL     1      51.252   7.295  16.410  0.00  0.00    +0.000 C 
BRANCH   7  10
ATOM      8  C   UNL     1      51.247   5.145  17.616  0.00  0.00    +0.000 C 
ATOM      9  O   UNL     1      50.429   5.555  18.435  0.00  0.00    +0.000 OA
ATOM     10  N   UNL     1      51.719   5.943  16.601  0.00  0.00    +0.000 N 
ATOM     11  H   UNL     1      52.398   5.557  15.954  0.00  0.00    +0.000 HD
BRANCH   8  17
ATOM     12  C   UNL     1      50.998   2.597  17.249  0.00  0.00    +0.000 A 
ATOM     13  C   UNL     1      51.519   1.314  17.481  0.00  0.00    +0.000 A 
ATOM     14  C   UNL     1      52.770   1.142  18.078  0.00  0.00    +0.000 A 
ATOM     15  C   UNL     1      53.528   2.250  18.435  0.00  0.00    +0.000 A 
ATOM     16  C   UNL     1      53.012   3.530  18.238  0.00  0.00    +0.000 A 
ATOM     17  C   UNL     1      51.735   3.723  17.675  0.00  0.00    +0.000 A 
BRANCH  12  19
ATOM     18  C   UNL     1      48.612   2.741  17.398  0.00  0.00    +0.000 C 
ATOM     19  O   UNL     1      49.799   2.812  16.615  0.00  0.00    +0.000 OA
ENDBRANCH  12  19
ENDBRANCH   8  17
ENDBRANCH   7  10
ENDBRANCH   1   7
BRANCH   4  20
ATOM     20  C   UNL     1      47.434   7.764  11.999  0.00  0.00    +0.000 C 
BRANCH  20  21
ATOM     21  N   UNL     1      46.741   6.527  11.743  0.00  0.00    +0.000 N 
ATOM     22  C   UNL     1      45.368   6.454  11.748  0.00  0.00    +0.000 C 
ATOM     23  O   UNL     1      44.656   7.435  11.933  0.00  0.00    +0.000 OA
ATOM     24  H   UNL     1      47.277   5.674  11.870  0.00  0.00    +0.000 HD
BRANCH  22  25
ATOM     25  C   UNL     1      44.797   5.131  11.455  0.00  0.00    +0.000 A 
ATOM     26  C   UNL     1      44.030   4.473  12.408  0.00  0.00    +0.000 A 
ATOM     27  S   UNL     1      43.415   2.973  11.875  0.00  0.00    +0.000 S 
ATOM     28  C   UNL     1      44.199   3.123  10.371  0.00  0.00    +0.000 A 
ATOM     29  N   UNL     1      44.113   2.139   9.433  0.00  0.00    +0.000 NA
ATOM     30  C   UNL     1      44.779   2.377   8.350  0.00  0.00    +0.000 A 
ATOM     31  N   UNL     1      45.512   3.507   8.118  0.00  0.00    +0.000 N 
ATOM     32  C   UNL     1      45.594   4.543   9.017  0.00  0.00    +0.000 A 
ATOM     33  O   UNL     1      46.198   5.572   8.746  0.00  0.00    +0.000 OA
ATOM     34  C   UNL     1      44.889   4.316  10.265  0.00  0.00    +0.000 A 
ATOM     35  H   UNL     1      45.996   3.643   7.240  0.00  0.00    +0.000 HD
ENDBRANCH  22  25
ENDBRANCH  20  21
ENDBRANCH   4  20
TORSDOF 7
ENDMDL
MODEL 2
REMARK VINA RESULT:    -7.199      3.004      9.658
REMARK INTER + INTRA:         -11.353
REMARK INTER:                 -10.372
REMARK INTRA:                  -0.982
REMARK UNBOUND:                -1.208
REMARK  Name = 
REMARK  8 active torsions:
REMARK  status: ('A' for Active; 'I' for Inactive)
REMARK    1  A    between atoms: C_1  and  O_2
REMARK    2  A    between atoms: O_2  and  C_3
REMARK    3  A    between atoms: C_8  and  C_9
REMARK    4  A    between atoms: N_11  and  C_12
REMARK    5  A    between atoms: C_12  and  C_13
REMARK    6  A    between atoms: C_16  and  C_17
REMARK    7  A    between atoms: C_17  and  N_18
REMARK    8  A    between atoms: C_19  and  C_21
REMARK                            x       y       z     vdW  Elec       q    Type
REMARK                         _______ _______ _______ _____ _____    ______ ____
ROOT
ATOM      1  C   UNL     1      47.476   5.693  14.477  0.00  0.00    +0.000 A 
ATOM      2  C   UNL     1      46.915   4.429  14.700  0.00  0.00    +0.000 A 
ATOM      3  C   UNL     1      47.216   3.703  15.861  0.00  0.00    +0.000 A 
ATOM      4  C   UNL     1      48.073   4.235  16.835  0.00  0.00    +0.000 A 
ATOM      5  C   UNL     1      48.645   5.494  16.601  0.00  0.00    +0.000 A 
ATOM      6  C   UNL     1      48.341   6.220  15.444  0.00  0.00    +0.000 A 
ENDROOT
BRANCH   1   7
ATOM      7  C   UNL     1      47.127   6.480  13.240  0.00  0.00    +0.000 C 
BRANCH   7  10
ATOM      8  C   UNL     1      45.660   6.006  11.316  0.00  0.00    +0.000 C 
ATOM      9  O   UNL     1      45.091   7.089  11.425  0.00  0.00    +0.000 OA
ATOM     10  N   UNL     1      46.658   5.621  12.180  0.00  0.00    +0.000 N 
ATOM     11  H   UNL     1      47.090   4.713  12.050  0.00  0.00    +0.000 HD
BRANCH   8  17
ATOM     12  C   UNL     1      44.304   4.076  10.256  0.00  0.00    +0.000 A 
ATOM     13  C   UNL     1      44.163   3.182   9.183  0.00  0.00    +0.000 A 
ATOM     14  C   UNL     1      44.961   3.295   8.042  0.00  0.00    +0.000 A 
ATOM     15  C   UNL     1      45.900   4.314   7.949  0.00  0.00    +0.000 A 
ATOM     16  C   UNL     1      46.072   5.192   9.019  0.00  0.00    +0.000 A 
ATOM     17  C   UNL     1      45.304   5.070  10.193  0.00  0.00    +0.000 A 
BRANCH  12  19
ATOM     18  C   UNL     1      43.673   2.946  12.271  0.00  0.00    +0.000 C 
ATOM     19  O   UNL     1      43.503   4.035  11.371  0.00  0.00    +0.000 OA
ENDBRANCH  12  19
ENDBRANCH   8  17
ENDBRANCH   7  10
ENDBRANCH   1   7
BRANCH   4  20
ATOM     20  C   UNL     1      48.388   3.485  18.107  0.00  0.00    +0.000 C 
BRANCH  20  21
ATOM     21  N   UNL     1      49.790   3.173  18.220  0.00  0.00    +0.000 N 
ATOM     22  C   UNL     1      50.404   2.285  17.371  0.00  0.00    +0.000 C 
ATOM     23  O   UNL     1      49.809   1.733  16.450  0.00  0.00    +0.000 OA
ATOM     24  H   UNL     1      50.227   3.379  19.113  0.00  0.00    +0.000 HD
BRANCH  22  25
ATOM     25  C   UNL     1      51.843   2.077  17.593  0.00  0.00    +0.000 A 
ATOM     26  C   UNL     1      52.356   0.790  17.696  0.00  0.00    +0.000 A 
ATOM     27  S   UNL     1      54.048   0.744  17.907  0.00  0.00    +0.000 S 
ATOM     28  C   UNL     1      54.149   2.442  17.926  0.00  0.00    +0.000 A 
ATOM     29  N   UNL     1      55.341   3.074  18.114  0.00  0.00    +0.000 NA
ATOM     30  C   UNL     1      55.262   4.365  18.131  0.00  0.00    +0.000 A 
ATOM     31  N   UNL     1      54.107   5.079  17.970  0.00  0.00    +0.000 N 
ATOM     32  C   UNL     1      52.889   4.486  17.737  0.00  0.00    +0.000 A 
ATOM     33  O   UNL     1      51.889   5.156  17.522  0.00  0.00    +0.000 OA
ATOM     34  C   UNL     1      52.914   3.035  17.738  0.00  0.00    +0.000 A 
ATOM     35  H   UNL     1      54.115   6.090  17.973  0.00  0.00    +0.000 HD
ENDBRANCH  22  25
ENDBRANCH  20  21
ENDBRANCH   4  20
TORSDOF 7
ENDMDL
MODEL 3
REMARK VINA RESULT:    -6.897      3.271      9.875
REMARK INTER + INTRA:         -10.927
REMARK INTER:                 -10.185
REMARK INTRA:                  -0.742
REMARK UNBOUND:                -1.208
REMARK  Name = 
REMARK  8 active torsions:
REMARK  status: ('A' for Active; 'I' for Inactive)
REMARK    1  A    between atoms: C_1  and  O_2
REMARK    2  A    between atoms: O_2  and  C_3
REMARK    3  A    between atoms: C_8  and  C_9
REMARK    4  A    between atoms: N_11  and  C_12
REMARK    5  A    between atoms: C_12  and  C_13
REMARK    6  A    between atoms: C_16  and  C_17
REMARK    7  A    between atoms: C_17  and  N_18
REMARK    8  A    between atoms: C_19  and  C_21
REMARK                            x       y       z     vdW  Elec       q    Type
REMARK                         _______ _______ _______ _____ _____    ______ ____
ROOT
ATOM      1  C   UNL     1      47.490   5.701  14.548  0.00  0.00    +0.000 A 
ATOM      2  C   UNL     1      48.404   6.325  15.406  0.00  0.00    +0.000 A 
ATOM      3  C   UNL     1      48.785   5.721  16.613  0.00  0.00    +0.000 A 
ATOM      4  C   UNL     1      48.272   4.468  16.978  0.00  0.00    +0.000 A 
ATOM      5  C   UNL     1      47.345   3.854  16.124  0.00  0.00    +0.000 A 
ATOM      6  C   UNL     1      46.968   4.456  14.918  0.00  0.00    +0.000 A 
ENDROOT
BRANCH   1   7
ATOM      7  C   UNL     1      47.106   6.343  13.239  0.00  0.00    +0.000 C 
BRANCH   7  10
ATOM      8  C   UNL     1      45.671   5.690  11.344  0.00  0.00    +0.000 C 
ATOM      9  O   UNL     1      45.180   6.813  11.270  0.00  0.00    +0.000 OA
ATOM     10  N   UNL     1      46.609   5.370  12.296  0.00  0.00    +0.000 N 
ATOM     11  H   UNL     1      46.979   4.426  12.318  0.00  0.00    +0.000 HD
BRANCH   8  17
ATOM     12  C   UNL     1      44.683   3.391  10.690  0.00  0.00    +0.000 A 
ATOM     13  C   UNL     1      44.495   2.429   9.685  0.00  0.00    +0.000 A 
ATOM     14  C   UNL     1      44.844   2.695   8.359  0.00  0.00    +0.000 A 
ATOM     15  C   UNL     1      45.372   3.933   8.015  0.00  0.00    +0.000 A 
ATOM     16  C   UNL     1      45.594   4.888   9.007  0.00  0.00    +0.000 A 
ATOM     17  C   UNL     1      45.284   4.623  10.355  0.00  0.00    +0.000 A 
BRANCH  12  19
ATOM     18  C   UNL     1      43.193   3.938  12.484  0.00  0.00    +0.000 C 
ATOM     19  O   UNL     1      44.302   3.191  11.994  0.00  0.00    +0.000 OA
ENDBRANCH  12  19
ENDBRANCH   8  17
ENDBRANCH   7  10
ENDBRANCH   1   7
BRANCH   4  20
ATOM     20  C   UNL     1      48.691   3.785  18.259  0.00  0.00    +0.000 C 
BRANCH  20  21
ATOM     21  N   UNL     1      50.123   3.734  18.404  0.00  0.00    +0.000 N 
ATOM     22  C   UNL     1      50.905   2.948  17.592  0.00  0.00    +0.000 C 
ATOM     23  O   UNL     1      50.438   2.274  16.679  0.00  0.00    +0.000 OA
ATOM     24  H   UNL     1      50.497   4.040  19.297  0.00  0.00    +0.000 HD
BRANCH  22  25
ATOM     25  C   UNL     1      52.352   3.009  17.843  0.00  0.00    +0.000 A 
ATOM     26  C   UNL     1      53.026   4.222  17.767  0.00  0.00    +0.000 A 
ATOM     27  S   UNL     1      54.688   4.105  18.134  0.00  0.00    +0.000 S 
ATOM     28  C   UNL     1      54.579   2.421  18.352  0.00  0.00    +0.000 A 
ATOM     29  N   UNL     1      55.680   1.678  18.654  0.00  0.00    +0.000 NA
ATOM     30  C   UNL     1      55.453   0.410  18.765  0.00  0.00    +0.000 A 
ATOM     31  N   UNL     1      54.229  -0.180  18.612  0.00  0.00    +0.000 N 
ATOM     32  C   UNL     1      53.084   0.533  18.348  0.00  0.00    +0.000 A 
ATOM     33  O   UNL     1      51.993  -0.018  18.292  0.00  0.00    +0.000 OA
ATOM     34  C   UNL     1      53.287   1.960  18.184  0.00  0.00    +0.000 A 
ATOM     35  H   UNL     1      54.113  -1.177  18.731  0.00  0.00    +0.000 HD
ENDBRANCH  22  25
ENDBRANCH  20  21
ENDBRANCH   4  20
TORSDOF 7
ENDMDL
MODEL 4
REMARK VINA RESULT:    -6.877      2.880      8.888
REMARK INTER + INTRA:         -10.899
REMARK INTER:                  -9.772
REMARK INTRA:                  -1.128
REMARK UNBOUND:                -1.208
REMARK  Name = 
REMARK  8 active torsions:
REMARK  status: ('A' for Active; 'I' for Inactive)
REMARK    1  A    between atoms: C_1  and  O_2
REMARK    2  A    between atoms: O_2  and  C_3
REMARK    3  A    between atoms: C_8  and  C_9
REMARK    4  A    between atoms: N_11  and  C_12
REMARK    5  A    between atoms: C_12  and  C_13
REMARK    6  A    between atoms: C_16  and  C_17
REMARK    7  A    between atoms: C_17  and  N_18
REMARK    8  A    between atoms: C_19  and  C_21
REMARK                            x       y       z     vdW  Elec       q    Type
REMARK                         _______ _______ _______ _____ _____    ______ ____
ROOT
ATOM      1  C   UNL     1      47.968   7.790  13.242  0.00  0.00    +0.000 A 
ATOM      2  C   UNL     1      47.788   8.933  14.032  0.00  0.00    +0.000 A 
ATOM      3  C   UNL     1      48.143   8.933  15.389  0.00  0.00    +0.000 A 
ATOM      4  C   UNL     1      48.704   7.793  15.981  0.00  0.00    +0.000 A 
ATOM      5  C   UNL     1      48.868   6.646  15.191  0.00  0.00    +0.000 A 
ATOM      6  C   UNL     1      48.516   6.647  13.837  0.00  0.00    +0.000 A 
ENDROOT
BRANCH   1   7
ATOM      7  C   UNL     1      47.610   7.805  11.778  0.00  0.00    +0.000 C 
BRANCH   7  10
ATOM      8  C   UNL     1      45.660   6.457  11.103  0.00  0.00    +0.000 C 
ATOM      9  O   UNL     1      44.897   7.410  11.238  0.00  0.00    +0.000 OA
ATOM     10  N   UNL     1      47.005   6.561  11.367  0.00  0.00    +0.000 N 
ATOM     11  H   UNL     1      47.590   5.742  11.246  0.00  0.00    +0.000 HD
BRANCH   8  17
ATOM     12  C   UNL     1      44.524   4.153  11.398  0.00  0.00    +0.000 A 
ATOM     13  C   UNL     1      44.209   2.909  10.828  0.00  0.00    +0.000 A 
ATOM     14  C   UNL     1      44.455   2.654   9.477  0.00  0.00    +0.000 A 
ATOM     15  C   UNL     1      45.004   3.643   8.671  0.00  0.00    +0.000 A 
ATOM     16  C   UNL     1      45.350   4.873   9.230  0.00  0.00    +0.000 A 
ATOM     17  C   UNL     1      45.145   5.136  10.599  0.00  0.00    +0.000 A 
BRANCH  12  19
ATOM     18  C   UNL     1      42.955   4.985  13.006  0.00  0.00    +0.000 C 
ATOM     19  O   UNL     1      44.246   4.465  12.706  0.00  0.00    +0.000 OA
ENDBRANCH  12  19
ENDBRANCH   8  17
ENDBRANCH   7  10
ENDBRANCH   1   7
BRANCH   4  20
ATOM     20  C   UNL     1      49.122   7.779  17.432  0.00  0.00    +0.000 C 
BRANCH  20  21
ATOM     21  N   UNL     1      50.145   6.799  17.693  0.00  0.00    +0.000 N 
ATOM     22  C   UNL     1      49.921   5.723  18.517  0.00  0.00    +0.000 C 
ATOM     23  O   UNL     1      48.835   5.513  19.049  0.00  0.00    +0.000 OA
ATOM     24  H   UNL     1      51.102   7.087  17.511  0.00  0.00    +0.000 HD
BRANCH  22  25
ATOM     25  C   UNL     1      51.051   4.795  18.679  0.00  0.00    +0.000 A 
ATOM     26  C   UNL     1      52.160   5.166  19.429  0.00  0.00    +0.000 A 
ATOM     27  S   UNL     1      53.348   3.947  19.543  0.00  0.00    +0.000 S 
ATOM     28  C   UNL     1      52.449   2.900  18.546  0.00  0.00    +0.000 A 
ATOM     29  N   UNL     1      52.928   1.671  18.206  0.00  0.00    +0.000 NA
ATOM     30  C   UNL     1      52.151   0.996  17.423  0.00  0.00    +0.000 A 
ATOM     31  N   UNL     1      50.941   1.432  16.958  0.00  0.00    +0.000 N 
ATOM     32  C   UNL     1      50.400   2.646  17.308  0.00  0.00    +0.000 A 
ATOM     33  O   UNL     1      49.282   2.973  16.935  0.00  0.00    +0.000 OA
ATOM     34  C   UNL     1      51.245   3.459  18.163  0.00  0.00    +0.000 A 
ATOM     35  H   UNL     1      50.370   0.847  16.363  0.00  0.00    +0.000 HD
ENDBRANCH  22  25
ENDBRANCH  20  21
ENDBRANCH   4  20
TORSDOF 7
ENDMDL
MODEL 5
REMARK VINA RESULT:    -6.872      3.179      8.825
REMARK INTER + INTRA:         -10.892
REMARK INTER:                 -10.545
REMARK INTRA:                  -0.348
REMARK UNBOUND:                -1.208
REMARK  Name = 
REMARK  8 active torsions:
REMARK  status: ('A' for Active; 'I' for Inactive)
REMARK    1  A    between atoms: C_1  and  O_2
REMARK    2  A    between atoms: O_2  and  C_3
REMARK    3  A    between atoms: C_8  and  C_9
REMARK    4  A    between atoms: N_11  and  C_12
REMARK    5  A    between atoms: C_12  and  C_13
REMARK    6  A    between atoms: C_16  and  C_17
REMARK    7  A    between atoms: C_17  and  N_18
REMARK    8  A    between atoms: C_19  and  C_21
REMARK                            x       y       z     vdW  Elec       q    Type
REMARK                         _______ _______ _______ _____ _____    ______ ____
ROOT
ATOM      1  C   UNL     1      44.711   5.827  11.336  0.00  0.00    +0.000 A 
ATOM      2  C   UNL     1      44.661   7.227  11.354  0.00  0.00    +0.000 A 
ATOM      3  C   UNL     1      45.588   7.971  12.098  0.00  0.00    +0.000 A 
ATOM      4  C   UNL     1      46.599   7.329  12.826  0.00  0.00    +0.000 A 
ATOM      5  C   UNL     1      46.637   5.927  12.818  0.00  0.00    +0.000 A 
ATOM      6  C   UNL     1      45.714   5.186  12.072  0.00  0.00    +0.000 A 
ENDROOT
BRANCH   1   7
ATOM      7  C   UNL     1      43.728   5.035  10.512  0.00  0.00    +0.000 C 
BRANCH   7  10
ATOM      8  C   UNL     1      45.372   4.438   8.775  0.00  0.00    +0.000 C 
ATOM      9  O   UNL     1      45.699   5.610   8.617  0.00  0.00    +0.000 OA
ATOM     10  N   UNL     1      44.396   4.071   9.671  0.00  0.00    +0.000 N 
ATOM     11  H   UNL     1      44.159   3.089   9.758  0.00  0.00    +0.000 HD
BRANCH   8  17
ATOM     12  C   UNL     1      46.051   1.977   8.358  0.00  0.00    +0.000 A 
ATOM     13  C   UNL     1      46.849   1.079   7.633  0.00  0.00    +0.000 A 
ATOM     14  C   UNL     1      47.611   1.510   6.544  0.00  0.00    +0.000 A 
ATOM     15  C   UNL     1      47.574   2.842   6.155  0.00  0.00    +0.000 A 
ATOM     16  C   UNL     1      46.810   3.753   6.884  0.00  0.00    +0.000 A 
ATOM     17  C   UNL     1      46.066   3.344   8.008  0.00  0.00    +0.000 A 
BRANCH  12  19
ATOM     18  C   UNL     1      43.992   0.989   9.079  0.00  0.00    +0.000 C 
ATOM     19  O   UNL     1      45.244   1.585   9.398  0.00  0.00    +0.000 OA
ENDBRANCH  12  19
ENDBRANCH   8  17
ENDBRANCH   7  10
ENDBRANCH   1   7
BRANCH   4  20
ATOM     20  C   UNL     1      47.627   8.110  13.610  0.00  0.00    +0.000 C 
BRANCH  20  21
ATOM     21  N   UNL     1      47.945   7.480  14.866  0.00  0.00    +0.000 N 
ATOM     22  C   UNL     1      49.200   6.988  15.131  0.00  0.00    +0.000 C 
ATOM     23  O   UNL     1      50.129   7.085  14.335  0.00  0.00    +0.000 OA
ATOM     24  H   UNL     1      47.159   7.136  15.410  0.00  0.00    +0.000 HD
BRANCH  22  25
ATOM     25  C   UNL     1      49.384   6.387  16.461  0.00  0.00    +0.000 A 
ATOM     26  C   UNL     1      50.181   7.016  17.409  0.00  0.00    +0.000 A 
ATOM     27  S   UNL     1      50.240   6.196  18.905  0.00  0.00    +0.000 S 
ATOM     28  C   UNL     1      49.249   4.942  18.320  0.00  0.00    +0.000 A 
ATOM     29  N   UNL     1      48.932   3.873  19.103  0.00  0.00    +0.000 NA
ATOM     30  C   UNL     1      48.195   2.985  18.519  0.00  0.00    +0.000 A 
ATOM     31  N   UNL     1      47.740   3.072  17.233  0.00  0.00    +0.000 N 
ATOM     32  C   UNL     1      48.000   4.150  16.420  0.00  0.00    +0.000 A 
ATOM     33  O   UNL     1      47.515   4.230  15.299  0.00  0.00    +0.000 OA
ATOM     34  C   UNL     1      48.850   5.164  17.015  0.00  0.00    +0.000 A 
ATOM     35  H   UNL     1      47.149   2.353  16.840  0.00  0.00    +0.000 HD
ENDBRANCH  22  25
ENDBRANCH  20  21
ENDBRANCH   4  20
TORSDOF 7
ENDMDL
MODEL 6
REMARK VINA RESULT:    -6.836      4.770      6.164
REMARK INTER + INTRA:         -10.841
REMARK INTER:                  -9.526
REMARK INTRA:                  -1.315
REMARK UNBOUND:                -1.208
REMARK  Name = 
REMARK  8 active torsions:
REMARK  status: ('A' for Active; 'I' for Inactive)
REMARK    1  A    between atoms: C_1  and  O_2
REMARK    2  A    between atoms: O_2  and  C_3
REMARK    3  A    between atoms: C_8  and  C_9
REMARK    4  A    between atoms: N_11  and  C_12
REMARK    5  A    between atoms: C_12  and  C_13
REMARK    6  A    between atoms: C_16  and  C_17
REMARK    7  A    between atoms: C_17  and  N_18
REMARK    8  A    between atoms: C_19  and  C_21
REMARK                            x       y       z     vdW  Elec       q    Type
REMARK                         _______ _______ _______ _____ _____    ______ ____
ROOT
ATOM      1  C   UNL     1      50.455   8.740  11.262  0.00  0.00    +0.000 A 
ATOM      2  C   UNL     1      49.542   9.791  11.413  0.00  0.00    +0.000 A 
ATOM      3  C   UNL     1      48.278   9.570  11.981  0.00  0.00    +0.000 A 
ATOM      4  C   UNL     1      47.910   8.293  12.428  0.00  0.00    +0.000 A 
ATOM      5  C   UNL     1      48.821   7.241  12.260  0.00  0.00    +0.000 A 
ATOM      6  C   UNL     1      50.082   7.463  11.696  0.00  0.00    +0.000 A 
ENDROOT
BRANCH   1   7
ATOM      7  C   UNL     1      51.822   8.991  10.676  0.00  0.00    +0.000 C 
BRANCH   7  10
ATOM      8  C   UNL     1      52.917   7.731   8.862  0.00  0.00    +0.000 C 
ATOM      9  O   UNL     1      52.890   8.702   8.111  0.00  0.00    +0.000 OA
ATOM     10  N   UNL     1      52.395   7.783  10.133  0.00  0.00    +0.000 N 
ATOM     11  H   UNL     1      52.437   6.951  10.711  0.00  0.00    +0.000 HD
BRANCH   8  17
ATOM     12  C   UNL     1      54.711   5.875   9.022  0.00  0.00    +0.000 A 
ATOM     13  C   UNL     1      55.295   4.743   8.432  0.00  0.00    +0.000 A 
ATOM     14  C   UNL     1      54.733   4.150   7.299  0.00  0.00    +0.000 A 
ATOM     15  C   UNL     1      53.568   4.670   6.749  0.00  0.00    +0.000 A 
ATOM     16  C   UNL     1      52.993   5.812   7.305  0.00  0.00    +0.000 A 
ATOM     17  C   UNL     1      53.568   6.447   8.424  0.00  0.00    +0.000 A 
BRANCH  12  19
ATOM     18  C   UNL     1      55.262   5.653  11.342  0.00  0.00    +0.000 C 
ATOM     19  O   UNL     1      55.199   6.455  10.168  0.00  0.00    +0.000 OA
ENDBRANCH  12  19
ENDBRANCH   8  17
ENDBRANCH   7  10
ENDBRANCH   1   7
BRANCH   4  20
ATOM     20  C   UNL     1      46.567   8.038  13.070  0.00  0.00    +0.000 C 
BRANCH  20  21
ATOM     21  N   UNL     1      46.045   6.736  12.737  0.00  0.00    +0.000 N 
ATOM     22  C   UNL     1      45.023   6.577  11.833  0.00  0.00    +0.000 C 
ATOM     23  O   UNL     1      44.519   7.521  11.233  0.00  0.00    +0.000 OA
ATOM     24  H   UNL     1      46.232   5.992  13.402  0.00  0.00    +0.000 HD
BRANCH  22  25
ATOM     25  C   UNL     1      44.604   5.190  11.578  0.00  0.00    +0.000 A 
ATOM     26  C   UNL     1      43.854   4.501  12.524  0.00  0.00    +0.000 A 
ATOM     27  S   UNL     1      43.422   2.924  12.037  0.00  0.00    +0.000 S 
ATOM     28  C   UNL     1      44.270   3.085  10.570  0.00  0.00    +0.000 A 
ATOM     29  N   UNL     1      44.335   2.056   9.679  0.00  0.00    +0.000 NA
ATOM     30  C   UNL     1      45.035   2.311   8.622  0.00  0.00    +0.000 A 
ATOM     31  N   UNL     1      45.663   3.498   8.370  0.00  0.00    +0.000 N 
ATOM     32  C   UNL     1      45.591   4.577   9.218  0.00  0.00    +0.000 A 
ATOM     33  O   UNL     1      46.103   5.649   8.927  0.00  0.00    +0.000 OA
ATOM     34  C   UNL     1      44.843   4.336  10.438  0.00  0.00    +0.000 A 
ATOM     35  H   UNL     1      46.180   3.643   7.512  0.00  0.00    +0.000 HD
ENDBRANCH  22  25
ENDBRANCH  20  21
ENDBRANCH   4  20
TORSDOF 7
ENDMDL
MODEL 7
REMARK VINA RESULT:    -6.794      3.604      9.225
REMARK INTER + INTRA:         -10.782
REMARK INTER:                 -10.073
REMARK INTRA:                  -0.709
REMARK UNBOUND:                -1.208
REMARK  Name = 
REMARK  8 active torsions:
REMARK  status: ('A' for Active; 'I' for Inactive)
REMARK    1  A    between atoms: C_1  and  O_2
REMARK    2  A    between atoms: O_2  and  C_3
REMARK    3  A    between atoms: C_8  and  C_9
REMARK    4  A    between atoms: N_11  and  C_12
REMARK    5  A    between atoms: C_12  and  C_13
REMARK    6  A    between atoms: C_16  and  C_17
REMARK    7  A    between atoms: C_17  and  N_18
REMARK    8  A    between atoms: C_19  and  C_21
REMARK                            x       y       z     vdW  Elec       q    Type
REMARK                         _______ _______ _______ _____ _____    ______ ____
ROOT
ATOM      1  C   UNL     1      44.926   4.711  12.219  0.00  0.00    +0.000 A 
ATOM      2  C   UNL     1      44.276   5.843  11.710  0.00  0.00    +0.000 A 
ATOM      3  C   UNL     1      44.718   7.133  12.037  0.00  0.00    +0.000 A 
ATOM      4  C   UNL     1      45.833   7.318  12.866  0.00  0.00    +0.000 A 
ATOM      5  C   UNL     1      46.471   6.182  13.386  0.00  0.00    +0.000 A 
ATOM      6  C   UNL     1      46.032   4.896  13.057  0.00  0.00    +0.000 A 
ENDROOT
BRANCH   1   7
ATOM      7  C   UNL     1      44.462   3.327  11.842  0.00  0.00    +0.000 C 
BRANCH   7  10
ATOM      8  C   UNL     1      44.835   2.890   9.445  0.00  0.00    +0.000 C 
ATOM      9  O   UNL     1      43.770   3.418   9.137  0.00  0.00    +0.000 OA
ATOM     10  N   UNL     1      45.241   2.785  10.754  0.00  0.00    +0.000 N 
ATOM     11  H   UNL     1      46.126   2.334  10.955  0.00  0.00    +0.000 HD
BRANCH   8  17
ATOM     12  C   UNL     1      46.337   3.148   7.356  0.00  0.00    +0.000 A 
ATOM     13  C   UNL     1      47.078   2.511   6.348  0.00  0.00    +0.000 A 
ATOM     14  C   UNL     1      47.294   1.131   6.375  0.00  0.00    +0.000 A 
ATOM     15  C   UNL     1      46.786   0.370   7.419  0.00  0.00    +0.000 A 
ATOM     16  C   UNL     1      46.022   0.983   8.412  0.00  0.00    +0.000 A 
ATOM     17  C   UNL     1      45.761   2.367   8.380  0.00  0.00    +0.000 A 
BRANCH  12  19
ATOM     18  C   UNL     1      46.647   5.212   8.531  0.00  0.00    +0.000 C 
ATOM     19  O   UNL     1      46.150   4.508   7.398  0.00  0.00    +0.000 OA
ENDBRANCH  12  19
ENDBRANCH   8  17
ENDBRANCH   7  10
ENDBRANCH   1   7
BRANCH   4  20
ATOM     20  C   UNL     1      46.345   8.697  13.207  0.00  0.00    +0.000 C 
BRANCH  20  21
ATOM     21  N   UNL     1      46.899   8.758  14.536  0.00  0.00    +0.000 N 
ATOM     22  C   UNL     1      48.250   8.879  14.752  0.00  0.00    +0.000 C 
ATOM     23  O   UNL     1      49.059   8.977  13.834  0.00  0.00    +0.000 OA
ATOM     24  H   UNL     1      46.313   8.401  15.286  0.00  0.00    +0.000 HD
BRANCH  22  25
ATOM     25  C   UNL     1      48.671   8.945  16.160  0.00  0.00    +0.000 A 
ATOM     26  C   UNL     1      48.729  10.168  16.816  0.00  0.00    +0.000 A 
ATOM     27  S   UNL     1      49.193  10.044  18.453  0.00  0.00    +0.000 S 
ATOM     28  C   UNL     1      49.386   8.358  18.329  0.00  0.00    +0.000 A 
ATOM     29  N   UNL     1      49.813   7.619  19.391  0.00  0.00    +0.000 NA
ATOM     30  C   UNL     1      49.940   6.356  19.144  0.00  0.00    +0.000 A 
ATOM     31  N   UNL     1      49.671   5.765  17.940  0.00  0.00    +0.000 N 
ATOM     32  C   UNL     1      49.199   6.463  16.854  0.00  0.00    +0.000 A 
ATOM     33  O   UNL     1      48.897   5.892  15.815  0.00  0.00    +0.000 OA
ATOM     34  C   UNL     1      49.067   7.893  17.067  0.00  0.00    +0.000 A 
ATOM     35  H   UNL     1      49.771   4.767  17.816  0.00  0.00    +0.000 HD
ENDBRANCH  22  25
ENDBRANCH  20  21
ENDBRANCH   4  20
TORSDOF 7
ENDMDL
MODEL 8
REMARK VINA RESULT:    -6.294      3.494      9.689
REMARK INTER + INTRA:         -10.078
REMARK INTER:                  -8.877
REMARK INTRA:                  -1.200
REMARK UNBOUND:                -1.208
REMARK  Name = 
REMARK  8 active torsions:
REMARK  status: ('A' for Active; 'I' for Inactive)
REMARK    1  A    between atoms: C_1  and  O_2
REMARK    2  A    between atoms: O_2  and  C_3
REMARK    3  A    between atoms: C_8  and  C_9
REMARK    4  A    between atoms: N_11  and  C_12
REMARK    5  A    between atoms: C_12  and  C_13
REMARK    6  A    between atoms: C_16  and  C_17
REMARK    7  A    between atoms: C_17  and  N_18
REMARK    8  A    between atoms: C_19  and  C_21
REMARK                            x       y       z     vdW  Elec       q    Type
REMARK                         _______ _______ _______ _____ _____    ______ ____
ROOT
ATOM      1  C   UNL     1      45.632   4.243  12.224  0.00  0.00    +0.000 A 
ATOM      2  C   UNL     1      45.569   5.580  11.812  0.00  0.00    +0.000 A 
ATOM      3  C   UNL     1      46.282   6.577  12.495  0.00  0.00    +0.000 A 
ATOM      4  C   UNL     1      47.089   6.252  13.594  0.00  0.00    +0.000 A 
ATOM      5  C   UNL     1      47.137   4.914  14.013  0.00  0.00    +0.000 A 
ATOM      6  C   UNL     1      46.428   3.921  13.329  0.00  0.00    +0.000 A 
ENDROOT
BRANCH   1   7
ATOM      7  C   UNL     1      44.885   3.173  11.469  0.00  0.00    +0.000 C 
BRANCH   7  10
ATOM      8  C   UNL     1      45.145   3.323   9.022  0.00  0.00    +0.000 C 
ATOM      9  O   UNL     1      44.165   4.057   8.918  0.00  0.00    +0.000 OA
ATOM     10  N   UNL     1      45.554   2.828  10.237  0.00  0.00    +0.000 N 
ATOM     11  H   UNL     1      46.365   2.220  10.267  0.00  0.00    +0.000 HD
BRANCH   8  17
ATOM     12  C   UNL     1      46.445   1.677   7.509  0.00  0.00    +0.000 A 
ATOM     13  C   UNL     1      47.308   1.510   6.415  0.00  0.00    +0.000 A 
ATOM     14  C   UNL     1      47.652   2.588   5.596  0.00  0.00    +0.000 A 
ATOM     15  C   UNL     1      47.124   3.848   5.850  0.00  0.00    +0.000 A 
ATOM     16  C   UNL     1      46.289   4.037   6.950  0.00  0.00    +0.000 A 
ATOM     17  C   UNL     1      45.963   2.969   7.810  0.00  0.00    +0.000 A 
BRANCH  12  19
ATOM     18  C   UNL     1      46.417  -0.682   7.919  0.00  0.00    +0.000 C 
ATOM     19  O   UNL     1      46.037   0.634   8.304  0.00  0.00    +0.000 OA
ENDBRANCH  12  19
ENDBRANCH   8  17
ENDBRANCH   7  10
ENDBRANCH   1   7
BRANCH   4  20
ATOM     20  C   UNL     1      47.889   7.304  14.326  0.00  0.00    +0.000 C 
BRANCH  20  21
ATOM     21  N   UNL     1      48.666   6.743  15.402  0.00  0.00    +0.000 N 
ATOM     22  C   UNL     1      48.814   7.395  16.603  0.00  0.00    +0.000 C 
ATOM     23  O   UNL     1      48.271   8.468  16.842  0.00  0.00    +0.000 OA
ATOM     24  H   UNL     1      49.340   6.027  15.147  0.00  0.00    +0.000 HD
BRANCH  22  25
ATOM     25  C   UNL     1      49.621   6.696  17.614  0.00  0.00    +0.000 A 
ATOM     26  C   UNL     1      51.002   6.618  17.477  0.00  0.00    +0.000 A 
ATOM     27  S   UNL     1      51.772   5.811  18.768  0.00  0.00    +0.000 S 
ATOM     28  C   UNL     1      50.285   5.488  19.528  0.00  0.00    +0.000 A 
ATOM     29  N   UNL     1      50.229   4.779  20.690  0.00  0.00    +0.000 NA
ATOM     30  C   UNL     1      49.031   4.587  21.139  0.00  0.00    +0.000 A 
ATOM     31  N   UNL     1      47.890   5.045  20.540  0.00  0.00    +0.000 N 
ATOM     32  C   UNL     1      47.901   5.799  19.391  0.00  0.00    +0.000 A 
ATOM     33  O   UNL     1      46.867   6.257  18.923  0.00  0.00    +0.000 OA
ATOM     34  C   UNL     1      49.219   6.019  18.826  0.00  0.00    +0.000 A 
ATOM     35  H   UNL     1      46.982   4.878  20.953  0.00  0.00    +0.000 HD
ENDBRANCH  22  25
ENDBRANCH  20  21
ENDBRANCH   4  20
TORSDOF 7
ENDMDL
MODEL 9
REMARK VINA RESULT:    -5.936      4.281      6.333
REMARK INTER + INTRA:          -9.573
REMARK INTER:                  -8.274
REMARK INTRA:                  -1.299
REMARK UNBOUND:                -1.208
REMARK  Name = 
REMARK  8 active torsions:
REMARK  status: ('A' for Active; 'I' for Inactive)
REMARK    1  A    between atoms: C_1  and  O_2
REMARK    2  A    between atoms: O_2  and  C_3
REMARK    3  A    between atoms: C_8  and  C_9
REMARK    4  A    between atoms: N_11  and  C_12
REMARK    5  A    between atoms: C_12  and  C_13
REMARK    6  A    between atoms: C_16  and  C_17
REMARK    7  A    between atoms: C_17  and  N_18
REMARK    8  A    between atoms: C_19  and  C_21
REMARK                            x       y       z     vdW  Elec       q    Type
REMARK                         _______ _______ _______ _____ _____    ______ ____
ROOT
ATOM      1  C   UNL     1      50.692   8.355  12.128  0.00  0.00    +0.000 A 
ATOM      2  C   UNL     1      49.609   7.859  11.392  0.00  0.00    +0.000 A 
ATOM      3  C   UNL     1      48.492   7.309  12.038  0.00  0.00    +0.000 A 
ATOM      4  C   UNL     1      48.427   7.262  13.438  0.00  0.00    +0.000 A 
ATOM      5  C   UNL     1      49.521   7.746  14.171  0.00  0.00    +0.000 A 
ATOM      6  C   UNL     1      50.633   8.297  13.525  0.00  0.00    +0.000 A 
ENDROOT
BRANCH   1   7
ATOM      7  C   UNL     1      51.878   8.970  11.428  0.00  0.00    +0.000 C 
BRANCH   7  10
ATOM      8  C   UNL     1      53.410   7.549  10.121  0.00  0.00    +0.000 C 
ATOM      9  O   UNL     1      54.249   7.551  11.017  0.00  0.00    +0.000 OA
ATOM     10  N   UNL     1      52.226   8.238  10.234  0.00  0.00    +0.000 N 
ATOM     11  H   UNL     1      51.570   8.209   9.461  0.00  0.00    +0.000 HD
BRANCH   8  17
ATOM     12  C   UNL     1      53.251   7.150   7.571  0.00  0.00    +0.000 A 
ATOM     13  C   UNL     1      53.404   6.250   6.504  0.00  0.00    +0.000 A 
ATOM     14  C   UNL     1      53.979   4.992   6.700  0.00  0.00    +0.000 A 
ATOM     15  C   UNL     1      54.424   4.621   7.963  0.00  0.00    +0.000 A 
ATOM     16  C   UNL     1      54.251   5.491   9.038  0.00  0.00    +0.000 A 
ATOM     17  C   UNL     1      53.638   6.748   8.867  0.00  0.00    +0.000 A 
BRANCH  12  19
ATOM     18  C   UNL     1      52.683   8.946   6.091  0.00  0.00    +0.000 C 
ATOM     19  O   UNL     1      52.743   8.416   7.411  0.00  0.00    +0.000 OA
ENDBRANCH  12  19
ENDBRANCH   8  17
ENDBRANCH   7  10
ENDBRANCH   1   7
BRANCH   4  20
ATOM     20  C   UNL     1      47.222   6.702  14.155  0.00  0.00    +0.000 C 
BRANCH  20  21
ATOM     21  N   UNL     1      46.568   5.669  13.394  0.00  0.00    +0.000 N 
ATOM     22  C   UNL     1      45.327   5.859  12.834  0.00  0.00    +0.000 C 
ATOM     23  O   UNL     1      44.721   6.922  12.919  0.00  0.00    +0.000 OA
ATOM     24  H   UNL     1      46.898   4.720  13.544  0.00  0.00    +0.000 HD
BRANCH  22  25
ATOM     25  C   UNL     1      44.790   4.723  12.070  0.00  0.00    +0.000 A 
ATOM     26  C   UNL     1      44.003   3.766  12.699  0.00  0.00    +0.000 A 
ATOM     27  S   UNL     1      43.433   2.550  11.646  0.00  0.00    +0.000 S 
ATOM     28  C   UNL     1      44.263   3.228  10.324  0.00  0.00    +0.000 A 
ATOM     29  N   UNL     1      44.225   2.641   9.095  0.00  0.00    +0.000 NA
ATOM     30  C   UNL     1      44.923   3.251   8.193  0.00  0.00    +0.000 A 
ATOM     31  N   UNL     1      45.644   4.393   8.403  0.00  0.00    +0.000 N 
ATOM     32  C   UNL     1      45.677   5.043   9.615  0.00  0.00    +0.000 A 
ATOM     33  O   UNL     1      46.271   6.104   9.749  0.00  0.00    +0.000 OA
ATOM     34  C   UNL     1      44.935   4.384  10.673  0.00  0.00    +0.000 A 
ATOM     35  H   UNL     1      46.154   4.834   7.650  0.00  0.00    +0.000 HD
ENDBRANCH  22  25
ENDBRANCH  20  21
ENDBRANCH   4  20
TORSDOF 7
ENDMDL
