MODEL 1
REMARK VINA RESULT:    -6.632      0.000      0.000
REMARK INTER + INTRA:          -9.855
REMARK INTER:                  -8.958
REMARK INTRA:                  -0.897
REMARK UNBOUND:                -0.897
REMARK  Name = 
REMARK  7 active torsions:
REMARK  status: ('A' for Active; 'I' for Inactive)
REMARK    1  A    between atoms: C_1  and  O_2
REMARK    2  A    between atoms: O_2  and  C_3
REMARK    3  A    between atoms: C_10  and  C_11
REMARK    4  A    between atoms: N_13  and  C_14
REMARK    5  A    between atoms: C_14  and  C_15
REMARK    6  A    between atoms: C_18  and  C_19
REMARK    7  A    between atoms: C_20  and  C_21
REMARK                            x       y       z     vdW  Elec       q    Type
REMARK                         _______ _______ _______ _____ _____    ______ ____
ROOT
ATOM      1  C   UNL     1      47.419   5.408  14.397  0.00  0.00    +0.000 C 
ATOM      2  O   UNL     1      48.439   5.997  14.040  0.00  0.00    +0.000 OA
ATOM      3  N   UNL     1      47.197   5.113  15.714  0.00  0.00    +0.000 N 
ATOM      4  H   UNL     1      46.313   4.719  16.002  0.00  0.00    +0.000 HD
ENDROOT
BRANCH   1  12
ATOM      5  C   UNL     1      45.107   7.106  12.494  0.00  0.00    +0.000 A 
ATOM      6  N   UNL     1      44.092   7.501  11.699  0.00  0.00    +0.000 NA
ATOM      7  C   UNL     1      43.394   6.561  11.056  0.00  0.00    +0.000 A 
ATOM      8  N   UNL     1      43.590   5.246  11.102  0.00  0.00    +0.000 NA
ATOM      9  C   UNL     1      44.609   4.895  11.904  0.00  0.00    +0.000 A 
ATOM     10  S   UNL     1      45.009   3.254  12.076  0.00  0.00    +0.000 S 
ATOM     11  C   UNL     1      46.260   3.623  13.165  0.00  0.00    +0.000 A 
ATOM     12  C   UNL     1      46.400   4.981  13.424  0.00  0.00    +0.000 A 
ATOM     13  C   UNL     1      45.423   5.743  12.648  0.00  0.00    +0.000 A 
BRANCH   5  15
ATOM     14  C   UNL     1      46.901   8.594  12.245  0.00  0.00    +0.000 C 
ATOM     15  O   UNL     1      45.878   8.078  13.095  0.00  0.00    +0.000 OA
ENDBRANCH   5  15
ENDBRANCH   1  12
BRANCH   3  16
ATOM     16  C   UNL     1      48.142   5.459  16.747  0.00  0.00    +0.000 C 
BRANCH  16  17
ATOM     17  C   UNL     1      49.097   4.323  17.011  0.00  0.00    +0.000 A 
ATOM     18  C   UNL     1      50.390   4.571  17.493  0.00  0.00    +0.000 A 
ATOM     19  C   UNL     1      51.279   3.515  17.727  0.00  0.00    +0.000 A 
ATOM     20  C   UNL     1      50.899   2.189  17.486  0.00  0.00    +0.000 A 
ATOM     21  C   UNL     1      49.618   1.949  16.969  0.00  0.00    +0.000 A 
ATOM     22  C   UNL     1      48.728   3.002  16.733  0.00  0.00    +0.000 A 
BRANCH  20  23
ATOM     23  C   UNL     1      51.807   1.049  17.681  0.00  0.00    +0.000 C 
ATOM     24  C   UNL     1      53.126   1.049  17.416  0.00  0.00    +0.000 C 
BRANCH  24  25
ATOM     25  C   UNL     1      53.999  -0.119  17.629  0.00  0.00    +0.000 A 
ATOM     26  C   UNL     1      54.843  -0.559  16.614  0.00  0.00    +0.000 A 
ATOM     27  C   UNL     1      55.651  -1.673  16.843  0.00  0.00    +0.000 A 
ATOM     28  C   UNL     1      55.595  -2.313  18.074  0.00  0.00    +0.000 A 
ATOM     29  C   UNL     1      54.730  -1.810  19.029  0.00  0.00    +0.000 A 
ATOM     30  N   UNL     1      53.935  -0.735  18.834  0.00  0.00    +0.000 NA
ENDBRANCH  24  25
ENDBRANCH  20  23
ENDBRANCH  16  17
ENDBRANCH   3  16
TORSDOF 6
ENDMDL
MODEL 2
REMARK VINA RESULT:    -6.276      2.003      3.184
REMARK INTER + INTRA:          -9.374
REMARK INTER:                  -8.217
REMARK INTRA:                  -1.156
REMARK UNBOUND:                -0.897
REMARK  Name = 
REMARK  7 active torsions:
REMARK  status: ('A' for Active; 'I' for Inactive)
REMARK    1  A    between atoms: C_1  and  O_2
REMARK    2  A    between atoms: O_2  and  C_3
REMARK    3  A    between atoms: C_10  and  C_11
REMARK    4  A    between atoms: N_13  and  C_14
REMARK    5  A    between atoms: C_14  and  C_15
REMARK    6  A    between atoms: C_18  and  C_19
REMARK    7  A    between atoms: C_20  and  C_21
REMARK                            x       y       z     vdW  Elec       q    Type
REMARK                         _______ _______ _______ _____ _____    ______ ____
ROOT
ATOM      1  C   UNL     1      47.992   7.657  13.903  0.00  0.00    +0.000 C 
ATOM      2  O   UNL     1      48.948   8.192  13.344  0.00  0.00    +0.000 OA
ATOM      3  N   UNL     1      47.924   7.574  15.267  0.00  0.00    +0.000 N 
ATOM      4  H   UNL     1      47.089   7.221  15.712  0.00  0.00    +0.000 HD
ENDROOT
BRANCH   1  12
ATOM      5  C   UNL     1      46.760   4.457  13.594  0.00  0.00    +0.000 A 
ATOM      6  N   UNL     1      46.126   3.319  13.248  0.00  0.00    +0.000 NA
ATOM      7  C   UNL     1      45.147   3.395  12.341  0.00  0.00    +0.000 A 
ATOM      8  N   UNL     1      44.706   4.491  11.729  0.00  0.00    +0.000 NA
ATOM      9  C   UNL     1      45.364   5.602  12.102  0.00  0.00    +0.000 A 
ATOM     10  S   UNL     1      44.928   7.097  11.427  0.00  0.00    +0.000 S 
ATOM     11  C   UNL     1      46.130   7.904  12.316  0.00  0.00    +0.000 A 
ATOM     12  C   UNL     1      46.884   7.068  13.131  0.00  0.00    +0.000 A 
ATOM     13  C   UNL     1      46.407   5.692  13.018  0.00  0.00    +0.000 A 
BRANCH   5  15
ATOM     14  C   UNL     1      47.192   3.987  15.849  0.00  0.00    +0.000 C 
ATOM     15  O   UNL     1      47.715   4.393  14.586  0.00  0.00    +0.000 OA
ENDBRANCH   5  15
ENDBRANCH   1  12
BRANCH   3  16
ATOM     16  C   UNL     1      48.966   8.092  16.119  0.00  0.00    +0.000 C 
BRANCH  16  17
ATOM     17  C   UNL     1      49.906   6.996  16.553  0.00  0.00    +0.000 A 
ATOM     18  C   UNL     1      49.454   5.940  17.356  0.00  0.00    +0.000 A 
ATOM     19  C   UNL     1      50.332   4.929  17.767  0.00  0.00    +0.000 A 
ATOM     20  C   UNL     1      51.679   4.949  17.386  0.00  0.00    +0.000 A 
ATOM     21  C   UNL     1      52.135   6.027  16.613  0.00  0.00    +0.000 A 
ATOM     22  C   UNL     1      51.261   7.039  16.202  0.00  0.00    +0.000 A 
BRANCH  20  23
ATOM     23  C   UNL     1      52.648   3.932  17.820  0.00  0.00    +0.000 C 
ATOM     24  C   UNL     1      52.394   2.616  17.944  0.00  0.00    +0.000 C 
BRANCH  24  25
ATOM     25  C   UNL     1      53.399   1.632  18.383  0.00  0.00    +0.000 A 
ATOM     26  C   UNL     1      54.561   2.053  19.024  0.00  0.00    +0.000 A 
ATOM     27  C   UNL     1      55.497   1.099  19.420  0.00  0.00    +0.000 A 
ATOM     28  C   UNL     1      55.249  -0.244  19.168  0.00  0.00    +0.000 A 
ATOM     29  C   UNL     1      54.069  -0.578  18.528  0.00  0.00    +0.000 A 
ATOM     30  N   UNL     1      53.146   0.325  18.131  0.00  0.00    +0.000 NA
ENDBRANCH  24  25
ENDBRANCH  20  23
ENDBRANCH  16  17
ENDBRANCH   3  16
TORSDOF 6
ENDMDL
MODEL 3
REMARK VINA RESULT:    -5.971      2.346      3.581
REMARK INTER + INTRA:          -8.963
REMARK INTER:                  -7.791
REMARK INTRA:                  -1.172
REMARK UNBOUND:                -0.897
REMARK  Name = 
REMARK  7 active torsions:
REMARK  status: ('A' for Active; 'I' for Inactive)
REMARK    1  A    between atoms: C_1  and  O_2
REMARK    2  A    between atoms: O_2  and  C_3
REMARK    3  A    between atoms: C_10  and  C_11
REMARK    4  A    between atoms: N_13  and  C_14
REMARK    5  A    between atoms: C_14  and  C_15
REMARK    6  A    between atoms: C_18  and  C_19
REMARK    7  A    between atoms: C_20  and  C_21
REMARK                            x       y       z     vdW  Elec       q    Type
REMARK                         _______ _______ _______ _____ _____    ______ ____
ROOT
ATOM      1  C   UNL     1      47.510   7.911  13.354  0.00  0.00    +0.000 C 
ATOM      2  O   UNL     1      48.442   8.352  12.682  0.00  0.00    +0.000 OA
ATOM      3  N   UNL     1      47.470   8.089  14.709  0.00  0.00    +0.000 N 
ATOM      4  H   UNL     1      46.653   7.809  15.233  0.00  0.00    +0.000 HD
ENDROOT
BRANCH   1  12
ATOM      5  C   UNL     1      46.569   4.600  13.420  0.00  0.00    +0.000 A 
ATOM      6  N   UNL     1      46.020   3.384  13.226  0.00  0.00    +0.000 NA
ATOM      7  C   UNL     1      44.969   3.292  12.407  0.00  0.00    +0.000 A 
ATOM      8  N   UNL     1      44.378   4.285  11.748  0.00  0.00    +0.000 NA
ATOM      9  C   UNL     1      44.954   5.478  11.968  0.00  0.00    +0.000 A 
ATOM     10  S   UNL     1      44.324   6.862  11.213  0.00  0.00    +0.000 S 
ATOM     11  C   UNL     1      45.512   7.849  11.922  0.00  0.00    +0.000 A 
ATOM     12  C   UNL     1      46.406   7.160  12.734  0.00  0.00    +0.000 A 
ATOM     13  C   UNL     1      46.054   5.743  12.778  0.00  0.00    +0.000 A 
BRANCH   5  15
ATOM     14  C   UNL     1      47.335   4.066  15.570  0.00  0.00    +0.000 C 
ATOM     15  O   UNL     1      47.602   4.710  14.326  0.00  0.00    +0.000 OA
ENDBRANCH   5  15
ENDBRANCH   1  12
BRANCH   3  16
ATOM     16  C   UNL     1      48.513   8.785  15.423  0.00  0.00    +0.000 C 
BRANCH  16  17
ATOM     17  C   UNL     1      49.556   7.823  15.932  0.00  0.00    +0.000 A 
ATOM     18  C   UNL     1      50.879   7.892  15.474  0.00  0.00    +0.000 A 
ATOM     19  C   UNL     1      51.844   6.990  15.940  0.00  0.00    +0.000 A 
ATOM     20  C   UNL     1      51.510   6.000  16.873  0.00  0.00    +0.000 A 
ATOM     21  C   UNL     1      50.178   5.911  17.299  0.00  0.00    +0.000 A 
ATOM     22  C   UNL     1      49.211   6.810  16.835  0.00  0.00    +0.000 A 
BRANCH  20  23
ATOM     23  C   UNL     1      52.478   5.008  17.365  0.00  0.00    +0.000 C 
ATOM     24  C   UNL     1      52.179   3.936  18.121  0.00  0.00    +0.000 C 
BRANCH  24  25
ATOM     25  C   UNL     1      53.184   2.966  18.591  0.00  0.00    +0.000 A 
ATOM     26  C   UNL     1      53.449   1.817  17.852  0.00  0.00    +0.000 A 
ATOM     27  C   UNL     1      54.400   0.913  18.327  0.00  0.00    +0.000 A 
ATOM     28  C   UNL     1      55.058   1.182  19.520  0.00  0.00    +0.000 A 
ATOM     29  C   UNL     1      54.738   2.349  20.191  0.00  0.00    +0.000 A 
ATOM     30  N   UNL     1      53.820   3.240  19.756  0.00  0.00    +0.000 NA
ENDBRANCH  24  25
ENDBRANCH  20  23
ENDBRANCH  16  17
ENDBRANCH   3  16
TORSDOF 6
ENDMDL
MODEL 4
REMARK VINA RESULT:    -5.950      1.821      2.384
REMARK INTER + INTRA:          -8.934
REMARK INTER:                  -8.452
REMARK INTRA:                  -0.482
REMARK UNBOUND:                -0.897
REMARK  Name = 
REMARK  7 active torsions:
REMARK  status: ('A' for Active; 'I' for Inactive)
REMARK    1  A    between atoms: C_1  and  O_2
REMARK    2  A    between atoms: O_2  and  C_3
REMARK    3  A    between atoms: C_10  and  C_11
REMARK    4  A    between atoms: N_13  and  C_14
REMARK    5  A    between atoms: C_14  and  C_15
REMARK    6  A    between atoms: C_18  and  C_19
REMARK    7  A    between atoms: C_20  and  C_21
REMARK                            x       y       z     vdW  Elec       q    Type
REMARK                         _______ _______ _______ _____ _____    ______ ____
ROOT
ATOM      1  C   UNL     1      46.866   4.852  14.757  0.00  0.00    +0.000 C 
ATOM      2  O   UNL     1      46.334   3.754  14.912  0.00  0.00    +0.000 OA
ATOM      3  N   UNL     1      47.506   5.481  15.789  0.00  0.00    +0.000 N 
ATOM      4  H   UNL     1      48.021   6.333  15.621  0.00  0.00    +0.000 HD
ENDROOT
BRANCH   1  12
ATOM      5  C   UNL     1      45.219   4.240  11.796  0.00  0.00    +0.000 A 
ATOM      6  N   UNL     1      44.754   4.209  10.531  0.00  0.00    +0.000 NA
ATOM      7  C   UNL     1      45.171   5.154   9.684  0.00  0.00    +0.000 A 
ATOM      8  N   UNL     1      46.007   6.155   9.950  0.00  0.00    +0.000 NA
ATOM      9  C   UNL     1      46.446   6.150  11.219  0.00  0.00    +0.000 A 
ATOM     10  S   UNL     1      47.516   7.361  11.738  0.00  0.00    +0.000 S 
ATOM     11  C   UNL     1      47.596   6.692  13.297  0.00  0.00    +0.000 A 
ATOM     12  C   UNL     1      46.826   5.546  13.458  0.00  0.00    +0.000 A 
ATOM     13  C   UNL     1      46.120   5.236  12.217  0.00  0.00    +0.000 A 
BRANCH   5  15
ATOM     14  C   UNL     1      43.419   2.852  12.368  0.00  0.00    +0.000 C 
ATOM     15  O   UNL     1      44.728   3.314  12.693  0.00  0.00    +0.000 OA
ENDBRANCH   5  15
ENDBRANCH   1  12
BRANCH   3  16
ATOM     16  C   UNL     1      47.581   4.906  17.109  0.00  0.00    +0.000 C 
BRANCH  16  17
ATOM     17  C   UNL     1      48.820   4.061  17.264  0.00  0.00    +0.000 A 
ATOM     18  C   UNL     1      50.071   4.656  17.475  0.00  0.00    +0.000 A 
ATOM     19  C   UNL     1      51.223   3.869  17.607  0.00  0.00    +0.000 A 
ATOM     20  C   UNL     1      51.151   2.473  17.532  0.00  0.00    +0.000 A 
ATOM     21  C   UNL     1      49.903   1.884  17.284  0.00  0.00    +0.000 A 
ATOM     22  C   UNL     1      48.751   2.668  17.150  0.00  0.00    +0.000 A 
BRANCH  20  23
ATOM     23  C   UNL     1      52.334   1.606  17.628  0.00  0.00    +0.000 C 
ATOM     24  C   UNL     1      52.325   0.312  17.999  0.00  0.00    +0.000 C 
BRANCH  24  25
ATOM     25  C   UNL     1      53.539  -0.519  18.080  0.00  0.00    +0.000 A 
ATOM     26  C   UNL     1      54.603  -0.295  17.211  0.00  0.00    +0.000 A 
ATOM     27  C   UNL     1      55.734  -1.104  17.306  0.00  0.00    +0.000 A 
ATOM     28  C   UNL     1      55.774  -2.109  18.263  0.00  0.00    +0.000 A 
ATOM     29  C   UNL     1      54.676  -2.263  19.090  0.00  0.00    +0.000 A 
ATOM     30  N   UNL     1      53.566  -1.497  19.018  0.00  0.00    +0.000 NA
ENDBRANCH  24  25
ENDBRANCH  20  23
ENDBRANCH  16  17
ENDBRANCH   3  16
TORSDOF 6
ENDMDL
MODEL 5
REMARK VINA RESULT:    -5.923      3.617      9.753
REMARK INTER + INTRA:          -8.897
REMARK INTER:                  -7.842
REMARK INTRA:                  -1.055
REMARK UNBOUND:                -0.897
REMARK  Name = 
REMARK  7 active torsions:
REMARK  status: ('A' for Active; 'I' for Inactive)
REMARK    1  A    between atoms: C_1  and  O_2
REMARK    2  A    between atoms: O_2  and  C_3
REMARK    3  A    between atoms: C_10  and  C_11
REMARK    4  A    between atoms: N_13  and  C_14
REMARK    5  A    between atoms: C_14  and  C_15
REMARK    6  A    between atoms: C_18  and  C_19
REMARK    7  A    between atoms: C_20  and  C_21
REMARK                            x       y       z     vdW  Elec       q    Type
REMARK                         _______ _______ _______ _____ _____    ______ ____
ROOT
ATOM      1  C   UNL     1      52.259   5.640  18.531  0.00  0.00    +0.000 C 
ATOM      2  O   UNL     1      51.486   6.068  19.387  0.00  0.00    +0.000 OA
ATOM      3  N   UNL     1      52.379   6.254  17.315  0.00  0.00    +0.000 N 
ATOM      4  H   UNL     1      53.088   5.951  16.662  0.00  0.00    +0.000 HD
ENDROOT
BRANCH   1  12
ATOM      5  C   UNL     1      51.913   2.326  17.664  0.00  0.00    +0.000 A 
ATOM      6  N   UNL     1      51.999   0.989  17.515  0.00  0.00    +0.000 NA
ATOM      7  C   UNL     1      53.032   0.359  18.080  0.00  0.00    +0.000 A 
ATOM      8  N   UNL     1      54.019   0.909  18.783  0.00  0.00    +0.000 NA
ATOM      9  C   UNL     1      53.896   2.241  18.908  0.00  0.00    +0.000 A 
ATOM     10  S   UNL     1      55.072   3.111  19.769  0.00  0.00    +0.000 S 
ATOM     11  C   UNL     1      54.251   4.576  19.504  0.00  0.00    +0.000 A 
ATOM     12  C   UNL     1      53.078   4.440  18.770  0.00  0.00    +0.000 A 
ATOM     13  C   UNL     1      52.880   3.042  18.394  0.00  0.00    +0.000 A 
BRANCH   5  15
ATOM     14  C   UNL     1      49.594   2.604  17.467  0.00  0.00    +0.000 C 
ATOM     15  O   UNL     1      50.891   2.988  17.016  0.00  0.00    +0.000 OA
ENDBRANCH   5  15
ENDBRANCH   1  12
BRANCH   3  16
ATOM     16  C   UNL     1      51.604   7.419  16.964  0.00  0.00    +0.000 C 
BRANCH  16  17
ATOM     17  C   UNL     1      50.427   7.047  16.099  0.00  0.00    +0.000 A 
ATOM     18  C   UNL     1      49.406   6.224  16.594  0.00  0.00    +0.000 A 
ATOM     19  C   UNL     1      48.318   5.871  15.785  0.00  0.00    +0.000 A 
ATOM     20  C   UNL     1      48.226   6.331  14.465  0.00  0.00    +0.000 A 
ATOM     21  C   UNL     1      49.268   7.123  13.964  0.00  0.00    +0.000 A 
ATOM     22  C   UNL     1      50.357   7.476  14.769  0.00  0.00    +0.000 A 
BRANCH  20  23
ATOM     23  C   UNL     1      47.124   5.960  13.565  0.00  0.00    +0.000 C 
ATOM     24  C   UNL     1      46.582   4.733  13.461  0.00  0.00    +0.000 C 
BRANCH  24  25
ATOM     25  C   UNL     1      45.476   4.407  12.544  0.00  0.00    +0.000 A 
ATOM     26  C   UNL     1      45.289   5.147  11.380  0.00  0.00    +0.000 A 
ATOM     27  C   UNL     1      44.228   4.821  10.536  0.00  0.00    +0.000 A 
ATOM     28  C   UNL     1      43.388   3.768  10.874  0.00  0.00    +0.000 A 
ATOM     29  C   UNL     1      43.645   3.082  12.048  0.00  0.00    +0.000 A 
ATOM     30  N   UNL     1      44.663   3.379  12.885  0.00  0.00    +0.000 NA
ENDBRANCH  24  25
ENDBRANCH  20  23
ENDBRANCH  16  17
ENDBRANCH   3  16
TORSDOF 6
ENDMDL
MODEL 6
REMARK VINA RESULT:    -5.302      2.887      4.369
REMARK INTER + INTRA:          -8.059
REMARK INTER:                  -6.906
REMARK INTRA:                  -1.153
REMARK UNBOUND:                -0.897
REMARK  Name = 
REMARK  7 active torsions:
REMARK  status: ('A' for Active; 'I' for Inactive)
REMARK    1  A    between atoms: C_1  and  O_2
REMARK    2  A    between atoms: O_2  and  C_3
REMARK    3  A    between atoms: C_10  and  C_11
REMARK    4  A    between atoms: N_13  and  C_14
REMARK    5  A    between atoms: C_14  and  C_15
REMARK    6  A    between atoms: C_18  and  C_19
REMARK    7  A    between atoms: C_20  and  C_21
REMARK                            x       y       z     vdW  Elec       q    Type
REMARK                         _______ _______ _______ _____ _____    ______ ____
ROOT
ATOM      1  C   UNL     1      45.633   6.231  12.374  0.00  0.00    +0.000 C 
ATOM      2  O   UNL     1      45.328   5.341  11.581  0.00  0.00    +0.000 OA
ATOM      3  N   UNL     1      46.071   5.936  13.635  0.00  0.00    +0.000 N 
ATOM      4  H   UNL     1      46.411   6.672  14.238  0.00  0.00    +0.000 HD
ENDROOT
BRANCH   1  12
ATOM      5  C   UNL     1      47.747   8.927  12.713  0.00  0.00    +0.000 A 
ATOM      6  N   UNL     1      48.336  10.139  12.770  0.00  0.00    +0.000 NA
ATOM      7  C   UNL     1      47.655  11.191  12.310  0.00  0.00    +0.000 A 
ATOM      8  N   UNL     1      46.434  11.186  11.779  0.00  0.00    +0.000 NA
ATOM      9  C   UNL     1      45.884   9.961  11.741  0.00  0.00    +0.000 A 
ATOM     10  S   UNL     1      44.330   9.764  11.087  0.00  0.00    +0.000 S 
ATOM     11  C   UNL     1      44.356   8.094  11.402  0.00  0.00    +0.000 A 
ATOM     12  C   UNL     1      45.528   7.653  12.006  0.00  0.00    +0.000 A 
ATOM     13  C   UNL     1      46.451   8.771  12.187  0.00  0.00    +0.000 A 
BRANCH   5  15
ATOM     14  C   UNL     1      49.441   7.409  12.151  0.00  0.00    +0.000 C 
ATOM     15  O   UNL     1      48.478   7.829  13.115  0.00  0.00    +0.000 OA
ENDBRANCH   5  15
ENDBRANCH   1  12
BRANCH   3  16
ATOM     16  C   UNL     1      46.186   4.579  14.109  0.00  0.00    +0.000 C 
BRANCH  16  17
ATOM     17  C   UNL     1      47.224   4.470  15.197  0.00  0.00    +0.000 A 
ATOM     18  C   UNL     1      47.968   5.590  15.592  0.00  0.00    +0.000 A 
ATOM     19  C   UNL     1      48.940   5.484  16.595  0.00  0.00    +0.000 A 
ATOM     20  C   UNL     1      49.191   4.258  17.225  0.00  0.00    +0.000 A 
ATOM     21  C   UNL     1      48.471   3.134  16.800  0.00  0.00    +0.000 A 
ATOM     22  C   UNL     1      47.500   3.236  15.797  0.00  0.00    +0.000 A 
BRANCH  20  23
ATOM     23  C   UNL     1      50.224   4.088  18.256  0.00  0.00    +0.000 C 
ATOM     24  C   UNL     1      51.519   3.806  18.024  0.00  0.00    +0.000 C 
BRANCH  24  25
ATOM     25  C   UNL     1      52.521   3.644  19.092  0.00  0.00    +0.000 A 
ATOM     26  C   UNL     1      52.575   4.551  20.147  0.00  0.00    +0.000 A 
ATOM     27  C   UNL     1      53.540   4.377  21.138  0.00  0.00    +0.000 A 
ATOM     28  C   UNL     1      54.420   3.306  21.052  0.00  0.00    +0.000 A 
ATOM     29  C   UNL     1      54.297   2.449  19.972  0.00  0.00    +0.000 A 
ATOM     30  N   UNL     1      53.374   2.596  18.996  0.00  0.00    +0.000 NA
ENDBRANCH  24  25
ENDBRANCH  20  23
ENDBRANCH  16  17
ENDBRANCH   3  16
TORSDOF 6
ENDMDL
MODEL 7
REMARK VINA RESULT:    -5.248      6.948      8.883
REMARK INTER + INTRA:          -7.985
REMARK INTER:                  -6.931
REMARK INTRA:                  -1.054
REMARK UNBOUND:                -0.897
REMARK  Name = 
REMARK  7 active torsions:
REMARK  status: ('A' for Active; 'I' for Inactive)
REMARK    1  A    between atoms: C_1  and  O_2
REMARK    2  A    between atoms: O_2  and  C_3
REMARK    3  A    between atoms: C_10  and  C_11
REMARK    4  A    between atoms: N_13  and  C_14
REMARK    5  A    between atoms: C_14  and  C_15
REMARK    6  A    between atoms: C_18  and  C_19
REMARK    7  A    between atoms: C_20  and  C_21
REMARK                            x       y       z     vdW  Elec       q    Type
REMARK                         _______ _______ _______ _____ _____    ______ ____
ROOT
ATOM      1  C   UNL     1      48.861   9.785  12.356  0.00  0.00    +0.000 C 
ATOM      2  O   UNL     1      49.142  10.820  12.960  0.00  0.00    +0.000 OA
ATOM      3  N   UNL     1      49.789   9.142  11.584  0.00  0.00    +0.000 N 
ATOM      4  H   UNL     1      49.573   8.244  11.175  0.00  0.00    +0.000 HD
ENDROOT
BRANCH   1  12
ATOM      5  C   UNL     1      47.673   6.666  13.198  0.00  0.00    +0.000 A 
ATOM      6  N   UNL     1      46.954   5.546  13.416  0.00  0.00    +0.000 NA
ATOM      7  C   UNL     1      45.634   5.598  13.220  0.00  0.00    +0.000 A 
ATOM      8  N   UNL     1      44.923   6.654  12.833  0.00  0.00    +0.000 NA
ATOM      9  C   UNL     1      45.676   7.747  12.627  0.00  0.00    +0.000 A 
ATOM     10  S   UNL     1      44.932   9.192  12.137  0.00  0.00    +0.000 S 
ATOM     11  C   UNL     1      46.427   9.999  12.081  0.00  0.00    +0.000 A 
ATOM     12  C   UNL     1      47.511   9.200  12.425  0.00  0.00    +0.000 A 
ATOM     13  C   UNL     1      47.055   7.857  12.774  0.00  0.00    +0.000 A 
BRANCH   5  15
ATOM     14  C   UNL     1      49.333   7.015  14.816  0.00  0.00    +0.000 C 
ATOM     15  O   UNL     1      49.023   6.636  13.476  0.00  0.00    +0.000 OA
ENDBRANCH   5  15
ENDBRANCH   1  12
BRANCH   3  16
ATOM     16  C   UNL     1      51.132   9.642  11.423  0.00  0.00    +0.000 C 
BRANCH  16  17
ATOM     17  C   UNL     1      51.910   8.802  10.442  0.00  0.00    +0.000 A 
ATOM     18  C   UNL     1      52.664   9.402   9.424  0.00  0.00    +0.000 A 
ATOM     19  C   UNL     1      53.377   8.620   8.507  0.00  0.00    +0.000 A 
ATOM     20  C   UNL     1      53.353   7.222   8.586  0.00  0.00    +0.000 A 
ATOM     21  C   UNL     1      52.567   6.626   9.582  0.00  0.00    +0.000 A 
ATOM     22  C   UNL     1      51.853   7.405  10.499  0.00  0.00    +0.000 A 
BRANCH  20  23
ATOM     23  C   UNL     1      54.054   6.356   7.626  0.00  0.00    +0.000 C 
ATOM     24  C   UNL     1      53.481   5.393   6.881  0.00  0.00    +0.000 C 
BRANCH  24  25
ATOM     25  C   UNL     1      54.226   4.550   5.929  0.00  0.00    +0.000 A 
ATOM     26  C   UNL     1      54.804   3.356   6.353  0.00  0.00    +0.000 A 
ATOM     27  C   UNL     1      55.510   2.584   5.432  0.00  0.00    +0.000 A 
ATOM     28  C   UNL     1      55.617   3.020   4.118  0.00  0.00    +0.000 A 
ATOM     29  C   UNL     1      55.010   4.217   3.778  0.00  0.00    +0.000 A 
ATOM     30  N   UNL     1      54.323   4.986   4.650  0.00  0.00    +0.000 NA
ENDBRANCH  24  25
ENDBRANCH  20  23
ENDBRANCH  16  17
ENDBRANCH   3  16
TORSDOF 6
ENDMDL
MODEL 8
REMARK VINA RESULT:    -5.136     10.464     11.719
REMARK INTER + INTRA:          -7.835
REMARK INTER:                  -6.483
REMARK INTRA:                  -1.351
REMARK UNBOUND:                -0.897
REMARK  Name = 
REMARK  7 active torsions:
REMARK  status: ('A' for Active; 'I' for Inactive)
REMARK    1  A    between atoms: C_1  and  O_2
REMARK    2  A    between atoms: O_2  and  C_3
REMARK    3  A    between atoms: C_10  and  C_11
REMARK    4  A    between atoms: N_13  and  C_14
REMARK    5  A    between atoms: C_14  and  C_15
REMARK    6  A    between atoms: C_18  and  C_19
REMARK    7  A    between atoms: C_20  and  C_21
REMARK                            x       y       z     vdW  Elec       q    Type
REMARK                         _______ _______ _______ _____ _____    ______ ____
ROOT
ATOM      1  C   UNL     1      37.375  -0.807  12.258  0.00  0.00    +0.000 C 
ATOM      2  O   UNL     1      37.466   0.396  12.502  0.00  0.00    +0.000 OA
ATOM      3  N   UNL     1      37.384  -1.735  13.263  0.00  0.00    +0.000 N 
ATOM      4  H   UNL     1      37.210  -2.708  13.055  0.00  0.00    +0.000 HD
ENDROOT
BRANCH   1  12
ATOM      5  C   UNL     1      39.027  -3.254  10.487  0.00  0.00    +0.000 A 
ATOM      6  N   UNL     1      39.538  -4.089   9.561  0.00  0.00    +0.000 NA
ATOM      7  C   UNL     1      39.049  -4.028   8.319  0.00  0.00    +0.000 A 
ATOM      8  N   UNL     1      38.085  -3.225   7.877  0.00  0.00    +0.000 NA
ATOM      9  C   UNL     1      37.603  -2.409   8.830  0.00  0.00    +0.000 A 
ATOM     10  S   UNL     1      36.359  -1.320   8.446  0.00  0.00    +0.000 S 
ATOM     11  C   UNL     1      36.340  -0.707  10.030  0.00  0.00    +0.000 A 
ATOM     12  C   UNL     1      37.268  -1.303  10.876  0.00  0.00    +0.000 A 
ATOM     13  C   UNL     1      38.008  -2.340  10.159  0.00  0.00    +0.000 A 
BRANCH   5  15
ATOM     14  C   UNL     1      40.734  -2.740  12.008  0.00  0.00    +0.000 C 
ATOM     15  O   UNL     1      39.474  -3.370  11.786  0.00  0.00    +0.000 OA
ENDBRANCH   5  15
ENDBRANCH   1  12
BRANCH   3  16
ATOM     16  C   UNL     1      37.513  -1.363  14.650  0.00  0.00    +0.000 C 
BRANCH  16  17
ATOM     17  C   UNL     1      38.721  -2.012  15.276  0.00  0.00    +0.000 A 
ATOM     18  C   UNL     1      39.678  -1.244  15.953  0.00  0.00    +0.000 A 
ATOM     19  C   UNL     1      40.805  -1.848  16.524  0.00  0.00    +0.000 A 
ATOM     20  C   UNL     1      41.002  -3.232  16.433  0.00  0.00    +0.000 A 
ATOM     21  C   UNL     1      40.061  -3.991  15.724  0.00  0.00    +0.000 A 
ATOM     22  C   UNL     1      38.934  -3.390  15.151  0.00  0.00    +0.000 A 
BRANCH  20  23
ATOM     23  C   UNL     1      42.185  -3.908  16.984  0.00  0.00    +0.000 C 
ATOM     24  C   UNL     1      42.619  -5.132  16.631  0.00  0.00    +0.000 C 
BRANCH  24  25
ATOM     25  C   UNL     1      43.814  -5.770  17.211  0.00  0.00    +0.000 A 
ATOM     26  C   UNL     1      44.442  -5.208  18.318  0.00  0.00    +0.000 A 
ATOM     27  C   UNL     1      45.576  -5.830  18.839  0.00  0.00    +0.000 A 
ATOM     28  C   UNL     1      46.048  -6.993  18.245  0.00  0.00    +0.000 A 
ATOM     29  C   UNL     1      45.363  -7.487  17.149  0.00  0.00    +0.000 A 
ATOM     30  N   UNL     1      44.265  -6.904  16.622  0.00  0.00    +0.000 NA
ENDBRANCH  24  25
ENDBRANCH  20  23
ENDBRANCH  16  17
ENDBRANCH   3  16
TORSDOF 6
ENDMDL
MODEL 9
REMARK VINA RESULT:    -5.064      4.283      9.954
REMARK INTER + INTRA:          -7.737
REMARK INTER:                  -6.711
REMARK INTRA:                  -1.026
REMARK UNBOUND:                -0.897
REMARK  Name = 
REMARK  7 active torsions:
REMARK  status: ('A' for Active; 'I' for Inactive)
REMARK    1  A    between atoms: C_1  and  O_2
REMARK    2  A    between atoms: O_2  and  C_3
REMARK    3  A    between atoms: C_10  and  C_11
REMARK    4  A    between atoms: N_13  and  C_14
REMARK    5  A    between atoms: C_14  and  C_15
REMARK    6  A    between atoms: C_18  and  C_19
REMARK    7  A    between atoms: C_20  and  C_21
REMARK                            x       y       z     vdW  Elec       q    Type
REMARK                         _______ _______ _______ _____ _____    ______ ____
ROOT
ATOM      1  C   UNL     1      53.040   8.247  16.270  0.00  0.00    +0.000 C 
ATOM      2  O   UNL     1      52.500   9.225  16.785  0.00  0.00    +0.000 OA
ATOM      3  N   UNL     1      52.979   8.034  14.920  0.00  0.00    +0.000 N 
ATOM      4  H   UNL     1      53.509   7.282  14.502  0.00  0.00    +0.000 HD
ENDROOT
BRANCH   1  12
ATOM      5  C   UNL     1      52.203   5.150  17.520  0.00  0.00    +0.000 A 
ATOM      6  N   UNL     1      52.123   3.970  18.166  0.00  0.00    +0.000 NA
ATOM      7  C   UNL     1      53.174   3.578  18.892  0.00  0.00    +0.000 A 
ATOM      8  N   UNL     1      54.324   4.227  19.052  0.00  0.00    +0.000 NA
ATOM      9  C   UNL     1      54.363   5.397  18.392  0.00  0.00    +0.000 A 
ATOM     10  S   UNL     1      55.760   6.357  18.475  0.00  0.00    +0.000 S 
ATOM     11  C   UNL     1      55.058   7.550  17.489  0.00  0.00    +0.000 A 
ATOM     12  C   UNL     1      53.763   7.254  17.083  0.00  0.00    +0.000 A 
ATOM     13  C   UNL     1      53.357   5.952  17.606  0.00  0.00    +0.000 A 
BRANCH   5  15
ATOM     14  C   UNL     1      49.875   5.200  17.255  0.00  0.00    +0.000 C 
ATOM     15  O   UNL     1      51.152   5.519  16.706  0.00  0.00    +0.000 OA
ENDBRANCH   5  15
ENDBRANCH   1  12
BRANCH   3  16
ATOM     16  C   UNL     1      52.274   8.927  14.034  0.00  0.00    +0.000 C 
BRANCH  16  17
ATOM     17  C   UNL     1      50.998   8.298  13.533  0.00  0.00    +0.000 A 
ATOM     18  C   UNL     1      50.689   8.297  12.166  0.00  0.00    +0.000 A 
ATOM     19  C   UNL     1      49.498   7.722  11.704  0.00  0.00    +0.000 A 
ATOM     20  C   UNL     1      48.591   7.136  12.595  0.00  0.00    +0.000 A 
ATOM     21  C   UNL     1      48.887   7.173  13.964  0.00  0.00    +0.000 A 
ATOM     22  C   UNL     1      50.075   7.748  14.429  0.00  0.00    +0.000 A 
BRANCH  20  23
ATOM     23  C   UNL     1      47.312   6.552  12.164  0.00  0.00    +0.000 C 
ATOM     24  C   UNL     1      46.706   5.494  12.734  0.00  0.00    +0.000 C 
BRANCH  24  25
ATOM     25  C   UNL     1      45.421   4.944  12.267  0.00  0.00    +0.000 A 
ATOM     26  C   UNL     1      45.035   5.093  10.939  0.00  0.00    +0.000 A 
ATOM     27  C   UNL     1      43.809   4.569  10.529  0.00  0.00    +0.000 A 
ATOM     28  C   UNL     1      43.007   3.912  11.452  0.00  0.00    +0.000 A 
ATOM     29  C   UNL     1      43.467   3.805  12.753  0.00  0.00    +0.000 A 
ATOM     30  N   UNL     1      44.648   4.305  13.178  0.00  0.00    +0.000 NA
ENDBRANCH  24  25
ENDBRANCH  20  23
ENDBRANCH  16  17
ENDBRANCH   3  16
TORSDOF 6
ENDMDL
