MODEL 1
REMARK VINA RESULT:    -7.767      0.000      0.000
REMARK INTER + INTRA:         -13.153
REMARK INTER:                 -11.627
REMARK INTRA:                  -1.526
REMARK UNBOUND:                -1.526
REMARK  Name = 
REMARK  10 active torsions:
REMARK  status: ('A' for Active; 'I' for Inactive)
REMARK    1  A    between atoms: C_1  and  C_2
REMARK    2  A    between atoms: C_9  and  C_10
REMARK    3  A    between atoms: N_12  and  C_13
REMARK    4  A    between atoms: C_13  and  C_14
REMARK    5  A    between atoms: C_17  and  C_18
REMARK    6  A    between atoms: C_18  and  O_19
REMARK    7  A    between atoms: O_19  and  C_20
REMARK    8  A    between atoms: C_20  and  C_21
REMARK    9  A    between atoms: CA_25  and  C_26
REMARK   10  A    between atoms: C_26  and  O_27
REMARK                            x       y       z     vdW  Elec       q    Type
REMARK                         _______ _______ _______ _____ _____    ______ ____
ROOT
ATOM      1  C   UNL     1      46.522   6.565  12.998  0.00  0.00    +0.000 A 
ATOM      2  C   UNL     1      46.630   5.219  13.370  0.00  0.00    +0.000 A 
ATOM      3  C   UNL     1      45.610   4.313  13.066  0.00  0.00    +0.000 A 
ATOM      4  C   UNL     1      44.466   4.733  12.373  0.00  0.00    +0.000 A 
ATOM      5  C   UNL     1      44.363   6.077  11.993  0.00  0.00    +0.000 A 
ATOM      6  C   UNL     1      45.383   6.983  12.298  0.00  0.00    +0.000 A 
ENDROOT
BRANCH   1   7
ATOM      7  C   UNL     1      47.611   7.546  13.332  0.00  0.00    +0.000 C 
BRANCH   7  10
ATOM      8  C   UNL     1      48.888   7.280  15.398  0.00  0.00    +0.000 C 
ATOM      9  O   UNL     1      49.810   6.761  14.781  0.00  0.00    +0.000 OA
ATOM     10  N   UNL     1      47.749   7.728  14.760  0.00  0.00    +0.000 N 
ATOM     11  H   UNL     1      46.933   7.988  15.292  0.00  0.00    +0.000 HD
BRANCH   8  20
ATOM     12  C   UNL     1      48.172   4.217  16.625  0.00  0.00    +0.000 C 
ATOM     13  C   UNL     1      48.403   5.054  17.846  0.00  0.00    +0.000 A 
ATOM     14  N   UNL     1      48.280   4.390  19.029  0.00  0.00    +0.000 NA
ATOM     15  C   UNL     1      48.457   5.052  20.178  0.00  0.00    +0.000 A 
ATOM     16  N   UNL     1      48.744   6.343  20.321  0.00  0.00    +0.000 NA
ATOM     17  C   UNL     1      48.861   6.980  19.145  0.00  0.00    +0.000 A 
ATOM     18  S   UNL     1      49.225   8.641  19.131  0.00  0.00    +0.000 S 
ATOM     19  C   UNL     1      49.205   8.689  17.431  0.00  0.00    +0.000 A 
ATOM     20  C   UNL     1      48.914   7.464  16.850  0.00  0.00    +0.000 A 
ATOM     21  C   UNL     1      48.716   6.436  17.870  0.00  0.00    +0.000 A 
ENDBRANCH   8  20
ENDBRANCH   7  10
ENDBRANCH   1   7
BRANCH   4  22
ATOM     22  C   UNL     1      43.374   3.754  12.020  0.00  0.00    +0.000 C 
BRANCH  22  23
ATOM     23  O   UNL     1      43.352   3.561  10.611  0.00  0.00    +0.000 OA
BRANCH  23  24
ATOM     24  C   UNL     1      44.111   2.419  10.220  0.00  0.00    +0.000 C 
BRANCH  24  25
ATOM     25  C   UNL     1      45.099   2.815   9.153  0.00  0.00    +0.000 A 
ATOM     26  C   UNL     1      45.309   4.155   8.827  0.00  0.00    +0.000 A 
ATOM     27  C   UNL     1      46.210   4.463   7.819  0.00  0.00    +0.000 A 
ATOM     28  N   UNL     1      46.900   3.537   7.115  0.00  0.00    +0.000 NA
ATOM     29  CA  UNL     1      46.682   2.234   7.434  0.00  0.00    +0.000 A 
ATOM     30  C   UNL     1      45.792   1.841   8.427  0.00  0.00    +0.000 A 
BRANCH  29  31
ATOM     31  C   UNL     1      47.454   1.182   6.670  0.00  0.00    +0.000 C 
BRANCH  31  32
ATOM     32  O   UNL     1      48.442   1.770   5.826  0.00  0.00    +0.000 OA
ATOM     33  H   UNL     1      49.179   1.998   6.431  0.00  0.00    +0.000 HD
ENDBRANCH  31  32
ENDBRANCH  29  31
ENDBRANCH  24  25
ENDBRANCH  23  24
ENDBRANCH  22  23
ENDBRANCH   4  22
TORSDOF 9
ENDMDL
MODEL 2
REMARK VINA RESULT:    -7.531      1.830      2.151
REMARK INTER + INTRA:         -12.799
REMARK INTER:                 -11.238
REMARK INTRA:                  -1.562
REMARK UNBOUND:                -1.526
REMARK  Name = 
REMARK  10 active torsions:
REMARK  status: ('A' for Active; 'I' for Inactive)
REMARK    1  A    between atoms: C_1  and  C_2
REMARK    2  A    between atoms: C_9  and  C_10
REMARK    3  A    between atoms: N_12  and  C_13
REMARK    4  A    between atoms: C_13  and  C_14
REMARK    5  A    between atoms: C_17  and  C_18
REMARK    6  A    between atoms: C_18  and  O_19
REMARK    7  A    between atoms: O_19  and  C_20
REMARK    8  A    between atoms: C_20  and  C_21
REMARK    9  A    between atoms: CA_25  and  C_26
REMARK   10  A    between atoms: C_26  and  O_27
REMARK                            x       y       z     vdW  Elec       q    Type
REMARK                         _______ _______ _______ _____ _____    ______ ____
ROOT
ATOM      1  C   UNL     1      46.670   6.840  13.022  0.00  0.00    +0.000 A 
ATOM      2  C   UNL     1      45.447   7.265  12.488  0.00  0.00    +0.000 A 
ATOM      3  C   UNL     1      44.396   6.360  12.310  0.00  0.00    +0.000 A 
ATOM      4  C   UNL     1      44.544   5.014  12.673  0.00  0.00    +0.000 A 
ATOM      5  C   UNL     1      45.765   4.593  13.216  0.00  0.00    +0.000 A 
ATOM      6  C   UNL     1      46.815   5.498  13.393  0.00  0.00    +0.000 A 
ENDROOT
BRANCH   1   7
ATOM      7  C   UNL     1      47.806   7.807  13.205  0.00  0.00    +0.000 C 
BRANCH   7  10
ATOM      8  C   UNL     1      49.212   7.665  15.198  0.00  0.00    +0.000 C 
ATOM      9  O   UNL     1      48.552   8.539  15.746  0.00  0.00    +0.000 OA
ATOM     10  N   UNL     1      48.906   7.212  13.930  0.00  0.00    +0.000 N 
ATOM     11  H   UNL     1      49.554   6.626  13.425  0.00  0.00    +0.000 HD
BRANCH   8  20
ATOM     12  C   UNL     1      47.904   5.039  16.867  0.00  0.00    +0.000 C 
ATOM     13  C   UNL     1      49.377   4.932  17.116  0.00  0.00    +0.000 A 
ATOM     14  N   UNL     1      49.754   3.871  17.883  0.00  0.00    +0.000 NA
ATOM     15  C   UNL     1      51.048   3.693  18.172  0.00  0.00    +0.000 A 
ATOM     16  N   UNL     1      52.065   4.462  17.792  0.00  0.00    +0.000 NA
ATOM     17  C   UNL     1      51.674   5.502  17.038  0.00  0.00    +0.000 A 
ATOM     18  S   UNL     1      52.840   6.597  16.462  0.00  0.00    +0.000 S 
ATOM     19  C   UNL     1      51.658   7.526  15.668  0.00  0.00    +0.000 A 
ATOM     20  C   UNL     1      50.371   7.036  15.832  0.00  0.00    +0.000 A 
ATOM     21  C   UNL     1      50.375   5.820  16.644  0.00  0.00    +0.000 A 
ENDBRANCH   8  20
ENDBRANCH   7  10
ENDBRANCH   1   7
BRANCH   4  22
ATOM     22  C   UNL     1      43.406   4.039  12.507  0.00  0.00    +0.000 C 
BRANCH  22  23
ATOM     23  O   UNL     1      43.180   3.810  11.122  0.00  0.00    +0.000 OA
BRANCH  23  24
ATOM     24  C   UNL     1      43.772   2.589  10.682  0.00  0.00    +0.000 C 
BRANCH  24  25
ATOM     25  C   UNL     1      44.745   2.877   9.567  0.00  0.00    +0.000 A 
ATOM     26  C   UNL     1      44.946   4.177   9.104  0.00  0.00    +0.000 A 
ATOM     27  C   UNL     1      45.833   4.383   8.058  0.00  0.00    +0.000 A 
ATOM     28  N   UNL     1      46.517   3.392   7.442  0.00  0.00    +0.000 NA
ATOM     29  CA  UNL     1      46.307   2.127   7.894  0.00  0.00    +0.000 A 
ATOM     30  C   UNL     1      45.431   1.836   8.934  0.00  0.00    +0.000 A 
BRANCH  29  31
ATOM     31  C   UNL     1      47.072   1.004   7.231  0.00  0.00    +0.000 C 
BRANCH  31  32
ATOM     32  O   UNL     1      46.824  -0.246   7.873  0.00  0.00    +0.000 OA
ATOM     33  H   UNL     1      46.044  -0.611   7.407  0.00  0.00    +0.000 HD
ENDBRANCH  31  32
ENDBRANCH  29  31
ENDBRANCH  24  25
ENDBRANCH  23  24
ENDBRANCH  22  23
ENDBRANCH   4  22
TORSDOF 9
ENDMDL
MODEL 3
REMARK VINA RESULT:    -7.514      1.480      2.275
REMARK INTER + INTRA:         -12.773
REMARK INTER:                 -11.781
REMARK INTRA:                  -0.992
REMARK UNBOUND:                -1.526
REMARK  Name = 
REMARK  10 active torsions:
REMARK  status: ('A' for Active; 'I' for Inactive)
REMARK    1  A    between atoms: C_1  and  C_2
REMARK    2  A    between atoms: C_9  and  C_10
REMARK    3  A    between atoms: N_12  and  C_13
REMARK    4  A    between atoms: C_13  and  C_14
REMARK    5  A    between atoms: C_17  and  C_18
REMARK    6  A    between atoms: C_18  and  O_19
REMARK    7  A    between atoms: O_19  and  C_20
REMARK    8  A    between atoms: C_20  and  C_21
REMARK    9  A    between atoms: CA_25  and  C_26
REMARK   10  A    between atoms: C_26  and  O_27
REMARK                            x       y       z     vdW  Elec       q    Type
REMARK                         _______ _______ _______ _____ _____    ______ ____
ROOT
ATOM      1  C   UNL     1      46.832   5.880  13.179  0.00  0.00    +0.000 A 
ATOM      2  C   UNL     1      46.313   4.582  13.265  0.00  0.00    +0.000 A 
ATOM      3  C   UNL     1      45.139   4.239  12.586  0.00  0.00    +0.000 A 
ATOM      4  C   UNL     1      44.468   5.185  11.799  0.00  0.00    +0.000 A 
ATOM      5  C   UNL     1      44.994   6.480  11.707  0.00  0.00    +0.000 A 
ATOM      6  C   UNL     1      46.167   6.823  12.385  0.00  0.00    +0.000 A 
ENDROOT
BRANCH   1   7
ATOM      7  C   UNL     1      48.088   6.256  13.915  0.00  0.00    +0.000 C 
BRANCH   7  10
ATOM      8  C   UNL     1      48.995   6.397  16.179  0.00  0.00    +0.000 C 
ATOM      9  O   UNL     1      50.016   6.924  15.755  0.00  0.00    +0.000 OA
ATOM     10  N   UNL     1      47.958   6.044  15.339  0.00  0.00    +0.000 N 
ATOM     11  H   UNL     1      47.207   5.458  15.671  0.00  0.00    +0.000 HD
BRANCH   8  20
ATOM     12  C   UNL     1      47.968   9.333  17.491  0.00  0.00    +0.000 C 
ATOM     13  C   UNL     1      47.932   8.384  18.649  0.00  0.00    +0.000 A 
ATOM     14  N   UNL     1      47.512   8.929  19.825  0.00  0.00    +0.000 NA
ATOM     15  C   UNL     1      47.455   8.165  20.922  0.00  0.00    +0.000 A 
ATOM     16  N   UNL     1      47.779   6.878  21.018  0.00  0.00    +0.000 NA
ATOM     17  C   UNL     1      48.190   6.360  19.850  0.00  0.00    +0.000 A 
ATOM     18  S   UNL     1      48.649   4.724  19.782  0.00  0.00    +0.000 S 
ATOM     19  C   UNL     1      49.001   4.833  18.122  0.00  0.00    +0.000 A 
ATOM     20  C   UNL     1      48.791   6.099  17.597  0.00  0.00    +0.000 A 
ATOM     21  C   UNL     1      48.297   7.015  18.625  0.00  0.00    +0.000 A 
ENDBRANCH   8  20
ENDBRANCH   7  10
ENDBRANCH   1   7
BRANCH   4  22
ATOM     22  C   UNL     1      43.215   4.814  11.045  0.00  0.00    +0.000 C 
BRANCH  22  23
ATOM     23  O   UNL     1      43.532   3.844  10.055  0.00  0.00    +0.000 OA
BRANCH  23  24
ATOM     24  C   UNL     1      44.343   4.390   9.017  0.00  0.00    +0.000 C 
BRANCH  24  25
ATOM     25  C   UNL     1      45.195   3.299   8.420  0.00  0.00    +0.000 A 
ATOM     26  C   UNL     1      45.201   2.013   8.960  0.00  0.00    +0.000 A 
ATOM     27  C   UNL     1      46.024   1.054   8.389  0.00  0.00    +0.000 A 
ATOM     28  N   UNL     1      46.838   1.289   7.335  0.00  0.00    +0.000 NA
ATOM     29  CA  UNL     1      46.832   2.548   6.822  0.00  0.00    +0.000 A 
ATOM     30  C   UNL     1      46.041   3.567   7.339  0.00  0.00    +0.000 A 
BRANCH  29  31
ATOM     31  C   UNL     1      47.724   2.829   5.634  0.00  0.00    +0.000 C 
BRANCH  31  32
ATOM     32  O   UNL     1      48.648   1.766   5.411  0.00  0.00    +0.000 OA
ATOM     33  H   UNL     1      49.522   2.206   5.357  0.00  0.00    +0.000 HD
ENDBRANCH  31  32
ENDBRANCH  29  31
ENDBRANCH  24  25
ENDBRANCH  23  24
ENDBRANCH  22  23
ENDBRANCH   4  22
TORSDOF 9
ENDMDL
MODEL 4
REMARK VINA RESULT:    -6.465      2.617      3.637
REMARK INTER + INTRA:         -11.203
REMARK INTER:                  -9.960
REMARK INTRA:                  -1.243
REMARK UNBOUND:                -1.526
REMARK  Name = 
REMARK  10 active torsions:
REMARK  status: ('A' for Active; 'I' for Inactive)
REMARK    1  A    between atoms: C_1  and  C_2
REMARK    2  A    between atoms: C_9  and  C_10
REMARK    3  A    between atoms: N_12  and  C_13
REMARK    4  A    between atoms: C_13  and  C_14
REMARK    5  A    between atoms: C_17  and  C_18
REMARK    6  A    between atoms: C_18  and  O_19
REMARK    7  A    between atoms: O_19  and  C_20
REMARK    8  A    between atoms: C_20  and  C_21
REMARK    9  A    between atoms: CA_25  and  C_26
REMARK   10  A    between atoms: C_26  and  O_27
REMARK                            x       y       z     vdW  Elec       q    Type
REMARK                         _______ _______ _______ _____ _____    ______ ____
ROOT
ATOM      1  C   UNL     1      46.792   4.766  14.519  0.00  0.00    +0.000 A 
ATOM      2  C   UNL     1      47.247   5.884  13.809  0.00  0.00    +0.000 A 
ATOM      3  C   UNL     1      46.847   6.096  12.485  0.00  0.00    +0.000 A 
ATOM      4  C   UNL     1      45.977   5.199  11.850  0.00  0.00    +0.000 A 
ATOM      5  C   UNL     1      45.517   4.086  12.566  0.00  0.00    +0.000 A 
ATOM      6  C   UNL     1      45.916   3.874  13.888  0.00  0.00    +0.000 A 
ENDROOT
BRANCH   1   7
ATOM      7  C   UNL     1      47.227   4.528  15.939  0.00  0.00    +0.000 C 
BRANCH   7  10
ATOM      8  C   UNL     1      49.199   5.501  17.004  0.00  0.00    +0.000 C 
ATOM      9  O   UNL     1      48.489   6.179  17.737  0.00  0.00    +0.000 OA
ATOM     10  N   UNL     1      48.662   4.624  16.083  0.00  0.00    +0.000 N 
ATOM     11  H   UNL     1      49.246   4.207  15.373  0.00  0.00    +0.000 HD
BRANCH   8  20
ATOM     12  C   UNL     1      49.973   7.922  14.783  0.00  0.00    +0.000 C 
ATOM     13  C   UNL     1      51.299   7.499  15.338  0.00  0.00    +0.000 A 
ATOM     14  N   UNL     1      52.372   8.171  14.836  0.00  0.00    +0.000 NA
ATOM     15  C   UNL     1      53.602   7.859  15.260  0.00  0.00    +0.000 A 
ATOM     16  N   UNL     1      53.928   6.925  16.149  0.00  0.00    +0.000 NA
ATOM     17  C   UNL     1      52.858   6.274  16.632  0.00  0.00    +0.000 A 
ATOM     18  S   UNL     1      53.083   5.040  17.781  0.00  0.00    +0.000 S 
ATOM     19  C   UNL     1      51.411   4.748  17.878  0.00  0.00    +0.000 A 
ATOM     20  C   UNL     1      50.661   5.563  17.043  0.00  0.00    +0.000 A 
ATOM     21  C   UNL     1      51.520   6.483  16.301  0.00  0.00    +0.000 A 
ENDBRANCH   8  20
ENDBRANCH   7  10
ENDBRANCH   1   7
BRANCH   4  22
ATOM     22  C   UNL     1      45.523   5.435  10.432  0.00  0.00    +0.000 C 
BRANCH  22  23
ATOM     23  O   UNL     1      44.399   4.611  10.153  0.00  0.00    +0.000 OA
BRANCH  23  24
ATOM     24  C   UNL     1      44.205   4.432   8.752  0.00  0.00    +0.000 C 
BRANCH  24  25
ATOM     25  C   UNL     1      45.102   3.326   8.259  0.00  0.00    +0.000 A 
ATOM     26  C   UNL     1      45.129   2.083   8.892  0.00  0.00    +0.000 A 
ATOM     27  C   UNL     1      45.993   1.109   8.414  0.00  0.00    +0.000 A 
ATOM     28  N   UNL     1      46.830   1.291   7.368  0.00  0.00    +0.000 NA
ATOM     29  CA  UNL     1      46.804   2.509   6.764  0.00  0.00    +0.000 A 
ATOM     30  C   UNL     1      45.971   3.539   7.184  0.00  0.00    +0.000 A 
BRANCH  29  31
ATOM     31  C   UNL     1      47.721   2.730   5.582  0.00  0.00    +0.000 C 
BRANCH  31  32
ATOM     32  O   UNL     1      48.676   1.677   5.459  0.00  0.00    +0.000 OA
ATOM     33  H   UNL     1      48.189   0.870   5.726  0.00  0.00    +0.000 HD
ENDBRANCH  31  32
ENDBRANCH  29  31
ENDBRANCH  24  25
ENDBRANCH  23  24
ENDBRANCH  22  23
ENDBRANCH   4  22
TORSDOF 9
ENDMDL
MODEL 5
REMARK VINA RESULT:    -6.280      2.057      2.986
REMARK INTER + INTRA:         -10.927
REMARK INTER:                 -10.045
REMARK INTRA:                  -0.882
REMARK UNBOUND:                -1.526
REMARK  Name = 
REMARK  10 active torsions:
REMARK  status: ('A' for Active; 'I' for Inactive)
REMARK    1  A    between atoms: C_1  and  C_2
REMARK    2  A    between atoms: C_9  and  C_10
REMARK    3  A    between atoms: N_12  and  C_13
REMARK    4  A    between atoms: C_13  and  C_14
REMARK    5  A    between atoms: C_17  and  C_18
REMARK    6  A    between atoms: C_18  and  O_19
REMARK    7  A    between atoms: O_19  and  C_20
REMARK    8  A    between atoms: C_20  and  C_21
REMARK    9  A    between atoms: CA_25  and  C_26
REMARK   10  A    between atoms: C_26  and  O_27
REMARK                            x       y       z     vdW  Elec       q    Type
REMARK                         _______ _______ _______ _____ _____    ______ ____
ROOT
ATOM      1  C   UNL     1      47.503   5.297  14.584  0.00  0.00    +0.000 A 
ATOM      2  C   UNL     1      47.807   6.376  13.743  0.00  0.00    +0.000 A 
ATOM      3  C   UNL     1      47.195   6.496  12.492  0.00  0.00    +0.000 A 
ATOM      4  C   UNL     1      46.259   5.545  12.061  0.00  0.00    +0.000 A 
ATOM      5  C   UNL     1      45.950   4.472  12.907  0.00  0.00    +0.000 A 
ATOM      6  C   UNL     1      46.562   4.352  14.157  0.00  0.00    +0.000 A 
ENDROOT
BRANCH   1   7
ATOM      7  C   UNL     1      48.167   5.157  15.926  0.00  0.00    +0.000 C 
BRANCH   7  10
ATOM      8  C   UNL     1      48.231   6.703  17.817  0.00  0.00    +0.000 C 
ATOM      9  O   UNL     1      47.730   5.857  18.547  0.00  0.00    +0.000 OA
ATOM     10  N   UNL     1      48.510   6.443  16.491  0.00  0.00    +0.000 N 
ATOM     11  H   UNL     1      48.756   7.194  15.862  0.00  0.00    +0.000 HD
BRANCH   8  20
ATOM     12  C   UNL     1      50.923   6.225  19.797  0.00  0.00    +0.000 C 
ATOM     13  C   UNL     1      50.721   7.709  19.808  0.00  0.00    +0.000 A 
ATOM     14  N   UNL     1      51.624   8.406  20.553  0.00  0.00    +0.000 NA
ATOM     15  C   UNL     1      51.523   9.737  20.636  0.00  0.00    +0.000 A 
ATOM     16  N   UNL     1      50.602  10.506  20.061  0.00  0.00    +0.000 NA
ATOM     17  C   UNL     1      49.721   9.802  19.332  0.00  0.00    +0.000 A 
ATOM     18  S   UNL     1      48.468  10.620  18.525  0.00  0.00    +0.000 S 
ATOM     19  C   UNL     1      47.853   9.167  17.890  0.00  0.00    +0.000 A 
ATOM     20  C   UNL     1      48.570   8.048  18.284  0.00  0.00    +0.000 A 
ATOM     21  C   UNL     1      49.694   8.422  19.140  0.00  0.00    +0.000 A 
ENDBRANCH   8  20
ENDBRANCH   7  10
ENDBRANCH   1   7
BRANCH   4  22
ATOM     22  C   UNL     1      45.578   5.683  10.723  0.00  0.00    +0.000 C 
BRANCH  22  23
ATOM     23  O   UNL     1      44.823   4.508  10.456  0.00  0.00    +0.000 OA
BRANCH  23  24
ATOM     24  C   UNL     1      44.461   4.410   9.079  0.00  0.00    +0.000 C 
BRANCH  24  25
ATOM     25  C   UNL     1      45.246   3.297   8.433  0.00  0.00    +0.000 A 
ATOM     26  C   UNL     1      45.257   2.013   8.977  0.00  0.00    +0.000 A 
ATOM     27  C   UNL     1      46.017   1.032   8.357  0.00  0.00    +0.000 A 
ATOM     28  N   UNL     1      46.767   1.245   7.253  0.00  0.00    +0.000 NA
ATOM     29  CA  UNL     1      46.758   2.502   6.736  0.00  0.00    +0.000 A 
ATOM     30  C   UNL     1      46.027   3.542   7.299  0.00  0.00    +0.000 A 
BRANCH  29  31
ATOM     31  C   UNL     1      47.577   2.759   5.491  0.00  0.00    +0.000 C 
BRANCH  31  32
ATOM     32  O   UNL     1      48.617   1.794   5.343  0.00  0.00    +0.000 OA
ATOM     33  H   UNL     1      48.162   0.992   5.010  0.00  0.00    +0.000 HD
ENDBRANCH  31  32
ENDBRANCH  29  31
ENDBRANCH  24  25
ENDBRANCH  23  24
ENDBRANCH  22  23
ENDBRANCH   4  22
TORSDOF 9
ENDMDL
MODEL 6
REMARK VINA RESULT:    -6.228      2.829      3.718
REMARK INTER + INTRA:         -10.849
REMARK INTER:                  -9.857
REMARK INTRA:                  -0.992
REMARK UNBOUND:                -1.526
REMARK  Name = 
REMARK  10 active torsions:
REMARK  status: ('A' for Active; 'I' for Inactive)
REMARK    1  A    between atoms: C_1  and  C_2
REMARK    2  A    between atoms: C_9  and  C_10
REMARK    3  A    between atoms: N_12  and  C_13
REMARK    4  A    between atoms: C_13  and  C_14
REMARK    5  A    between atoms: C_17  and  C_18
REMARK    6  A    between atoms: C_18  and  O_19
REMARK    7  A    between atoms: O_19  and  C_20
REMARK    8  A    between atoms: C_20  and  C_21
REMARK    9  A    between atoms: CA_25  and  C_26
REMARK   10  A    between atoms: C_26  and  O_27
REMARK                            x       y       z     vdW  Elec       q    Type
REMARK                         _______ _______ _______ _____ _____    ______ ____
ROOT
ATOM      1  C   UNL     1      48.440   7.484  15.209  0.00  0.00    +0.000 A 
ATOM      2  C   UNL     1      48.254   6.167  14.769  0.00  0.00    +0.000 A 
ATOM      3  C   UNL     1      47.554   5.904  13.588  0.00  0.00    +0.000 A 
ATOM      4  C   UNL     1      47.035   6.954  12.817  0.00  0.00    +0.000 A 
ATOM      5  C   UNL     1      47.230   8.270  13.253  0.00  0.00    +0.000 A 
ATOM      6  C   UNL     1      47.930   8.533  14.434  0.00  0.00    +0.000 A 
ENDROOT
BRANCH   1   7
ATOM      7  C   UNL     1      49.183   7.771  16.484  0.00  0.00    +0.000 C 
BRANCH   7  10
ATOM      8  C   UNL     1      50.129   5.980  17.851  0.00  0.00    +0.000 C 
ATOM      9  O   UNL     1      49.178   6.041  18.620  0.00  0.00    +0.000 OA
ATOM     10  N   UNL     1      50.214   6.790  16.736  0.00  0.00    +0.000 N 
ATOM     11  H   UNL     1      51.076   6.853  16.214  0.00  0.00    +0.000 HD
BRANCH   8  20
ATOM     12  C   UNL     1      48.862   2.978  16.969  0.00  0.00    +0.000 C 
ATOM     13  C   UNL     1      50.290   2.684  17.312  0.00  0.00    +0.000 A 
ATOM     14  N   UNL     1      50.658   1.380  17.171  0.00  0.00    +0.000 NA
ATOM     15  C   UNL     1      51.911   1.014  17.462  0.00  0.00    +0.000 A 
ATOM     16  N   UNL     1      52.892   1.798  17.902  0.00  0.00    +0.000 NA
ATOM     17  C   UNL     1      52.510   3.078  18.035  0.00  0.00    +0.000 A 
ATOM     18  S   UNL     1      53.634   4.228  18.589  0.00  0.00    +0.000 S 
ATOM     19  C   UNL     1      52.488   5.480  18.487  0.00  0.00    +0.000 A 
ATOM     20  C   UNL     1      51.244   5.053  18.047  0.00  0.00    +0.000 A 
ATOM     21  C   UNL     1      51.254   3.618  17.767  0.00  0.00    +0.000 A 
ENDBRANCH   8  20
ENDBRANCH   7  10
ENDBRANCH   1   7
BRANCH   4  22
ATOM     22  C   UNL     1      46.301   6.677  11.529  0.00  0.00    +0.000 C 
BRANCH  22  23
ATOM     23  O   UNL     1      45.169   5.860  11.799  0.00  0.00    +0.000 OA
BRANCH  23  24
ATOM     24  C   UNL     1      44.324   5.729  10.657  0.00  0.00    +0.000 C 
BRANCH  24  25
ATOM     25  C   UNL     1      44.596   4.409   9.982  0.00  0.00    +0.000 A 
ATOM     26  C   UNL     1      44.024   3.227  10.453  0.00  0.00    +0.000 A 
ATOM     27  C   UNL     1      44.329   2.036   9.811  0.00  0.00    +0.000 A 
ATOM     28  N   UNL     1      45.163   1.943   8.751  0.00  0.00    +0.000 NA
ATOM     29  CA  UNL     1      45.723   3.099   8.305  0.00  0.00    +0.000 A 
ATOM     30  C   UNL     1      45.473   4.332   8.896  0.00  0.00    +0.000 A 
BRANCH  29  31
ATOM     31  C   UNL     1      46.647   3.020   7.111  0.00  0.00    +0.000 C 
BRANCH  31  32
ATOM     32  O   UNL     1      46.640   4.236   6.365  0.00  0.00    +0.000 OA
ATOM     33  H   UNL     1      46.211   4.887   6.959  0.00  0.00    +0.000 HD
ENDBRANCH  31  32
ENDBRANCH  29  31
ENDBRANCH  24  25
ENDBRANCH  23  24
ENDBRANCH  22  23
ENDBRANCH   4  22
TORSDOF 9
ENDMDL
MODEL 7
REMARK VINA RESULT:    -6.158      3.089      3.764
REMARK INTER + INTRA:         -10.744
REMARK INTER:                  -9.887
REMARK INTRA:                  -0.857
REMARK UNBOUND:                -1.526
REMARK  Name = 
REMARK  10 active torsions:
REMARK  status: ('A' for Active; 'I' for Inactive)
REMARK    1  A    between atoms: C_1  and  C_2
REMARK    2  A    between atoms: C_9  and  C_10
REMARK    3  A    between atoms: N_12  and  C_13
REMARK    4  A    between atoms: C_13  and  C_14
REMARK    5  A    between atoms: C_17  and  C_18
REMARK    6  A    between atoms: C_18  and  O_19
REMARK    7  A    between atoms: O_19  and  C_20
REMARK    8  A    between atoms: C_20  and  C_21
REMARK    9  A    between atoms: CA_25  and  C_26
REMARK   10  A    between atoms: C_26  and  O_27
REMARK                            x       y       z     vdW  Elec       q    Type
REMARK                         _______ _______ _______ _____ _____    ______ ____
ROOT
ATOM      1  C   UNL     1      47.172   4.728  15.030  0.00  0.00    +0.000 A 
ATOM      2  C   UNL     1      47.763   5.902  14.545  0.00  0.00    +0.000 A 
ATOM      3  C   UNL     1      47.460   6.373  13.263  0.00  0.00    +0.000 A 
ATOM      4  C   UNL     1      46.552   5.685  12.446  0.00  0.00    +0.000 A 
ATOM      5  C   UNL     1      45.956   4.516  12.937  0.00  0.00    +0.000 A 
ATOM      6  C   UNL     1      46.259   4.046  14.217  0.00  0.00    +0.000 A 
ENDROOT
BRANCH   1   7
ATOM      7  C   UNL     1      47.503   4.212  16.403  0.00  0.00    +0.000 C 
BRANCH   7  10
ATOM      8  C   UNL     1      49.412   3.973  17.909  0.00  0.00    +0.000 C 
ATOM      9  O   UNL     1      48.822   3.110  18.547  0.00  0.00    +0.000 OA
ATOM     10  N   UNL     1      48.845   4.572  16.802  0.00  0.00    +0.000 N 
ATOM     11  H   UNL     1      49.263   5.396  16.396  0.00  0.00    +0.000 HD
BRANCH   8  20
ATOM     12  C   UNL     1      51.367   1.261  17.442  0.00  0.00    +0.000 C 
ATOM     13  C   UNL     1      52.326   2.335  17.857  0.00  0.00    +0.000 A 
ATOM     14  N   UNL     1      53.631   1.948  17.915  0.00  0.00    +0.000 NA
ATOM     15  C   UNL     1      54.564   2.831  18.285  0.00  0.00    +0.000 A 
ATOM     16  N   UNL     1      54.371   4.102  18.629  0.00  0.00    +0.000 NA
ATOM     17  C   UNL     1      53.079   4.464  18.567  0.00  0.00    +0.000 A 
ATOM     18  S   UNL     1      52.641   6.056  18.974  0.00  0.00    +0.000 S 
ATOM     19  C   UNL     1      50.999   5.743  18.665  0.00  0.00    +0.000 A 
ATOM     20  C   UNL     1      50.754   4.438  18.263  0.00  0.00    +0.000 A 
ATOM     21  C   UNL     1      51.996   3.671  18.194  0.00  0.00    +0.000 A 
ENDBRANCH   8  20
ENDBRANCH   7  10
ENDBRANCH   1   7
BRANCH   4  22
ATOM     22  C   UNL     1      46.203   6.201  11.073  0.00  0.00    +0.000 C 
BRANCH  22  23
ATOM     23  O   UNL     1      45.287   5.307  10.453  0.00  0.00    +0.000 OA
BRANCH  23  24
ATOM     24  C   UNL     1      45.440   5.290   9.034  0.00  0.00    +0.000 C 
BRANCH  24  25
ATOM     25  C   UNL     1      45.742   3.885   8.580  0.00  0.00    +0.000 A 
ATOM     26  C   UNL     1      45.058   2.793   9.114  0.00  0.00    +0.000 A 
ATOM     27  C   UNL     1      45.394   1.519   8.680  0.00  0.00    +0.000 A 
ATOM     28  N   UNL     1      46.360   1.262   7.770  0.00  0.00    +0.000 NA
ATOM     29  CA  UNL     1      47.028   2.333   7.262  0.00  0.00    +0.000 A 
ATOM     30  C   UNL     1      46.755   3.640   7.648  0.00  0.00    +0.000 A 
BRANCH  29  31
ATOM     31  C   UNL     1      48.102   2.071   6.231  0.00  0.00    +0.000 C 
BRANCH  31  32
ATOM     32  O   UNL     1      47.917   2.878   5.070  0.00  0.00    +0.000 OA
ATOM     33  H   UNL     1      48.139   2.286   4.321  0.00  0.00    +0.000 HD
ENDBRANCH  31  32
ENDBRANCH  29  31
ENDBRANCH  24  25
ENDBRANCH  23  24
ENDBRANCH  22  23
ENDBRANCH   4  22
TORSDOF 9
ENDMDL
MODEL 8
REMARK VINA RESULT:    -6.135      5.564      9.729
REMARK INTER + INTRA:         -10.710
REMARK INTER:                  -9.710
REMARK INTRA:                  -1.000
REMARK UNBOUND:                -1.526
REMARK  Name = 
REMARK  10 active torsions:
REMARK  status: ('A' for Active; 'I' for Inactive)
REMARK    1  A    between atoms: C_1  and  C_2
REMARK    2  A    between atoms: C_9  and  C_10
REMARK    3  A    between atoms: N_12  and  C_13
REMARK    4  A    between atoms: C_13  and  C_14
REMARK    5  A    between atoms: C_17  and  C_18
REMARK    6  A    between atoms: C_18  and  O_19
REMARK    7  A    between atoms: O_19  and  C_20
REMARK    8  A    between atoms: C_20  and  C_21
REMARK    9  A    between atoms: CA_25  and  C_26
REMARK   10  A    between atoms: C_26  and  O_27
REMARK                            x       y       z     vdW  Elec       q    Type
REMARK                         _______ _______ _______ _____ _____    ______ ____
ROOT
ATOM      1  C   UNL     1      48.670   3.399  17.045  0.00  0.00    +0.000 A 
ATOM      2  C   UNL     1      49.320   4.577  17.436  0.00  0.00    +0.000 A 
ATOM      3  C   UNL     1      50.679   4.562  17.768  0.00  0.00    +0.000 A 
ATOM      4  C   UNL     1      51.416   3.371  17.703  0.00  0.00    +0.000 A 
ATOM      5  C   UNL     1      50.766   2.196  17.302  0.00  0.00    +0.000 A 
ATOM      6  C   UNL     1      49.408   2.212  16.971  0.00  0.00    +0.000 A 
ENDROOT
BRANCH   1   7
ATOM      7  C   UNL     1      47.207   3.408  16.698  0.00  0.00    +0.000 C 
BRANCH   7  10
ATOM      8  C   UNL     1      46.933   4.252  14.422  0.00  0.00    +0.000 C 
ATOM      9  O   UNL     1      47.216   3.152  13.962  0.00  0.00    +0.000 OA
ATOM     10  N   UNL     1      46.879   4.478  15.782  0.00  0.00    +0.000 N 
ATOM     11  H   UNL     1      46.819   5.418  16.143  0.00  0.00    +0.000 HD
BRANCH   8  20
ATOM     12  C   UNL     1      43.843   3.607  13.225  0.00  0.00    +0.000 C 
ATOM     13  C   UNL     1      44.181   4.951  12.657  0.00  0.00    +0.000 A 
ATOM     14  N   UNL     1      43.209   5.506  11.880  0.00  0.00    +0.000 NA
ATOM     15  C   UNL     1      43.418   6.702  11.317  0.00  0.00    +0.000 A 
ATOM     16  N   UNL     1      44.512   7.453  11.419  0.00  0.00    +0.000 NA
ATOM     17  C   UNL     1      45.457   6.889  12.188  0.00  0.00    +0.000 A 
ATOM     18  S   UNL     1      46.928   7.707  12.430  0.00  0.00    +0.000 S 
ATOM     19  C   UNL     1      47.523   6.459  13.421  0.00  0.00    +0.000 A 
ATOM     20  C   UNL     1      46.632   5.407  13.575  0.00  0.00    +0.000 A 
ATOM     21  C   UNL     1      45.391   5.663  12.847  0.00  0.00    +0.000 A 
ENDBRANCH   8  20
ENDBRANCH   7  10
ENDBRANCH   1   7
BRANCH   4  22
ATOM     22  C   UNL     1      52.887   3.353  18.035  0.00  0.00    +0.000 C 
BRANCH  22  23
ATOM     23  O   UNL     1      53.158   2.268  18.914  0.00  0.00    +0.000 OA
BRANCH  23  24
ATOM     24  C   UNL     1      54.538   1.905  18.899  0.00  0.00    +0.000 C 
BRANCH  24  25
ATOM     25  C   UNL     1      54.714   0.642  18.096  0.00  0.00    +0.000 A 
ATOM     26  C   UNL     1      55.004   0.690  16.733  0.00  0.00    +0.000 A 
ATOM     27  C   UNL     1      55.130  -0.503  16.035  0.00  0.00    +0.000 A 
ATOM     28  N   UNL     1      54.978  -1.724  16.595  0.00  0.00    +0.000 NA
ATOM     29  CA  UNL     1      54.686  -1.760  17.922  0.00  0.00    +0.000 A 
ATOM     30  C   UNL     1      54.538  -0.611  18.691  0.00  0.00    +0.000 A 
BRANCH  29  31
ATOM     31  C   UNL     1      54.526  -3.115  18.573  0.00  0.00    +0.000 C 
BRANCH  31  32
ATOM     32  O   UNL     1      53.151  -3.463  18.722  0.00  0.00    +0.000 OA
ATOM     33  H   UNL     1      52.719  -3.114  17.915  0.00  0.00    +0.000 HD
ENDBRANCH  31  32
ENDBRANCH  29  31
ENDBRANCH  24  25
ENDBRANCH  23  24
ENDBRANCH  22  23
ENDBRANCH   4  22
TORSDOF 9
ENDMDL
MODEL 9
REMARK VINA RESULT:    -5.907      4.131      8.733
REMARK INTER + INTRA:         -10.368
REMARK INTER:                  -7.622
REMARK INTRA:                  -2.746
REMARK UNBOUND:                -1.526
REMARK  Name = 
REMARK  10 active torsions:
REMARK  status: ('A' for Active; 'I' for Inactive)
REMARK    1  A    between atoms: C_1  and  C_2
REMARK    2  A    between atoms: C_9  and  C_10
REMARK    3  A    between atoms: N_12  and  C_13
REMARK    4  A    between atoms: C_13  and  C_14
REMARK    5  A    between atoms: C_17  and  C_18
REMARK    6  A    between atoms: C_18  and  O_19
REMARK    7  A    between atoms: O_19  and  C_20
REMARK    8  A    between atoms: C_20  and  C_21
REMARK    9  A    between atoms: CA_25  and  C_26
REMARK   10  A    between atoms: C_26  and  O_27
REMARK                            x       y       z     vdW  Elec       q    Type
REMARK                         _______ _______ _______ _____ _____    ______ ____
ROOT
ATOM      1  C   UNL     1      48.566   4.139  17.412  0.00  0.00    +0.000 A 
ATOM      2  C   UNL     1      48.530   5.434  17.945  0.00  0.00    +0.000 A 
ATOM      3  C   UNL     1      49.696   6.035  18.430  0.00  0.00    +0.000 A 
ATOM      4  C   UNL     1      50.922   5.358  18.381  0.00  0.00    +0.000 A 
ATOM      5  C   UNL     1      50.957   4.066  17.839  0.00  0.00    +0.000 A 
ATOM      6  C   UNL     1      49.792   3.465  17.355  0.00  0.00    +0.000 A 
ENDROOT
BRANCH   1   7
ATOM      7  C   UNL     1      47.314   3.484  16.900  0.00  0.00    +0.000 C 
BRANCH   7  10
ATOM      8  C   UNL     1      46.747   4.086  14.601  0.00  0.00    +0.000 C 
ATOM      9  O   UNL     1      47.412   3.150  14.174  0.00  0.00    +0.000 OA
ATOM     10  N   UNL     1      46.616   4.325  15.954  0.00  0.00    +0.000 N 
ATOM     11  H   UNL     1      46.217   5.191  16.284  0.00  0.00    +0.000 HD
BRANCH   8  20
ATOM     12  C   UNL     1      48.733   6.815  14.552  0.00  0.00    +0.000 C 
ATOM     13  C   UNL     1      47.611   7.164  13.623  0.00  0.00    +0.000 A 
ATOM     14  N   UNL     1      47.704   8.395  13.047  0.00  0.00    +0.000 NA
ATOM     15  C   UNL     1      46.745   8.805  12.209  0.00  0.00    +0.000 A 
ATOM     16  N   UNL     1      45.653   8.133  11.854  0.00  0.00    +0.000 NA
ATOM     17  C   UNL     1      45.579   6.924  12.431  0.00  0.00    +0.000 A 
ATOM     18  S   UNL     1      44.247   5.922  12.094  0.00  0.00    +0.000 S 
ATOM     19  C   UNL     1      44.844   4.693  13.107  0.00  0.00    +0.000 A 
ATOM     20  C   UNL     1      46.044   5.020  13.721  0.00  0.00    +0.000 A 
ATOM     21  C   UNL     1      46.493   6.350  13.313  0.00  0.00    +0.000 A 
ENDBRANCH   8  20
ENDBRANCH   7  10
ENDBRANCH   1   7
BRANCH   4  22
ATOM     22  C   UNL     1      52.187   6.011  18.879  0.00  0.00    +0.000 C 
BRANCH  22  23
ATOM     23  O   UNL     1      52.315   7.299  18.290  0.00  0.00    +0.000 OA
BRANCH  23  24
ATOM     24  C   UNL     1      52.975   7.241  17.026  0.00  0.00    +0.000 C 
BRANCH  24  25
ATOM     25  C   UNL     1      52.225   8.089  16.031  0.00  0.00    +0.000 A 
ATOM     26  C   UNL     1      52.572   8.091  14.680  0.00  0.00    +0.000 A 
ATOM     27  C   UNL     1      51.867   8.911  13.811  0.00  0.00    +0.000 A 
ATOM     28  N   UNL     1      50.858   9.726  14.194  0.00  0.00    +0.000 NA
ATOM     29  CA  UNL     1      50.533   9.724  15.514  0.00  0.00    +0.000 A 
ATOM     30  C   UNL     1      51.194   8.936  16.450  0.00  0.00    +0.000 A 
BRANCH  29  31
ATOM     31  C   UNL     1      49.398  10.616  15.963  0.00  0.00    +0.000 C 
BRANCH  31  32
ATOM     32  O   UNL     1      48.147  10.166  15.449  0.00  0.00    +0.000 OA
ATOM     33  H   UNL     1      48.333   9.270  15.097  0.00  0.00    +0.000 HD
ENDBRANCH  31  32
ENDBRANCH  29  31
ENDBRANCH  24  25
ENDBRANCH  23  24
ENDBRANCH  22  23
ENDBRANCH   4  22
TORSDOF 9
ENDMDL
