MODEL 1
REMARK VINA RESULT:    -8.256      0.000      0.000
REMARK INTER + INTRA:         -10.903
REMARK INTER:                 -10.187
REMARK INTRA:                  -0.716
REMARK UNBOUND:                -0.716
REMARK  Name = 
REMARK  4 active torsions:
REMARK  status: ('A' for Active; 'I' for Inactive)
REMARK    1  A    between atoms: C_2  and  C_4
REMARK    2  A    between atoms: N_8  and  C_9
REMARK    3  A    between atoms: C_9  and  C_10
REMARK    4  A    between atoms: C_14  and  N_15
REMARK                            x       y       z     vdW  Elec       q    Type
REMARK                         _______ _______ _______ _____ _____    ______ ____
ROOT
ATOM      1  C   UNL     1      46.408   2.274   7.623  0.00  0.00    +0.000 A 
ATOM      2  C   UNL     1      45.752   1.841   8.770  0.00  0.00    +0.000 A 
ATOM      3  C   UNL     1      44.927   2.730   9.457  0.00  0.00    +0.000 A 
ATOM      4  C   UNL     1      44.782   4.036   9.001  0.00  0.00    +0.000 A 
ATOM      5  N   UNL     1      43.917   4.947   9.555  0.00  0.00    +0.000 N 
ATOM      6  N   UNL     1      45.445   4.475   7.912  0.00  0.00    +0.000 NA
ATOM      7  C   UNL     1      46.247   3.598   7.251  0.00  0.00    +0.000 A 
ATOM      8  H   UNL     1      44.030   5.856   9.119  0.00  0.00    +0.000 HD
ENDROOT
BRANCH   1  10
ATOM      9  N   UNL     1      48.316   1.948   6.162  0.00  0.00    +0.000 N 
ATOM     10  C   UNL     1      47.244   1.383   6.797  0.00  0.00    +0.000 C 
ATOM     11  O   UNL     1      47.016   0.183   6.718  0.00  0.00    +0.000 OA
ATOM     12  H   UNL     1      48.951   1.310   5.696  0.00  0.00    +0.000 HD
ATOM     13  H   UNL     1      48.678   2.855   6.416  0.00  0.00    +0.000 HD
ENDBRANCH   1  10
BRANCH   5  14
ATOM     14  C   UNL     1      43.509   4.947  10.943  0.00  0.00    +0.000 C 
BRANCH  14  15
ATOM     15  C   UNL     1      44.620   5.155  11.948  0.00  0.00    +0.000 A 
ATOM     16  C   UNL     1      44.892   4.104  12.836  0.00  0.00    +0.000 A 
ATOM     17  C   UNL     1      45.903   4.224  13.781  0.00  0.00    +0.000 A 
ATOM     18  C   UNL     1      46.659   5.395  13.847  0.00  0.00    +0.000 A 
ATOM     19  C   UNL     1      46.430   6.477  12.984  0.00  0.00    +0.000 A 
ATOM     20  C   UNL     1      45.391   6.330  12.046  0.00  0.00    +0.000 A 
BRANCH  19  21
ATOM     21  N   UNL     1      47.199   7.620  13.058  0.00  0.00    +0.000 N 
ATOM     22  C   UNL     1      46.642   8.972  13.203  0.00  0.00    +0.000 C 
ATOM     23  C   UNL     1      47.126   9.866  12.051  0.00  0.00    +0.000 C 
ATOM     24  O   UNL     1      48.563   9.884  11.972  0.00  0.00    +0.000 OA
ATOM     25  C   UNL     1      49.062   8.554  11.749  0.00  0.00    +0.000 C 
ATOM     26  C   UNL     1      48.659   7.591  12.880  0.00  0.00    +0.000 C 
ENDBRANCH  19  21
ENDBRANCH  14  15
ENDBRANCH   5  14
TORSDOF 4
ENDMDL
MODEL 2
REMARK VINA RESULT:    -8.243      2.003      2.925
REMARK INTER + INTRA:         -10.886
REMARK INTER:                 -10.172
REMARK INTRA:                  -0.714
REMARK UNBOUND:                -0.716
REMARK  Name = 
REMARK  4 active torsions:
REMARK  status: ('A' for Active; 'I' for Inactive)
REMARK    1  A    between atoms: C_2  and  C_4
REMARK    2  A    between atoms: N_8  and  C_9
REMARK    3  A    between atoms: C_9  and  C_10
REMARK    4  A    between atoms: C_14  and  N_15
REMARK                            x       y       z     vdW  Elec       q    Type
REMARK                         _______ _______ _______ _____ _____    ______ ____
ROOT
ATOM      1  C   UNL     1      46.250   2.022   7.924  0.00  0.00    +0.000 A 
ATOM      2  C   UNL     1      45.640   1.798   9.152  0.00  0.00    +0.000 A 
ATOM      3  C   UNL     1      44.813   2.784   9.690  0.00  0.00    +0.000 A 
ATOM      4  C   UNL     1      44.621   3.979   9.004  0.00  0.00    +0.000 A 
ATOM      5  N   UNL     1      43.750   4.960   9.407  0.00  0.00    +0.000 N 
ATOM      6  N   UNL     1      45.241   4.219   7.830  0.00  0.00    +0.000 NA
ATOM      7  C   UNL     1      46.044   3.250   7.317  0.00  0.00    +0.000 A 
ATOM      8  H   UNL     1      43.828   5.773   8.806  0.00  0.00    +0.000 HD
ENDROOT
BRANCH   1  10
ATOM      9  N   UNL     1      46.853  -0.301   7.574  0.00  0.00    +0.000 N 
ATOM     10  C   UNL     1      47.083   1.008   7.249  0.00  0.00    +0.000 C 
ATOM     11  O   UNL     1      47.911   1.319   6.403  0.00  0.00    +0.000 OA
ATOM     12  H   UNL     1      47.343  -0.995   7.021  0.00  0.00    +0.000 HD
ATOM     13  H   UNL     1      46.017  -0.600   8.054  0.00  0.00    +0.000 HD
ENDBRANCH   1  10
BRANCH   5  14
ATOM     14  C   UNL     1      43.384   5.211  10.784  0.00  0.00    +0.000 C 
BRANCH  14  15
ATOM     15  C   UNL     1      44.395   5.992  11.595  0.00  0.00    +0.000 A 
ATOM     16  C   UNL     1      44.310   7.391  11.557  0.00  0.00    +0.000 A 
ATOM     17  C   UNL     1      45.202   8.171  12.283  0.00  0.00    +0.000 A 
ATOM     18  C   UNL     1      46.188   7.561  13.058  0.00  0.00    +0.000 A 
ATOM     19  C   UNL     1      46.319   6.166  13.132  0.00  0.00    +0.000 A 
ATOM     20  C   UNL     1      45.409   5.404  12.377  0.00  0.00    +0.000 A 
BRANCH  19  21
ATOM     21  N   UNL     1      47.293   5.584  13.918  0.00  0.00    +0.000 N 
ATOM     22  C   UNL     1      47.171   4.245  14.512  0.00  0.00    +0.000 C 
ATOM     23  C   UNL     1      47.336   4.330  16.037  0.00  0.00    +0.000 C 
ATOM     24  O   UNL     1      48.578   4.965  16.393  0.00  0.00    +0.000 OA
ATOM     25  C   UNL     1      48.621   6.301  15.861  0.00  0.00    +0.000 C 
ATOM     26  C   UNL     1      48.504   6.312  14.327  0.00  0.00    +0.000 C 
ENDBRANCH  19  21
ENDBRANCH  14  15
ENDBRANCH   5  14
TORSDOF 4
ENDMDL
MODEL 3
REMARK VINA RESULT:    -7.673      2.112      2.913
REMARK INTER + INTRA:         -10.183
REMARK INTER:                  -9.626
REMARK INTRA:                  -0.558
REMARK UNBOUND:                -0.716
REMARK  Name = 
REMARK  4 active torsions:
REMARK  status: ('A' for Active; 'I' for Inactive)
REMARK    1  A    between atoms: C_2  and  C_4
REMARK    2  A    between atoms: N_8  and  C_9
REMARK    3  A    between atoms: C_9  and  C_10
REMARK    4  A    between atoms: C_14  and  N_15
REMARK                            x       y       z     vdW  Elec       q    Type
REMARK                         _______ _______ _______ _____ _____    ______ ____
ROOT
ATOM      1  C   UNL     1      46.677   2.494   7.173  0.00  0.00    +0.000 A 
ATOM      2  C   UNL     1      46.399   3.737   7.730  0.00  0.00    +0.000 A 
ATOM      3  C   UNL     1      45.618   3.805   8.883  0.00  0.00    +0.000 A 
ATOM      4  C   UNL     1      45.116   2.639   9.451  0.00  0.00    +0.000 A 
ATOM      5  N   UNL     1      44.425   2.603  10.636  0.00  0.00    +0.000 N 
ATOM      6  N   UNL     1      45.350   1.433   8.895  0.00  0.00    +0.000 NA
ATOM      7  C   UNL     1      46.112   1.381   7.770  0.00  0.00    +0.000 A 
ATOM      8  H   UNL     1      44.086   1.665  10.822  0.00  0.00    +0.000 HD
ENDROOT
BRANCH   1  10
ATOM      9  N   UNL     1      47.403   3.226   4.977  0.00  0.00    +0.000 N 
ATOM     10  C   UNL     1      47.550   2.325   5.996  0.00  0.00    +0.000 C 
ATOM     11  O   UNL     1      48.401   1.446   5.951  0.00  0.00    +0.000 OA
ATOM     12  H   UNL     1      48.086   3.176   4.230  0.00  0.00    +0.000 HD
ATOM     13  H   UNL     1      46.912   4.100   5.096  0.00  0.00    +0.000 HD
ENDBRANCH   1  10
BRANCH   5  14
ATOM     14  C   UNL     1      43.617   3.690  11.144  0.00  0.00    +0.000 C 
BRANCH  14  15
ATOM     15  C   UNL     1      44.385   4.841  11.758  0.00  0.00    +0.000 A 
ATOM     16  C   UNL     1      43.925   6.138  11.492  0.00  0.00    +0.000 A 
ATOM     17  C   UNL     1      44.578   7.241  12.028  0.00  0.00    +0.000 A 
ATOM     18  C   UNL     1      45.697   7.060  12.840  0.00  0.00    +0.000 A 
ATOM     19  C   UNL     1      46.201   5.784  13.138  0.00  0.00    +0.000 A 
ATOM     20  C   UNL     1      45.526   4.688  12.571  0.00  0.00    +0.000 A 
BRANCH  19  21
ATOM     21  N   UNL     1      47.301   5.628  13.955  0.00  0.00    +0.000 N 
ATOM     22  C   UNL     1      47.457   4.526  14.915  0.00  0.00    +0.000 C 
ATOM     23  C   UNL     1      47.676   5.086  16.328  0.00  0.00    +0.000 C 
ATOM     24  O   UNL     1      48.795   5.991  16.364  0.00  0.00    +0.000 OA
ATOM     25  C   UNL     1      48.566   7.096  15.473  0.00  0.00    +0.000 C 
ATOM     26  C   UNL     1      48.377   6.631  14.018  0.00  0.00    +0.000 C 
ENDBRANCH  19  21
ENDBRANCH  14  15
ENDBRANCH   5  14
TORSDOF 4
ENDMDL
MODEL 4
REMARK VINA RESULT:    -7.254      1.519      2.212
REMARK INTER + INTRA:          -9.666
REMARK INTER:                  -9.136
REMARK INTRA:                  -0.529
REMARK UNBOUND:                -0.716
REMARK  Name = 
REMARK  4 active torsions:
REMARK  status: ('A' for Active; 'I' for Inactive)
REMARK    1  A    between atoms: C_2  and  C_4
REMARK    2  A    between atoms: N_8  and  C_9
REMARK    3  A    between atoms: C_9  and  C_10
REMARK    4  A    between atoms: C_14  and  N_15
REMARK                            x       y       z     vdW  Elec       q    Type
REMARK                         _______ _______ _______ _____ _____    ______ ____
ROOT
ATOM      1  C   UNL     1      46.441   2.564   7.420  0.00  0.00    +0.000 A 
ATOM      2  C   UNL     1      45.946   3.813   7.778  0.00  0.00    +0.000 A 
ATOM      3  C   UNL     1      45.196   3.937   8.947  0.00  0.00    +0.000 A 
ATOM      4  C   UNL     1      44.938   2.816   9.728  0.00  0.00    +0.000 A 
ATOM      5  N   UNL     1      44.296   2.861  10.941  0.00  0.00    +0.000 N 
ATOM      6  N   UNL     1      45.382   1.594   9.367  0.00  0.00    +0.000 NA
ATOM      7  C   UNL     1      46.112   1.487   8.225  0.00  0.00    +0.000 A 
ATOM      8  H   UNL     1      44.146   1.923  11.298  0.00  0.00    +0.000 HD
ENDROOT
BRANCH   1  10
ATOM      9  N   UNL     1      47.198   3.267   5.225  0.00  0.00    +0.000 N 
ATOM     10  C   UNL     1      47.301   2.355   6.240  0.00  0.00    +0.000 C 
ATOM     11  O   UNL     1      48.105   1.433   6.189  0.00  0.00    +0.000 OA
ATOM     12  H   UNL     1      47.874   3.185   4.476  0.00  0.00    +0.000 HD
ATOM     13  H   UNL     1      46.752   4.165   5.349  0.00  0.00    +0.000 HD
ENDBRANCH   1  10
BRANCH   5  14
ATOM     14  C   UNL     1      43.310   3.854  11.306  0.00  0.00    +0.000 C 
BRANCH  14  15
ATOM     15  C   UNL     1      43.846   5.250  11.534  0.00  0.00    +0.000 A 
ATOM     16  C   UNL     1      43.110   6.318  11.002  0.00  0.00    +0.000 A 
ATOM     17  C   UNL     1      43.540   7.628  11.178  0.00  0.00    +0.000 A 
ATOM     18  C   UNL     1      44.710   7.885  11.893  0.00  0.00    +0.000 A 
ATOM     19  C   UNL     1      45.486   6.855  12.446  0.00  0.00    +0.000 A 
ATOM     20  C   UNL     1      45.031   5.540  12.240  0.00  0.00    +0.000 A 
BRANCH  19  21
ATOM     21  N   UNL     1      46.632   7.134  13.161  0.00  0.00    +0.000 N 
ATOM     22  C   UNL     1      46.980   8.474  13.655  0.00  0.00    +0.000 C 
ATOM     23  C   UNL     1      48.357   8.892  13.117  0.00  0.00    +0.000 C 
ATOM     24  O   UNL     1      49.364   7.919  13.447  0.00  0.00    +0.000 OA
ATOM     25  C   UNL     1      49.026   6.643  12.876  0.00  0.00    +0.000 C 
ATOM     26  C   UNL     1      47.674   6.122  13.393  0.00  0.00    +0.000 C 
ENDBRANCH  19  21
ENDBRANCH  14  15
ENDBRANCH   5  14
TORSDOF 4
ENDMDL
MODEL 5
REMARK VINA RESULT:    -7.015      3.909      8.425
REMARK INTER + INTRA:          -9.371
REMARK INTER:                  -8.963
REMARK INTRA:                  -0.409
REMARK UNBOUND:                -0.716
REMARK  Name = 
REMARK  4 active torsions:
REMARK  status: ('A' for Active; 'I' for Inactive)
REMARK    1  A    between atoms: C_2  and  C_4
REMARK    2  A    between atoms: N_8  and  C_9
REMARK    3  A    between atoms: C_9  and  C_10
REMARK    4  A    between atoms: C_14  and  N_15
REMARK                            x       y       z     vdW  Elec       q    Type
REMARK                         _______ _______ _______ _____ _____    ______ ____
ROOT
ATOM      1  C   UNL     1      48.674   4.448  18.337  0.00  0.00    +0.000 A 
ATOM      2  C   UNL     1      48.753   5.501  17.433  0.00  0.00    +0.000 A 
ATOM      3  C   UNL     1      47.993   5.452  16.264  0.00  0.00    +0.000 A 
ATOM      4  C   UNL     1      47.182   4.351  16.010  0.00  0.00    +0.000 A 
ATOM      5  N   UNL     1      46.328   4.263  14.939  0.00  0.00    +0.000 N 
ATOM      6  N   UNL     1      47.130   3.308  16.863  0.00  0.00    +0.000 NA
ATOM      7  C   UNL     1      47.875   3.369  17.998  0.00  0.00    +0.000 A 
ATOM      8  H   UNL     1      45.895   3.347  14.904  0.00  0.00    +0.000 HD
ENDROOT
BRANCH   1  10
ATOM      9  N   UNL     1      48.695   4.004  20.721  0.00  0.00    +0.000 N 
ATOM     10  C   UNL     1      49.387   4.449  19.628  0.00  0.00    +0.000 C 
ATOM     11  O   UNL     1      50.560   4.789  19.711  0.00  0.00    +0.000 OA
ATOM     12  H   UNL     1      49.226   3.894  21.576  0.00  0.00    +0.000 HD
ATOM     13  H   UNL     1      47.837   3.477  20.640  0.00  0.00    +0.000 HD
ENDBRANCH   1  10
BRANCH   5  14
ATOM     14  C   UNL     1      46.540   4.922  13.668  0.00  0.00    +0.000 C 
BRANCH  14  15
ATOM     15  C   UNL     1      45.434   4.747  12.651  0.00  0.00    +0.000 A 
ATOM     16  C   UNL     1      44.173   5.268  12.973  0.00  0.00    +0.000 A 
ATOM     17  C   UNL     1      43.113   5.149  12.082  0.00  0.00    +0.000 A 
ATOM     18  C   UNL     1      43.302   4.510  10.858  0.00  0.00    +0.000 A 
ATOM     19  C   UNL     1      44.542   3.968  10.485  0.00  0.00    +0.000 A 
ATOM     20  C   UNL     1      45.592   4.094  11.412  0.00  0.00    +0.000 A 
BRANCH  19  21
ATOM     21  N   UNL     1      44.709   3.352   9.262  0.00  0.00    +0.000 N 
ATOM     22  C   UNL     1      44.720   1.894   9.076  0.00  0.00    +0.000 C 
ATOM     23  C   UNL     1      46.031   1.460   8.404  0.00  0.00    +0.000 C 
ATOM     24  O   UNL     1      46.240   2.161   7.164  0.00  0.00    +0.000 OA
ATOM     25  C   UNL     1      46.305   3.577   7.401  0.00  0.00    +0.000 C 
ATOM     26  C   UNL     1      45.010   4.113   8.038  0.00  0.00    +0.000 C 
ENDBRANCH  19  21
ENDBRANCH  14  15
ENDBRANCH   5  14
TORSDOF 4
ENDMDL
MODEL 6
REMARK VINA RESULT:    -6.753      1.802      7.018
REMARK INTER + INTRA:          -9.048
REMARK INTER:                  -8.409
REMARK INTRA:                  -0.640
REMARK UNBOUND:                -0.716
REMARK  Name = 
REMARK  4 active torsions:
REMARK  status: ('A' for Active; 'I' for Inactive)
REMARK    1  A    between atoms: C_2  and  C_4
REMARK    2  A    between atoms: N_8  and  C_9
REMARK    3  A    between atoms: C_9  and  C_10
REMARK    4  A    between atoms: C_14  and  N_15
REMARK                            x       y       z     vdW  Elec       q    Type
REMARK                         _______ _______ _______ _____ _____    ______ ____
ROOT
ATOM      1  C   UNL     1      49.668   7.870  12.760  0.00  0.00    +0.000 A 
ATOM      2  C   UNL     1      48.725   8.285  11.827  0.00  0.00    +0.000 A 
ATOM      3  C   UNL     1      47.400   7.878  11.974  0.00  0.00    +0.000 A 
ATOM      4  C   UNL     1      47.040   7.054  13.035  0.00  0.00    +0.000 A 
ATOM      5  N   UNL     1      45.747   6.686  13.313  0.00  0.00    +0.000 N 
ATOM      6  N   UNL     1      47.957   6.615  13.922  0.00  0.00    +0.000 NA
ATOM      7  C   UNL     1      49.245   7.019  13.768  0.00  0.00    +0.000 A 
ATOM      8  H   UNL     1      45.723   6.022  14.080  0.00  0.00    +0.000 HD
ENDROOT
BRANCH   1  10
ATOM      9  N   UNL     1      51.870   7.946  13.776  0.00  0.00    +0.000 N 
ATOM     10  C   UNL     1      51.076   8.309  12.722  0.00  0.00    +0.000 C 
ATOM     11  O   UNL     1      51.527   8.930  11.769  0.00  0.00    +0.000 OA
ATOM     12  H   UNL     1      52.859   8.147  13.685  0.00  0.00    +0.000 HD
ATOM     13  H   UNL     1      51.604   7.223  14.429  0.00  0.00    +0.000 HD
ENDBRANCH   1  10
BRANCH   5  14
ATOM     14  C   UNL     1      44.703   6.560  12.321  0.00  0.00    +0.000 C 
BRANCH  14  15
ATOM     15  C   UNL     1      44.425   5.151  11.843  0.00  0.00    +0.000 A 
ATOM     16  C   UNL     1      43.764   4.288  12.729  0.00  0.00    +0.000 A 
ATOM     17  C   UNL     1      43.471   2.983  12.354  0.00  0.00    +0.000 A 
ATOM     18  C   UNL     1      43.832   2.525  11.087  0.00  0.00    +0.000 A 
ATOM     19  C   UNL     1      44.497   3.345  10.161  0.00  0.00    +0.000 A 
ATOM     20  C   UNL     1      44.790   4.658  10.575  0.00  0.00    +0.000 A 
BRANCH  19  21
ATOM     21  N   UNL     1      44.832   2.876   8.908  0.00  0.00    +0.000 N 
ATOM     22  C   UNL     1      45.150   1.470   8.620  0.00  0.00    +0.000 C 
ATOM     23  C   UNL     1      46.546   1.365   7.989  0.00  0.00    +0.000 C 
ATOM     24  O   UNL     1      46.651   2.190   6.814  0.00  0.00    +0.000 OA
ATOM     25  C   UNL     1      46.414   3.567   7.154  0.00  0.00    +0.000 C 
ATOM     26  C   UNL     1      45.014   3.777   7.759  0.00  0.00    +0.000 C 
ENDBRANCH  19  21
ENDBRANCH  14  15
ENDBRANCH   5  14
TORSDOF 4
ENDMDL
MODEL 7
REMARK VINA RESULT:    -6.566      5.487      8.381
REMARK INTER + INTRA:          -8.817
REMARK INTER:                  -8.229
REMARK INTRA:                  -0.589
REMARK UNBOUND:                -0.716
REMARK  Name = 
REMARK  4 active torsions:
REMARK  status: ('A' for Active; 'I' for Inactive)
REMARK    1  A    between atoms: C_2  and  C_4
REMARK    2  A    between atoms: N_8  and  C_9
REMARK    3  A    between atoms: C_9  and  C_10
REMARK    4  A    between atoms: C_14  and  N_15
REMARK                            x       y       z     vdW  Elec       q    Type
REMARK                         _______ _______ _______ _____ _____    ______ ____
ROOT
ATOM      1  C   UNL     1      51.942   2.247  17.744  0.00  0.00    +0.000 A 
ATOM      2  C   UNL     1      51.498   3.506  18.130  0.00  0.00    +0.000 A 
ATOM      3  C   UNL     1      50.201   3.899  17.802  0.00  0.00    +0.000 A 
ATOM      4  C   UNL     1      49.376   3.040  17.084  0.00  0.00    +0.000 A 
ATOM      5  N   UNL     1      48.058   3.303  16.805  0.00  0.00    +0.000 N 
ATOM      6  N   UNL     1      49.812   1.832  16.672  0.00  0.00    +0.000 NA
ATOM      7  C   UNL     1      51.079   1.461  16.998  0.00  0.00    +0.000 A 
ATOM      8  H   UNL     1      47.671   2.581  16.205  0.00  0.00    +0.000 HD
ENDROOT
BRANCH   1  10
ATOM      9  N   UNL     1      53.793   2.129  19.306  0.00  0.00    +0.000 N 
ATOM     10  C   UNL     1      53.271   1.723  18.108  0.00  0.00    +0.000 C 
ATOM     11  O   UNL     1      53.863   0.924  17.394  0.00  0.00    +0.000 OA
ATOM     12  H   UNL     1      54.648   1.673  19.603  0.00  0.00    +0.000 HD
ATOM     13  H   UNL     1      53.228   2.562  20.023  0.00  0.00    +0.000 HD
ENDBRANCH   1  10
BRANCH   5  14
ATOM     14  C   UNL     1      47.504   4.630  16.652  0.00  0.00    +0.000 C 
BRANCH  14  15
ATOM     15  C   UNL     1      47.382   5.125  15.227  0.00  0.00    +0.000 A 
ATOM     16  C   UNL     1      48.228   6.169  14.831  0.00  0.00    +0.000 A 
ATOM     17  C   UNL     1      48.175   6.668  13.535  0.00  0.00    +0.000 A 
ATOM     18  C   UNL     1      47.276   6.125  12.618  0.00  0.00    +0.000 A 
ATOM     19  C   UNL     1      46.404   5.079  12.960  0.00  0.00    +0.000 A 
ATOM     20  C   UNL     1      46.474   4.604  14.282  0.00  0.00    +0.000 A 
BRANCH  19  21
ATOM     21  N   UNL     1      45.534   4.547  12.031  0.00  0.00    +0.000 N 
ATOM     22  C   UNL     1      44.855   5.343  10.998  0.00  0.00    +0.000 C 
ATOM     23  C   UNL     1      43.334   5.169  11.116  0.00  0.00    +0.000 C 
ATOM     24  O   UNL     1      42.961   3.780  11.055  0.00  0.00    +0.000 OA
ATOM     25  C   UNL     1      43.580   3.054  12.130  0.00  0.00    +0.000 C 
ATOM     26  C   UNL     1      45.116   3.137  12.070  0.00  0.00    +0.000 C 
ENDBRANCH  19  21
ENDBRANCH  14  15
ENDBRANCH   5  14
TORSDOF 4
ENDMDL
MODEL 8
REMARK VINA RESULT:    -6.320      3.757      7.352
REMARK INTER + INTRA:          -8.514
REMARK INTER:                  -8.237
REMARK INTRA:                  -0.277
REMARK UNBOUND:                -0.716
REMARK  Name = 
REMARK  4 active torsions:
REMARK  status: ('A' for Active; 'I' for Inactive)
REMARK    1  A    between atoms: C_2  and  C_4
REMARK    2  A    between atoms: N_8  and  C_9
REMARK    3  A    between atoms: C_9  and  C_10
REMARK    4  A    between atoms: C_14  and  N_15
REMARK                            x       y       z     vdW  Elec       q    Type
REMARK                         _______ _______ _______ _____ _____    ______ ____
ROOT
ATOM      1  C   UNL     1      42.449  10.435  10.789  0.00  0.00    +0.000 A 
ATOM      2  C   UNL     1      43.082   9.203  10.669  0.00  0.00    +0.000 A 
ATOM      3  C   UNL     1      44.350   9.034  11.224  0.00  0.00    +0.000 A 
ATOM      4  C   UNL     1      44.971  10.097  11.873  0.00  0.00    +0.000 A 
ATOM      5  N   UNL     1      46.170   9.993  12.533  0.00  0.00    +0.000 N 
ATOM      6  N   UNL     1      44.379  11.306  11.960  0.00  0.00    +0.000 NA
ATOM      7  C   UNL     1      43.144  11.457  11.414  0.00  0.00    +0.000 A 
ATOM      8  H   UNL     1      46.473  10.903  12.864  0.00  0.00    +0.000 HD
ENDROOT
BRANCH   1  10
ATOM      9  N   UNL     1      40.071   9.971  10.882  0.00  0.00    +0.000 N 
ATOM     10  C   UNL     1      41.082  10.681  10.294  0.00  0.00    +0.000 C 
ATOM     11  O   UNL     1      40.854  11.516   9.428  0.00  0.00    +0.000 OA
ATOM     12  H   UNL     1      39.127  10.232  10.622  0.00  0.00    +0.000 HD
ATOM     13  H   UNL     1      40.190   9.486  11.760  0.00  0.00    +0.000 HD
ENDBRANCH   1  10
BRANCH   5  14
ATOM     14  C   UNL     1      47.215   9.055  12.186  0.00  0.00    +0.000 C 
BRANCH  14  15
ATOM     15  C   UNL     1      47.099   7.687  12.822  0.00  0.00    +0.000 A 
ATOM     16  C   UNL     1      48.060   7.337  13.779  0.00  0.00    +0.000 A 
ATOM     17  C   UNL     1      48.010   6.099  14.409  0.00  0.00    +0.000 A 
ATOM     18  C   UNL     1      46.995   5.197  14.090  0.00  0.00    +0.000 A 
ATOM     19  C   UNL     1      46.008   5.495  13.138  0.00  0.00    +0.000 A 
ATOM     20  C   UNL     1      46.092   6.751  12.510  0.00  0.00    +0.000 A 
BRANCH  19  21
ATOM     21  N   UNL     1      45.005   4.593  12.849  0.00  0.00    +0.000 N 
ATOM     22  C   UNL     1      45.239   3.280  12.231  0.00  0.00    +0.000 C 
ATOM     23  C   UNL     1      44.420   3.154  10.938  0.00  0.00    +0.000 C 
ATOM     24  O   UNL     1      43.022   3.391  11.180  0.00  0.00    +0.000 OA
ATOM     25  C   UNL     1      42.828   4.714  11.707  0.00  0.00    +0.000 C 
ATOM     26  C   UNL     1      43.582   4.921  13.033  0.00  0.00    +0.000 C 
ENDBRANCH  19  21
ENDBRANCH  14  15
ENDBRANCH   5  14
TORSDOF 4
ENDMDL
MODEL 9
REMARK VINA RESULT:    -6.240      2.451      7.552
REMARK INTER + INTRA:          -8.415
REMARK INTER:                  -7.885
REMARK INTRA:                  -0.530
REMARK UNBOUND:                -0.716
REMARK  Name = 
REMARK  4 active torsions:
REMARK  status: ('A' for Active; 'I' for Inactive)
REMARK    1  A    between atoms: C_2  and  C_4
REMARK    2  A    between atoms: N_8  and  C_9
REMARK    3  A    between atoms: C_9  and  C_10
REMARK    4  A    between atoms: C_14  and  N_15
REMARK                            x       y       z     vdW  Elec       q    Type
REMARK                         _______ _______ _______ _____ _____    ______ ____
ROOT
ATOM      1  C   UNL     1      50.127   7.266  15.098  0.00  0.00    +0.000 A 
ATOM      2  C   UNL     1      48.971   6.637  15.544  0.00  0.00    +0.000 A 
ATOM      3  C   UNL     1      47.906   6.466  14.660  0.00  0.00    +0.000 A 
ATOM      4  C   UNL     1      48.005   6.937  13.355  0.00  0.00    +0.000 A 
ATOM      5  N   UNL     1      47.050   6.725  12.392  0.00  0.00    +0.000 N 
ATOM      6  N   UNL     1      49.109   7.583  12.926  0.00  0.00    +0.000 NA
ATOM      7  C   UNL     1      50.139   7.743  13.798  0.00  0.00    +0.000 A 
ATOM      8  H   UNL     1      47.288   7.221  11.540  0.00  0.00    +0.000 HD
ENDROOT
BRANCH   1  10
ATOM      9  N   UNL     1      52.531   7.101  15.381  0.00  0.00    +0.000 N 
ATOM     10  C   UNL     1      51.326   7.426  15.943  0.00  0.00    +0.000 C 
ATOM     11  O   UNL     1      51.253   7.874  17.080  0.00  0.00    +0.000 OA
ATOM     12  H   UNL     1      53.356   7.327  15.923  0.00  0.00    +0.000 HD
ATOM     13  H   UNL     1      52.650   6.989  14.384  0.00  0.00    +0.000 HD
ENDBRANCH   1  10
BRANCH   5  14
ATOM     14  C   UNL     1      45.639   6.557  12.664  0.00  0.00    +0.000 C 
BRANCH  14  15
ATOM     15  C   UNL     1      45.020   5.285  12.128  0.00  0.00    +0.000 A 
ATOM     16  C   UNL     1      44.144   4.588  12.971  0.00  0.00    +0.000 A 
ATOM     17  C   UNL     1      43.535   3.415  12.541  0.00  0.00    +0.000 A 
ATOM     18  C   UNL     1      43.791   2.928  11.260  0.00  0.00    +0.000 A 
ATOM     19  C   UNL     1      44.660   3.585  10.374  0.00  0.00    +0.000 A 
ATOM     20  C   UNL     1      45.270   4.762  10.843  0.00  0.00    +0.000 A 
BRANCH  19  21
ATOM     21  N   UNL     1      44.887   3.092   9.106  0.00  0.00    +0.000 N 
ATOM     22  C   UNL     1      45.051   1.663   8.801  0.00  0.00    +0.000 C 
ATOM     23  C   UNL     1      46.399   1.426   8.103  0.00  0.00    +0.000 C 
ATOM     24  O   UNL     1      46.528   2.244   6.926  0.00  0.00    +0.000 OA
ATOM     25  C   UNL     1      46.443   3.635   7.278  0.00  0.00    +0.000 C 
ATOM     26  C   UNL     1      45.101   3.977   7.950  0.00  0.00    +0.000 C 
ENDBRANCH  19  21
ENDBRANCH  14  15
ENDBRANCH   5  14
TORSDOF 4
ENDMDL
