MODEL 1
REMARK VINA RESULT:    -7.725      0.000      0.000
REMARK INTER + INTRA:         -10.368
REMARK INTER:                  -9.757
REMARK INTRA:                  -0.611
REMARK UNBOUND:                -0.611
REMARK  Name = 
REMARK  5 active torsions:
REMARK  status: ('A' for Active; 'I' for Inactive)
REMARK    1  A    between atoms: N_1  and  C_2
REMARK    2  A    between atoms: C_2  and  C_3
REMARK    3  A    between atoms: C_3  and  C_4
REMARK    4  A    between atoms: C_7  and  C_8
REMARK    5  A    between atoms: C_8  and  N_9
REMARK                            x       y       z     vdW  Elec       q    Type
REMARK                         _______ _______ _______ _____ _____    ______ ____
ROOT
ATOM      1  C   UNL     1      45.822   2.636   8.316  0.00  0.00    +0.000 A 
ATOM      2  C   UNL     1      44.948   2.060   9.247  0.00  0.00    +0.000 A 
ATOM      3  C   UNL     1      44.186   2.869  10.096  0.00  0.00    +0.000 A 
ATOM      4  C   UNL     1      44.281   4.266  10.030  0.00  0.00    +0.000 A 
ATOM      5  C   UNL     1      45.156   4.841   9.104  0.00  0.00    +0.000 A 
ATOM      6  C   UNL     1      45.911   4.032   8.248  0.00  0.00    +0.000 A 
ENDROOT
BRANCH   1   7
ATOM      7  C   UNL     1      46.658   1.769   7.404  0.00  0.00    +0.000 C 
BRANCH   7   8
ATOM      8  C   UNL     1      47.900   2.491   6.872  0.00  0.00    +0.000 C 
BRANCH   8   9
ATOM      9  N   UNL     1      48.468   1.784   5.723  0.00  0.00    +0.000 NA
ATOM     10  H   UNL     1      47.738   1.236   5.269  0.00  0.00    +0.000 HD
ATOM     11  H   UNL     1      49.168   1.115   6.043  0.00  0.00    +0.000 HD
ENDBRANCH   8   9
ENDBRANCH   7   8
ENDBRANCH   1   7
BRANCH   4  12
ATOM     12  C   UNL     1      43.453   5.142  10.947  0.00  0.00    +0.000 C 
BRANCH  12  13
ATOM     13  N   UNL     1      44.242   6.167  11.624  0.00  0.00    +0.000 N 
ATOM     14  C   UNL     1      44.322   7.471  11.202  0.00  0.00    +0.000 A 
ATOM     15  C   UNL     1      45.213   8.122  12.011  0.00  0.00    +0.000 A 
ATOM     16  C   UNL     1      45.955   7.124  12.686  0.00  0.00    +0.000 A 
ATOM     17  C   UNL     1      47.180   7.122  13.376  0.00  0.00    +0.000 A 
ATOM     18  C   UNL     1      47.636   5.939  13.958  0.00  0.00    +0.000 A 
ATOM     19  C   UNL     1      46.827   4.806  13.955  0.00  0.00    +0.000 A 
ATOM     20 CL   UNL     1      47.360   3.391  14.785  0.00  0.00    +0.000 Cl
ATOM     21  C   UNL     1      45.604   4.776  13.274  0.00  0.00    +0.000 A 
ATOM     22  C   UNL     1      45.236   5.917  12.562  0.00  0.00    +0.000 A 
ENDBRANCH  12  13
ENDBRANCH   4  12
TORSDOF 5
ENDMDL
MODEL 2
REMARK VINA RESULT:    -7.160      1.965      2.818
REMARK INTER + INTRA:          -9.654
REMARK INTER:                  -9.058
REMARK INTRA:                  -0.596
REMARK UNBOUND:                -0.611
REMARK  Name = 
REMARK  5 active torsions:
REMARK  status: ('A' for Active; 'I' for Inactive)
REMARK    1  A    between atoms: N_1  and  C_2
REMARK    2  A    between atoms: C_2  and  C_3
REMARK    3  A    between atoms: C_3  and  C_4
REMARK    4  A    between atoms: C_7  and  C_8
REMARK    5  A    between atoms: C_8  and  N_9
REMARK                            x       y       z     vdW  Elec       q    Type
REMARK                         _______ _______ _______ _____ _____    ______ ____
ROOT
ATOM      1  C   UNL     1      45.917   3.080   7.737  0.00  0.00    +0.000 A 
ATOM      2  C   UNL     1      46.212   4.442   7.875  0.00  0.00    +0.000 A 
ATOM      3  C   UNL     1      45.844   5.132   9.034  0.00  0.00    +0.000 A 
ATOM      4  C   UNL     1      45.176   4.474  10.078  0.00  0.00    +0.000 A 
ATOM      5  C   UNL     1      44.877   3.116   9.938  0.00  0.00    +0.000 A 
ATOM      6  C   UNL     1      45.255   2.423   8.782  0.00  0.00    +0.000 A 
ENDROOT
BRANCH   1   7
ATOM      7  C   UNL     1      46.300   2.330   6.483  0.00  0.00    +0.000 C 
BRANCH   7   8
ATOM      8  C   UNL     1      47.553   1.468   6.664  0.00  0.00    +0.000 C 
BRANCH   8   9
ATOM      9  N   UNL     1      48.603   1.860   5.722  0.00  0.00    +0.000 NA
ATOM     10  H   UNL     1      49.057   1.025   5.355  0.00  0.00    +0.000 HD
ATOM     11  H   UNL     1      49.326   2.386   6.212  0.00  0.00    +0.000 HD
ENDBRANCH   8   9
ENDBRANCH   7   8
ENDBRANCH   1   7
BRANCH   4  12
ATOM     12  C   UNL     1      44.779   5.220  11.335  0.00  0.00    +0.000 C 
BRANCH  12  13
ATOM     13  N   UNL     1      45.780   5.126  12.393  0.00  0.00    +0.000 N 
ATOM     14  C   UNL     1      45.638   4.340  13.511  0.00  0.00    +0.000 A 
ATOM     15  C   UNL     1      46.714   4.565  14.324  0.00  0.00    +0.000 A 
ATOM     16  C   UNL     1      47.320   5.763  13.876  0.00  0.00    +0.000 A 
ATOM     17  C   UNL     1      48.225   6.670  14.455  0.00  0.00    +0.000 A 
ATOM     18  C   UNL     1      48.651   7.776  13.719  0.00  0.00    +0.000 A 
ATOM     19  C   UNL     1      48.273   7.909  12.385  0.00  0.00    +0.000 A 
ATOM     20 CL   UNL     1      48.909   9.219  11.460  0.00  0.00    +0.000 Cl
ATOM     21  C   UNL     1      47.372   7.025  11.782  0.00  0.00    +0.000 A 
ATOM     22  C   UNL     1      46.831   6.015  12.578  0.00  0.00    +0.000 A 
ENDBRANCH  12  13
ENDBRANCH   4  12
TORSDOF 5
ENDMDL
MODEL 3
REMARK VINA RESULT:    -7.050      2.201      2.992
REMARK INTER + INTRA:          -9.515
REMARK INTER:                  -9.039
REMARK INTRA:                  -0.476
REMARK UNBOUND:                -0.611
REMARK  Name = 
REMARK  5 active torsions:
REMARK  status: ('A' for Active; 'I' for Inactive)
REMARK    1  A    between atoms: N_1  and  C_2
REMARK    2  A    between atoms: C_2  and  C_3
REMARK    3  A    between atoms: C_3  and  C_4
REMARK    4  A    between atoms: C_7  and  C_8
REMARK    5  A    between atoms: C_8  and  N_9
REMARK                            x       y       z     vdW  Elec       q    Type
REMARK                         _______ _______ _______ _____ _____    ______ ____
ROOT
ATOM      1  C   UNL     1      45.818   2.898   7.775  0.00  0.00    +0.000 A 
ATOM      2  C   UNL     1      45.222   2.092   8.755  0.00  0.00    +0.000 A 
ATOM      3  C   UNL     1      44.780   2.650   9.957  0.00  0.00    +0.000 A 
ATOM      4  C   UNL     1      44.922   4.024  10.205  0.00  0.00    +0.000 A 
ATOM      5  C   UNL     1      45.520   4.827   9.231  0.00  0.00    +0.000 A 
ATOM      6  C   UNL     1      45.954   4.270   8.023  0.00  0.00    +0.000 A 
ENDROOT
BRANCH   1   7
ATOM      7  C   UNL     1      46.310   2.300   6.479  0.00  0.00    +0.000 C 
BRANCH   7   8
ATOM      8  C   UNL     1      47.586   1.470   6.653  0.00  0.00    +0.000 C 
BRANCH   8   9
ATOM      9  N   UNL     1      48.597   1.846   5.663  0.00  0.00    +0.000 NA
ATOM     10  H   UNL     1      48.780   2.846   5.729  0.00  0.00    +0.000 HD
ATOM     11  H   UNL     1      48.235   1.684   4.723  0.00  0.00    +0.000 HD
ENDBRANCH   8   9
ENDBRANCH   7   8
ENDBRANCH   1   7
BRANCH   4  12
ATOM     12  C   UNL     1      44.440   4.629  11.507  0.00  0.00    +0.000 C 
BRANCH  12  13
ATOM     13  N   UNL     1      45.397   5.565  12.090  0.00  0.00    +0.000 N 
ATOM     14  C   UNL     1      46.288   5.228  13.079  0.00  0.00    +0.000 A 
ATOM     15  C   UNL     1      46.960   6.361  13.445  0.00  0.00    +0.000 A 
ATOM     16  C   UNL     1      46.217   7.456  12.943  0.00  0.00    +0.000 A 
ATOM     17  C   UNL     1      46.191   8.830  13.238  0.00  0.00    +0.000 A 
ATOM     18  C   UNL     1      45.328   9.666  12.529  0.00  0.00    +0.000 A 
ATOM     19  C   UNL     1      44.590   9.159  11.462  0.00  0.00    +0.000 A 
ATOM     20 CL   UNL     1      43.622  10.235  10.524  0.00  0.00    +0.000 Cl
ATOM     21  C   UNL     1      44.593   7.796  11.146  0.00  0.00    +0.000 A 
ATOM     22  C   UNL     1      45.338   6.947  11.966  0.00  0.00    +0.000 A 
ENDBRANCH  12  13
ENDBRANCH   4  12
TORSDOF 5
ENDMDL
MODEL 4
REMARK VINA RESULT:    -6.444      1.329      1.712
REMARK INTER + INTRA:          -8.750
REMARK INTER:                  -8.502
REMARK INTRA:                  -0.248
REMARK UNBOUND:                -0.611
REMARK  Name = 
REMARK  5 active torsions:
REMARK  status: ('A' for Active; 'I' for Inactive)
REMARK    1  A    between atoms: N_1  and  C_2
REMARK    2  A    between atoms: C_2  and  C_3
REMARK    3  A    between atoms: C_3  and  C_4
REMARK    4  A    between atoms: C_7  and  C_8
REMARK    5  A    between atoms: C_8  and  N_9
REMARK                            x       y       z     vdW  Elec       q    Type
REMARK                         _______ _______ _______ _____ _____    ______ ____
ROOT
ATOM      1  C   UNL     1      45.801   3.279   7.918  0.00  0.00    +0.000 A 
ATOM      2  C   UNL     1      45.116   2.456   8.820  0.00  0.00    +0.000 A 
ATOM      3  C   UNL     1      44.694   2.957  10.055  0.00  0.00    +0.000 A 
ATOM      4  C   UNL     1      44.947   4.289  10.413  0.00  0.00    +0.000 A 
ATOM      5  C   UNL     1      45.635   5.110   9.515  0.00  0.00    +0.000 A 
ATOM      6  C   UNL     1      46.048   4.611   8.274  0.00  0.00    +0.000 A 
ENDROOT
BRANCH   1   7
ATOM      7  C   UNL     1      46.272   2.742   6.587  0.00  0.00    +0.000 C 
BRANCH   7   8
ATOM      8  C   UNL     1      47.320   1.634   6.730  0.00  0.00    +0.000 C 
BRANCH   8   9
ATOM      9  N   UNL     1      48.429   1.836   5.795  0.00  0.00    +0.000 NA
ATOM     10  H   UNL     1      49.309   1.836   6.309  0.00  0.00    +0.000 HD
ATOM     11  H   UNL     1      48.351   2.756   5.363  0.00  0.00    +0.000 HD
ENDBRANCH   8   9
ENDBRANCH   7   8
ENDBRANCH   1   7
BRANCH   4  12
ATOM     12  C   UNL     1      44.487   4.833  11.749  0.00  0.00    +0.000 C 
BRANCH  12  13
ATOM     13  N   UNL     1      44.589   6.287  11.839  0.00  0.00    +0.000 N 
ATOM     14  C   UNL     1      43.795   7.153  11.129  0.00  0.00    +0.000 A 
ATOM     15  C   UNL     1      44.222   8.426  11.388  0.00  0.00    +0.000 A 
ATOM     16  C   UNL     1      45.512   8.314  11.961  0.00  0.00    +0.000 A 
ATOM     17  C   UNL     1      46.577   9.214  12.142  0.00  0.00    +0.000 A 
ATOM     18  C   UNL     1      47.741   8.778  12.776  0.00  0.00    +0.000 A 
ATOM     19  C   UNL     1      47.795   7.500  13.326  0.00  0.00    +0.000 A 
ATOM     20 CL   UNL     1      49.198   7.025  14.210  0.00  0.00    +0.000 Cl
ATOM     21  C   UNL     1      46.753   6.580  13.160  0.00  0.00    +0.000 A 
ATOM     22  C   UNL     1      45.662   6.978  12.386  0.00  0.00    +0.000 A 
ENDBRANCH  12  13
ENDBRANCH   4  12
TORSDOF 5
ENDMDL
MODEL 5
REMARK VINA RESULT:    -6.191      2.715      6.443
REMARK INTER + INTRA:          -8.430
REMARK INTER:                  -8.185
REMARK INTRA:                  -0.245
REMARK UNBOUND:                -0.611
REMARK  Name = 
REMARK  5 active torsions:
REMARK  status: ('A' for Active; 'I' for Inactive)
REMARK    1  A    between atoms: N_1  and  C_2
REMARK    2  A    between atoms: C_2  and  C_3
REMARK    3  A    between atoms: C_3  and  C_4
REMARK    4  A    between atoms: C_7  and  C_8
REMARK    5  A    between atoms: C_8  and  N_9
REMARK                            x       y       z     vdW  Elec       q    Type
REMARK                         _______ _______ _______ _____ _____    ______ ____
ROOT
ATOM      1  C   UNL     1      48.035   6.657  13.767  0.00  0.00    +0.000 A 
ATOM      2  C   UNL     1      47.844   7.581  12.731  0.00  0.00    +0.000 A 
ATOM      3  C   UNL     1      46.729   7.482  11.893  0.00  0.00    +0.000 A 
ATOM      4  C   UNL     1      45.784   6.462  12.073  0.00  0.00    +0.000 A 
ATOM      5  C   UNL     1      45.977   5.538  13.104  0.00  0.00    +0.000 A 
ATOM      6  C   UNL     1      47.087   5.642  13.950  0.00  0.00    +0.000 A 
ENDROOT
BRANCH   1   7
ATOM      7  C   UNL     1      49.243   6.749  14.669  0.00  0.00    +0.000 C 
BRANCH   7   8
ATOM      8  C   UNL     1      48.917   6.437  16.133  0.00  0.00    +0.000 C 
BRANCH   8   9
ATOM      9  N   UNL     1      49.666   5.270  16.602  0.00  0.00    +0.000 NA
ATOM     10  H   UNL     1      49.498   5.138  17.598  0.00  0.00    +0.000 HD
ATOM     11  H   UNL     1      50.666   5.441  16.502  0.00  0.00    +0.000 HD
ENDBRANCH   8   9
ENDBRANCH   7   8
ENDBRANCH   1   7
BRANCH   4  12
ATOM     12  C   UNL     1      44.575   6.358  11.167  0.00  0.00    +0.000 C 
BRANCH  12  13
ATOM     13  N   UNL     1      44.180   4.978  10.899  0.00  0.00    +0.000 N 
ATOM     14  C   UNL     1      43.560   4.169  11.819  0.00  0.00    +0.000 A 
ATOM     15  C   UNL     1      43.421   2.928  11.263  0.00  0.00    +0.000 A 
ATOM     16  C   UNL     1      44.292   2.880  10.148  0.00  0.00    +0.000 A 
ATOM     17  C   UNL     1      44.839   1.834   9.385  0.00  0.00    +0.000 A 
ATOM     18  C   UNL     1      45.675   2.135   8.310  0.00  0.00    +0.000 A 
ATOM     19  C   UNL     1      45.865   3.461   7.929  0.00  0.00    +0.000 A 
ATOM     20 CL   UNL     1      46.805   3.804   6.523  0.00  0.00    +0.000 Cl
ATOM     21  C   UNL     1      45.337   4.525   8.670  0.00  0.00    +0.000 A 
ATOM     22  C   UNL     1      44.636   4.211   9.835  0.00  0.00    +0.000 A 
ENDBRANCH  12  13
ENDBRANCH   4  12
TORSDOF 5
ENDMDL
MODEL 6
REMARK VINA RESULT:    -5.477      2.898      6.899
REMARK INTER + INTRA:          -7.528
REMARK INTER:                  -7.018
REMARK INTRA:                  -0.510
REMARK UNBOUND:                -0.611
REMARK  Name = 
REMARK  5 active torsions:
REMARK  status: ('A' for Active; 'I' for Inactive)
REMARK    1  A    between atoms: N_1  and  C_2
REMARK    2  A    between atoms: C_2  and  C_3
REMARK    3  A    between atoms: C_3  and  C_4
REMARK    4  A    between atoms: C_7  and  C_8
REMARK    5  A    between atoms: C_8  and  N_9
REMARK                            x       y       z     vdW  Elec       q    Type
REMARK                         _______ _______ _______ _____ _____    ______ ____
ROOT
ATOM      1  C   UNL     1      48.537   7.774  14.818  0.00  0.00    +0.000 A 
ATOM      2  C   UNL     1      48.581   6.607  14.045  0.00  0.00    +0.000 A 
ATOM      3  C   UNL     1      47.722   6.447  12.954  0.00  0.00    +0.000 A 
ATOM      4  C   UNL     1      46.803   7.450  12.613  0.00  0.00    +0.000 A 
ATOM      5  C   UNL     1      46.755   8.613  13.386  0.00  0.00    +0.000 A 
ATOM      6  C   UNL     1      47.622   8.777  14.472  0.00  0.00    +0.000 A 
ENDROOT
BRANCH   1   7
ATOM      7  C   UNL     1      49.453   7.950  16.006  0.00  0.00    +0.000 C 
BRANCH   7   8
ATOM      8  C   UNL     1      49.015   7.126  17.221  0.00  0.00    +0.000 C 
BRANCH   8   9
ATOM      9  N   UNL     1      47.915   7.780  17.931  0.00  0.00    +0.000 NA
ATOM     10  H   UNL     1      47.776   7.326  18.833  0.00  0.00    +0.000 HD
ATOM     11  H   UNL     1      47.046   7.654  17.411  0.00  0.00    +0.000 HD
ENDBRANCH   8   9
ENDBRANCH   7   8
ENDBRANCH   1   7
BRANCH   4  12
ATOM     12  C   UNL     1      45.874   7.278  11.429  0.00  0.00    +0.000 C 
BRANCH  12  13
ATOM     13  N   UNL     1      44.947   6.162  11.588  0.00  0.00    +0.000 N 
ATOM     14  C   UNL     1      44.322   5.851  12.770  0.00  0.00    +0.000 A 
ATOM     15  C   UNL     1      43.604   4.704  12.579  0.00  0.00    +0.000 A 
ATOM     16  C   UNL     1      44.091   4.112  11.388  0.00  0.00    +0.000 A 
ATOM     17  C   UNL     1      44.006   2.820  10.840  0.00  0.00    +0.000 A 
ATOM     18  C   UNL     1      44.600   2.562   9.604  0.00  0.00    +0.000 A 
ATOM     19  C   UNL     1      45.163   3.604   8.872  0.00  0.00    +0.000 A 
ATOM     20 CL   UNL     1      45.783   3.284   7.294  0.00  0.00    +0.000 Cl
ATOM     21  C   UNL     1      45.264   4.899   9.392  0.00  0.00    +0.000 A 
ATOM     22  C   UNL     1      44.810   5.106  10.695  0.00  0.00    +0.000 A 
ENDBRANCH  12  13
ENDBRANCH   4  12
TORSDOF 5
ENDMDL
MODEL 7
REMARK VINA RESULT:    -5.306      3.212      5.219
REMARK INTER + INTRA:          -7.313
REMARK INTER:                  -6.750
REMARK INTRA:                  -0.563
REMARK UNBOUND:                -0.611
REMARK  Name = 
REMARK  5 active torsions:
REMARK  status: ('A' for Active; 'I' for Inactive)
REMARK    1  A    between atoms: N_1  and  C_2
REMARK    2  A    between atoms: C_2  and  C_3
REMARK    3  A    between atoms: C_3  and  C_4
REMARK    4  A    between atoms: C_7  and  C_8
REMARK    5  A    between atoms: C_8  and  N_9
REMARK                            x       y       z     vdW  Elec       q    Type
REMARK                         _______ _______ _______ _____ _____    ______ ____
ROOT
ATOM      1  C   UNL     1      44.968   5.062  11.847  0.00  0.00    +0.000 A 
ATOM      2  C   UNL     1      45.584   6.150  11.216  0.00  0.00    +0.000 A 
ATOM      3  C   UNL     1      46.777   6.678  11.721  0.00  0.00    +0.000 A 
ATOM      4  C   UNL     1      47.377   6.130  12.864  0.00  0.00    +0.000 A 
ATOM      5  C   UNL     1      46.759   5.047  13.497  0.00  0.00    +0.000 A 
ATOM      6  C   UNL     1      45.571   4.512  12.986  0.00  0.00    +0.000 A 
ENDROOT
BRANCH   1   7
ATOM      7  C   UNL     1      43.673   4.493  11.316  0.00  0.00    +0.000 C 
BRANCH   7   8
ATOM      8  C   UNL     1      43.814   3.048  10.829  0.00  0.00    +0.000 C 
BRANCH   8   9
ATOM      9  N   UNL     1      43.050   2.131  11.675  0.00  0.00    +0.000 NA
ATOM     10  H   UNL     1      43.293   1.169  11.438  0.00  0.00    +0.000 HD
ATOM     11  H   UNL     1      42.054   2.229  11.478  0.00  0.00    +0.000 HD
ENDBRANCH   8   9
ENDBRANCH   7   8
ENDBRANCH   1   7
BRANCH   4  12
ATOM     12  C   UNL     1      48.669   6.700  13.409  0.00  0.00    +0.000 C 
BRANCH  12  13
ATOM     13  N   UNL     1      48.489   7.430  14.659  0.00  0.00    +0.000 N 
ATOM     14  C   UNL     1      48.363   8.796  14.734  0.00  0.00    +0.000 A 
ATOM     15  C   UNL     1      48.302   9.141  16.056  0.00  0.00    +0.000 A 
ATOM     16  C   UNL     1      48.766   8.025  16.791  0.00  0.00    +0.000 A 
ATOM     17  C   UNL     1      49.237   7.853  18.105  0.00  0.00    +0.000 A 
ATOM     18  C   UNL     1      49.613   6.581  18.537  0.00  0.00    +0.000 A 
ATOM     19  C   UNL     1      49.409   5.479  17.710  0.00  0.00    +0.000 A 
ATOM     20 CL   UNL     1      49.769   3.902  18.310  0.00  0.00    +0.000 Cl
ATOM     21  C   UNL     1      48.945   5.618  16.397  0.00  0.00    +0.000 A 
ATOM     22  C   UNL     1      48.725   6.912  15.927  0.00  0.00    +0.000 A 
ENDBRANCH  12  13
ENDBRANCH   4  12
TORSDOF 5
ENDMDL
MODEL 8
REMARK VINA RESULT:    -5.157      3.857      5.962
REMARK INTER + INTRA:          -7.125
REMARK INTER:                  -6.442
REMARK INTRA:                  -0.683
REMARK UNBOUND:                -0.611
REMARK  Name = 
REMARK  5 active torsions:
REMARK  status: ('A' for Active; 'I' for Inactive)
REMARK    1  A    between atoms: N_1  and  C_2
REMARK    2  A    between atoms: C_2  and  C_3
REMARK    3  A    between atoms: C_3  and  C_4
REMARK    4  A    between atoms: C_7  and  C_8
REMARK    5  A    between atoms: C_8  and  N_9
REMARK                            x       y       z     vdW  Elec       q    Type
REMARK                         _______ _______ _______ _____ _____    ______ ____
ROOT
ATOM      1  C   UNL     1      45.089   6.692  12.091  0.00  0.00    +0.000 A 
ATOM      2  C   UNL     1      45.957   5.593  12.116  0.00  0.00    +0.000 A 
ATOM      3  C   UNL     1      47.213   5.697  12.722  0.00  0.00    +0.000 A 
ATOM      4  C   UNL     1      47.625   6.899  13.315  0.00  0.00    +0.000 A 
ATOM      5  C   UNL     1      46.762   7.997  13.286  0.00  0.00    +0.000 A 
ATOM      6  C   UNL     1      45.501   7.890  12.688  0.00  0.00    +0.000 A 
ENDROOT
BRANCH   1   7
ATOM      7  C   UNL     1      43.736   6.592  11.427  0.00  0.00    +0.000 C 
BRANCH   7   8
ATOM      8  C   UNL     1      42.941   5.363  11.880  0.00  0.00    +0.000 C 
BRANCH   8   9
ATOM      9  N   UNL     1      42.646   5.427  13.312  0.00  0.00    +0.000 NA
ATOM     10  H   UNL     1      41.672   5.698  13.445  0.00  0.00    +0.000 HD
ATOM     11  H   UNL     1      43.207   6.160  13.747  0.00  0.00    +0.000 HD
ENDBRANCH   8   9
ENDBRANCH   7   8
ENDBRANCH   1   7
BRANCH   4  12
ATOM     12  C   UNL     1      48.984   7.011  13.974  0.00  0.00    +0.000 C 
BRANCH  12  13
ATOM     13  N   UNL     1      48.904   7.310  15.401  0.00  0.00    +0.000 N 
ATOM     14  C   UNL     1      49.448   8.430  15.978  0.00  0.00    +0.000 A 
ATOM     15  C   UNL     1      49.264   8.340  17.330  0.00  0.00    +0.000 A 
ATOM     16  C   UNL     1      48.940   6.991  17.608  0.00  0.00    +0.000 A 
ATOM     17  C   UNL     1      48.951   6.209  18.777  0.00  0.00    +0.000 A 
ATOM     18  C   UNL     1      48.547   4.876  18.713  0.00  0.00    +0.000 A 
ATOM     19  C   UNL     1      48.025   4.365  17.527  0.00  0.00    +0.000 A 
ATOM     20 CL   UNL     1      47.419   2.750  17.504  0.00  0.00    +0.000 Cl
ATOM     21  C   UNL     1      48.003   5.117  16.347  0.00  0.00    +0.000 A 
ATOM     22  C   UNL     1      48.559   6.396  16.389  0.00  0.00    +0.000 A 
ENDBRANCH  12  13
ENDBRANCH   4  12
TORSDOF 5
ENDMDL
MODEL 9
REMARK VINA RESULT:    -5.005      3.710      5.646
REMARK INTER + INTRA:          -6.933
REMARK INTER:                  -6.364
REMARK INTRA:                  -0.569
REMARK UNBOUND:                -0.611
REMARK  Name = 
REMARK  5 active torsions:
REMARK  status: ('A' for Active; 'I' for Inactive)
REMARK    1  A    between atoms: N_1  and  C_2
REMARK    2  A    between atoms: C_2  and  C_3
REMARK    3  A    between atoms: C_3  and  C_4
REMARK    4  A    between atoms: C_7  and  C_8
REMARK    5  A    between atoms: C_8  and  N_9
REMARK                            x       y       z     vdW  Elec       q    Type
REMARK                         _______ _______ _______ _____ _____    ______ ____
ROOT
ATOM      1  C   UNL     1      45.671   4.650  12.225  0.00  0.00    +0.000 A 
ATOM      2  C   UNL     1      45.385   5.555  11.195  0.00  0.00    +0.000 A 
ATOM      3  C   UNL     1      45.886   6.860  11.240  0.00  0.00    +0.000 A 
ATOM      4  C   UNL     1      46.681   7.286  12.314  0.00  0.00    +0.000 A 
ATOM      5  C   UNL     1      46.962   6.384  13.345  0.00  0.00    +0.000 A 
ATOM      6  C   UNL     1      46.469   5.075  13.294  0.00  0.00    +0.000 A 
ENDROOT
BRANCH   1   7
ATOM      7  C   UNL     1      45.123   3.243  12.190  0.00  0.00    +0.000 C 
BRANCH   7   8
ATOM      8  C   UNL     1      43.600   3.193  12.340  0.00  0.00    +0.000 C 
BRANCH   8   9
ATOM      9  N   UNL     1      43.045   2.009  11.682  0.00  0.00    +0.000 NA
ATOM     10  H   UNL     1      43.151   1.201  12.294  0.00  0.00    +0.000 HD
ATOM     11  H   UNL     1      43.580   1.801  10.839  0.00  0.00    +0.000 HD
ENDBRANCH   8   9
ENDBRANCH   7   8
ENDBRANCH   1   7
BRANCH   4  12
ATOM     12  C   UNL     1      47.226   8.698  12.362  0.00  0.00    +0.000 C 
BRANCH  12  13
ATOM     13  N   UNL     1      48.480   8.801  13.102  0.00  0.00    +0.000 N 
ATOM     14  C   UNL     1      48.619   9.499  14.276  0.00  0.00    +0.000 A 
ATOM     15  C   UNL     1      49.937   9.458  14.638  0.00  0.00    +0.000 A 
ATOM     16  C   UNL     1      50.662   9.054  13.492  0.00  0.00    +0.000 A 
ATOM     17  C   UNL     1      52.016   9.128  13.121  0.00  0.00    +0.000 A 
ATOM     18  C   UNL     1      52.419   8.606  11.891  0.00  0.00    +0.000 A 
ATOM     19  C   UNL     1      51.507   7.915  11.098  0.00  0.00    +0.000 A 
ATOM     20 CL   UNL     1      52.055   7.176   9.639  0.00  0.00    +0.000 Cl
ATOM     21  C   UNL     1      50.152   7.827  11.438  0.00  0.00    +0.000 A 
ATOM     22  C   UNL     1      49.734   8.491  12.591  0.00  0.00    +0.000 A 
ENDBRANCH  12  13
ENDBRANCH   4  12
TORSDOF 5
ENDMDL
