MODEL 1
REMARK VINA RESULT:    -6.337      0.000      0.000
REMARK INTER + INTRA:          -8.642
REMARK INTER:                  -8.190
REMARK INTRA:                  -0.452
REMARK UNBOUND:                -0.452
REMARK  Name = 
REMARK  8 active torsions:
REMARK  status: ('A' for Active; 'I' for Inactive)
REMARK    1  A    between atoms: C_1  and  C_2
REMARK    2  A    between atoms: C_2  and  C_3
REMARK    3  A    between atoms: C_2  and  C_4
REMARK    4  A    between atoms: C_2  and  C_5
REMARK    5  A    between atoms: C_9  and  C_10
REMARK    6  A    between atoms: N_16  and  C_17
REMARK    7  A    between atoms: C_17  and  C_18
REMARK    8  A    between atoms: C_22  and  C_23
REMARK                            x       y       z     vdW  Elec       q    Type
REMARK                         _______ _______ _______ _____ _____    ______ ____
ROOT
ATOM      1  C   UNL     1      48.076   8.050  13.291  0.00  0.00    +0.000 A 
ATOM      2  N   UNL     1      48.323   7.756  14.559  0.00  0.00    +0.000 NA
ATOM      3  C   UNL     1      47.952   6.456  14.755  0.00  0.00    +0.000 A 
ATOM      4  C   UNL     1      48.007   5.683  15.929  0.00  0.00    +0.000 A 
ATOM      5  C   UNL     1      47.565   4.351  15.885  0.00  0.00    +0.000 A 
ATOM      6  C   UNL     1      47.100   3.814  14.674  0.00  0.00    +0.000 A 
ATOM      7  C   UNL     1      47.046   4.574  13.497  0.00  0.00    +0.000 A 
ATOM      8  C   UNL     1      47.466   5.907  13.578  0.00  0.00    +0.000 A 
ATOM      9  N   UNL     1      47.485   6.957  12.670  0.00  0.00    +0.000 N 
ENDROOT
BRANCH   5  10
ATOM     10  C   UNL     1      47.549   3.457  17.081  0.00  0.00    +0.000 C 
ATOM     11  N   UNL     1      48.705   3.267  17.786  0.00  0.00    +0.000 N 
ATOM     12  O   UNL     1      46.521   2.893  17.442  0.00  0.00    +0.000 OA
ATOM     13  H   UNL     1      49.601   3.667  17.557  0.00  0.00    +0.000 HD
ATOM     14  H   UNL     1      48.653   2.649  18.583  0.00  0.00    +0.000 HD
ENDBRANCH   5  10
BRANCH   1  16
ATOM     15  C   UNL     1      49.009  10.330  13.765  0.00  0.00    +0.000 C 
ATOM     16  C   UNL     1      48.410   9.408  12.671  0.00  0.00    +0.000 C 
ATOM     17  C   UNL     1      47.156  10.114  12.133  0.00  0.00    +0.000 C 
ATOM     18  C   UNL     1      49.484   9.285  11.574  0.00  0.00    +0.000 C 
ENDBRANCH   1  16
BRANCH   9  19
ATOM     19  C   UNL     1      46.990   6.846  11.304  0.00  0.00    +0.000 C 
BRANCH  19  20
ATOM     20  C   UNL     1      45.647   6.160  11.154  0.00  0.00    +0.000 A 
ATOM     21  C   UNL     1      44.474   6.636  11.759  0.00  0.00    +0.000 A 
ATOM     22  C   UNL     1      43.293   5.892  11.714  0.00  0.00    +0.000 A 
ATOM     23  C   UNL     1      43.261   4.660  11.062  0.00  0.00    +0.000 A 
ATOM     24  C   UNL     1      44.405   4.180  10.423  0.00  0.00    +0.000 A 
ATOM     25  C   UNL     1      45.590   4.928  10.470  0.00  0.00    +0.000 A 
BRANCH  24  26
ATOM     26  C   UNL     1      44.375   2.916   9.740  0.00  0.00    +0.000 C 
ATOM     27  N   UNL     1      44.355   1.902   9.183  0.00  0.00    +0.000 NA
ENDBRANCH  24  26
ENDBRANCH  19  20
ENDBRANCH   9  19
TORSDOF 5
ENDMDL
MODEL 2
REMARK VINA RESULT:    -6.276      3.046      7.300
REMARK INTER + INTRA:          -8.562
REMARK INTER:                  -7.759
REMARK INTRA:                  -0.802
REMARK UNBOUND:                -0.452
REMARK  Name = 
REMARK  8 active torsions:
REMARK  status: ('A' for Active; 'I' for Inactive)
REMARK    1  A    between atoms: C_1  and  C_2
REMARK    2  A    between atoms: C_2  and  C_3
REMARK    3  A    between atoms: C_2  and  C_4
REMARK    4  A    between atoms: C_2  and  C_5
REMARK    5  A    between atoms: C_9  and  C_10
REMARK    6  A    between atoms: N_16  and  C_17
REMARK    7  A    between atoms: C_17  and  C_18
REMARK    8  A    between atoms: C_22  and  C_23
REMARK                            x       y       z     vdW  Elec       q    Type
REMARK                         _______ _______ _______ _____ _____    ______ ____
ROOT
ATOM      1  C   UNL     1      47.740   4.749  16.079  0.00  0.00    +0.000 A 
ATOM      2  N   UNL     1      46.754   4.231  15.361  0.00  0.00    +0.000 NA
ATOM      3  C   UNL     1      46.700   4.924  14.185  0.00  0.00    +0.000 A 
ATOM      4  C   UNL     1      45.823   4.762  13.097  0.00  0.00    +0.000 A 
ATOM      5  C   UNL     1      45.964   5.603  11.982  0.00  0.00    +0.000 A 
ATOM      6  C   UNL     1      46.984   6.567  11.965  0.00  0.00    +0.000 A 
ATOM      7  C   UNL     1      47.867   6.733  13.040  0.00  0.00    +0.000 A 
ATOM      8  C   UNL     1      47.684   5.900  14.151  0.00  0.00    +0.000 A 
ATOM      9  N   UNL     1      48.294   5.824  15.396  0.00  0.00    +0.000 N 
ENDROOT
BRANCH   5  10
ATOM     10  C   UNL     1      45.064   5.537  10.792  0.00  0.00    +0.000 C 
ATOM     11  N   UNL     1      45.615   5.526   9.540  0.00  0.00    +0.000 N 
ATOM     12  O   UNL     1      43.844   5.491  10.917  0.00  0.00    +0.000 OA
ATOM     13  H   UNL     1      46.599   5.582   9.335  0.00  0.00    +0.000 HD
ATOM     14  H   UNL     1      44.971   5.488   8.763  0.00  0.00    +0.000 HD
ENDBRANCH   5  10
BRANCH   1  16
ATOM     15  C   UNL     1      47.496   2.810  17.653  0.00  0.00    +0.000 C 
ATOM     16  C   UNL     1      48.149   4.201  17.448  0.00  0.00    +0.000 C 
ATOM     17  C   UNL     1      47.653   5.098  18.593  0.00  0.00    +0.000 C 
ATOM     18  C   UNL     1      49.670   3.982  17.542  0.00  0.00    +0.000 C 
ENDBRANCH   1  16
BRANCH   9  19
ATOM     19  C   UNL     1      49.356   6.725  15.827  0.00  0.00    +0.000 C 
BRANCH  19  20
ATOM     20  C   UNL     1      48.899   8.100  16.270  0.00  0.00    +0.000 A 
ATOM     21  C   UNL     1      49.160   9.265  15.536  0.00  0.00    +0.000 A 
ATOM     22  C   UNL     1      48.849  10.524  16.055  0.00  0.00    +0.000 A 
ATOM     23  C   UNL     1      48.267  10.641  17.317  0.00  0.00    +0.000 A 
ATOM     24  C   UNL     1      47.965   9.495  18.053  0.00  0.00    +0.000 A 
ATOM     25  C   UNL     1      48.280   8.233  17.531  0.00  0.00    +0.000 A 
BRANCH  24  26
ATOM     26  C   UNL     1      47.355   9.609  19.349  0.00  0.00    +0.000 C 
ATOM     27  N   UNL     1      46.855   9.699  20.389  0.00  0.00    +0.000 NA
ENDBRANCH  24  26
ENDBRANCH  19  20
ENDBRANCH   9  19
TORSDOF 5
ENDMDL
MODEL 3
REMARK VINA RESULT:    -6.058      2.374      5.769
REMARK INTER + INTRA:          -8.281
REMARK INTER:                  -7.633
REMARK INTRA:                  -0.648
REMARK UNBOUND:                -0.452
REMARK  Name = 
REMARK  8 active torsions:
REMARK  status: ('A' for Active; 'I' for Inactive)
REMARK    1  A    between atoms: C_1  and  C_2
REMARK    2  A    between atoms: C_2  and  C_3
REMARK    3  A    between atoms: C_2  and  C_4
REMARK    4  A    between atoms: C_2  and  C_5
REMARK    5  A    between atoms: C_9  and  C_10
REMARK    6  A    between atoms: N_16  and  C_17
REMARK    7  A    between atoms: C_17  and  C_18
REMARK    8  A    between atoms: C_22  and  C_23
REMARK                            x       y       z     vdW  Elec       q    Type
REMARK                         _______ _______ _______ _____ _____    ______ ____
ROOT
ATOM      1  C   UNL     1      47.809   6.723  14.147  0.00  0.00    +0.000 A 
ATOM      2  N   UNL     1      47.273   5.513  14.220  0.00  0.00    +0.000 NA
ATOM      3  C   UNL     1      46.548   5.320  13.079  0.00  0.00    +0.000 A 
ATOM      4  C   UNL     1      45.788   4.204  12.686  0.00  0.00    +0.000 A 
ATOM      5  C   UNL     1      45.123   4.237  11.451  0.00  0.00    +0.000 A 
ATOM      6  C   UNL     1      45.246   5.367  10.626  0.00  0.00    +0.000 A 
ATOM      7  C   UNL     1      46.006   6.482  11.004  0.00  0.00    +0.000 A 
ATOM      8  C   UNL     1      46.634   6.433  12.255  0.00  0.00    +0.000 A 
ATOM      9  N   UNL     1      47.383   7.348  12.982  0.00  0.00    +0.000 N 
ENDROOT
BRANCH   5  10
ATOM     10  C   UNL     1      44.263   3.120  10.957  0.00  0.00    +0.000 C 
ATOM     11  N   UNL     1      44.749   2.282   9.992  0.00  0.00    +0.000 N 
ATOM     12  O   UNL     1      43.134   2.941  11.401  0.00  0.00    +0.000 OA
ATOM     13  H   UNL     1      45.651   2.361   9.551  0.00  0.00    +0.000 HD
ATOM     14  H   UNL     1      44.133   1.545   9.680  0.00  0.00    +0.000 HD
ENDBRANCH   5  10
BRANCH   1  16
ATOM     15  C   UNL     1      48.682   6.372  16.473  0.00  0.00    +0.000 C 
ATOM     16  C   UNL     1      48.740   7.287  15.223  0.00  0.00    +0.000 C 
ATOM     17  C   UNL     1      48.305   8.688  15.677  0.00  0.00    +0.000 C 
ATOM     18  C   UNL     1      50.208   7.292  14.758  0.00  0.00    +0.000 C 
ENDBRANCH   1  16
BRANCH   9  19
ATOM     19  C   UNL     1      47.669   8.700  12.520  0.00  0.00    +0.000 C 
BRANCH  19  20
ATOM     20  C   UNL     1      49.123   8.984  12.202  0.00  0.00    +0.000 A 
ATOM     21  C   UNL     1      49.753  10.195  12.521  0.00  0.00    +0.000 A 
ATOM     22  C   UNL     1      51.049  10.467  12.079  0.00  0.00    +0.000 A 
ATOM     23  C   UNL     1      51.742   9.531  11.312  0.00  0.00    +0.000 A 
ATOM     24  C   UNL     1      51.152   8.303  11.010  0.00  0.00    +0.000 A 
ATOM     25  C   UNL     1      49.849   8.034  11.453  0.00  0.00    +0.000 A 
BRANCH  24  26
ATOM     26  C   UNL     1      51.865   7.330  10.230  0.00  0.00    +0.000 C 
ATOM     27  N   UNL     1      52.447   6.551   9.602  0.00  0.00    +0.000 NA
ENDBRANCH  24  26
ENDBRANCH  19  20
ENDBRANCH   9  19
TORSDOF 5
ENDMDL
MODEL 4
REMARK VINA RESULT:    -6.031      3.207      7.380
REMARK INTER + INTRA:          -8.246
REMARK INTER:                  -7.522
REMARK INTRA:                  -0.724
REMARK UNBOUND:                -0.452
REMARK  Name = 
REMARK  8 active torsions:
REMARK  status: ('A' for Active; 'I' for Inactive)
REMARK    1  A    between atoms: C_1  and  C_2
REMARK    2  A    between atoms: C_2  and  C_3
REMARK    3  A    between atoms: C_2  and  C_4
REMARK    4  A    between atoms: C_2  and  C_5
REMARK    5  A    between atoms: C_9  and  C_10
REMARK    6  A    between atoms: N_16  and  C_17
REMARK    7  A    between atoms: C_17  and  C_18
REMARK    8  A    between atoms: C_22  and  C_23
REMARK                            x       y       z     vdW  Elec       q    Type
REMARK                         _______ _______ _______ _____ _____    ______ ____
ROOT
ATOM      1  C   UNL     1      47.736   4.568  16.024  0.00  0.00    +0.000 A 
ATOM      2  N   UNL     1      46.970   3.973  15.122  0.00  0.00    +0.000 NA
ATOM      3  C   UNL     1      46.841   4.833  14.068  0.00  0.00    +0.000 A 
ATOM      4  C   UNL     1      46.122   4.671  12.870  0.00  0.00    +0.000 A 
ATOM      5  C   UNL     1      46.140   5.707  11.923  0.00  0.00    +0.000 A 
ATOM      6  C   UNL     1      46.887   6.867  12.178  0.00  0.00    +0.000 A 
ATOM      7  C   UNL     1      47.612   7.038  13.365  0.00  0.00    +0.000 A 
ATOM      8  C   UNL     1      47.552   6.000  14.304  0.00  0.00    +0.000 A 
ATOM      9  N   UNL     1      48.060   5.845  15.587  0.00  0.00    +0.000 N 
ENDROOT
BRANCH   5  10
ATOM     10  C   UNL     1      45.383   5.649  10.636  0.00  0.00    +0.000 C 
ATOM     11  N   UNL     1      44.026   5.814  10.654  0.00  0.00    +0.000 N 
ATOM     12  O   UNL     1      45.955   5.458   9.568  0.00  0.00    +0.000 OA
ATOM     13  H   UNL     1      43.465   5.953  11.480  0.00  0.00    +0.000 HD
ATOM     14  H   UNL     1      43.551   5.760   9.765  0.00  0.00    +0.000 HD
ENDBRANCH   5  10
BRANCH   1  16
ATOM     15  C   UNL     1      47.178   2.731  17.640  0.00  0.00    +0.000 C 
ATOM     16  C   UNL     1      48.157   3.894  17.332  0.00  0.00    +0.000 C 
ATOM     17  C   UNL     1      48.083   4.863  18.523  0.00  0.00    +0.000 C 
ATOM     18  C   UNL     1      49.557   3.263  17.223  0.00  0.00    +0.000 C 
ENDBRANCH   1  16
BRANCH   9  19
ATOM     19  C   UNL     1      48.828   6.875  16.277  0.00  0.00    +0.000 C 
BRANCH  19  20
ATOM     20  C   UNL     1      50.315   6.880  15.986  0.00  0.00    +0.000 A 
ATOM     21  C   UNL     1      51.246   6.171  16.758  0.00  0.00    +0.000 A 
ATOM     22  C   UNL     1      52.618   6.323  16.543  0.00  0.00    +0.000 A 
ATOM     23  C   UNL     1      53.084   7.182  15.549  0.00  0.00    +0.000 A 
ATOM     24  C   UNL     1      52.177   7.872  14.743  0.00  0.00    +0.000 A 
ATOM     25  C   UNL     1      50.801   7.720  14.963  0.00  0.00    +0.000 A 
BRANCH  24  26
ATOM     26  C   UNL     1      52.651   8.750  13.709  0.00  0.00    +0.000 C 
ATOM     27  N   UNL     1      53.027   9.454  12.871  0.00  0.00    +0.000 NA
ENDBRANCH  24  26
ENDBRANCH  19  20
ENDBRANCH   9  19
TORSDOF 5
ENDMDL
MODEL 5
REMARK VINA RESULT:    -5.999      2.725      6.346
REMARK INTER + INTRA:          -8.204
REMARK INTER:                  -7.267
REMARK INTRA:                  -0.937
REMARK UNBOUND:                -0.452
REMARK  Name = 
REMARK  8 active torsions:
REMARK  status: ('A' for Active; 'I' for Inactive)
REMARK    1  A    between atoms: C_1  and  C_2
REMARK    2  A    between atoms: C_2  and  C_3
REMARK    3  A    between atoms: C_2  and  C_4
REMARK    4  A    between atoms: C_2  and  C_5
REMARK    5  A    between atoms: C_9  and  C_10
REMARK    6  A    between atoms: N_16  and  C_17
REMARK    7  A    between atoms: C_17  and  C_18
REMARK    8  A    between atoms: C_22  and  C_23
REMARK                            x       y       z     vdW  Elec       q    Type
REMARK                         _______ _______ _______ _____ _____    ______ ____
ROOT
ATOM      1  C   UNL     1      48.266   6.528  14.881  0.00  0.00    +0.000 A 
ATOM      2  N   UNL     1      47.670   5.346  14.918  0.00  0.00    +0.000 NA
ATOM      3  C   UNL     1      46.927   5.230  13.778  0.00  0.00    +0.000 A 
ATOM      4  C   UNL     1      46.107   4.168  13.354  0.00  0.00    +0.000 A 
ATOM      5  C   UNL     1      45.435   4.278  12.127  0.00  0.00    +0.000 A 
ATOM      6  C   UNL     1      45.610   5.427  11.341  0.00  0.00    +0.000 A 
ATOM      7  C   UNL     1      46.429   6.489  11.749  0.00  0.00    +0.000 A 
ATOM      8  C   UNL     1      47.063   6.364  12.992  0.00  0.00    +0.000 A 
ATOM      9  N   UNL     1      47.864   7.214  13.742  0.00  0.00    +0.000 N 
ENDROOT
BRANCH   5  10
ATOM     10  C   UNL     1      44.515   3.224  11.603  0.00  0.00    +0.000 C 
ATOM     11  N   UNL     1      43.849   2.421  12.488  0.00  0.00    +0.000 N 
ATOM     12  O   UNL     1      44.345   3.067  10.398  0.00  0.00    +0.000 OA
ATOM     13  H   UNL     1      43.939   2.458  13.490  0.00  0.00    +0.000 HD
ATOM     14  H   UNL     1      43.244   1.717  12.092  0.00  0.00    +0.000 HD
ENDBRANCH   5  10
BRANCH   1  16
ATOM     15  C   UNL     1      49.237   5.980  17.129  0.00  0.00    +0.000 C 
ATOM     16  C   UNL     1      49.234   7.006  15.966  0.00  0.00    +0.000 C 
ATOM     17  C   UNL     1      48.800   8.354  16.564  0.00  0.00    +0.000 C 
ATOM     18  C   UNL     1      50.681   7.076  15.447  0.00  0.00    +0.000 C 
ENDBRANCH   1  16
BRANCH   9  19
ATOM     19  C   UNL     1      48.215   8.565  13.324  0.00  0.00    +0.000 C 
BRANCH  19  20
ATOM     20  C   UNL     1      49.519   8.690  12.561  0.00  0.00    +0.000 A 
ATOM     21  C   UNL     1      49.888   7.814  11.531  0.00  0.00    +0.000 A 
ATOM     22  C   UNL     1      51.160   7.878  10.958  0.00  0.00    +0.000 A 
ATOM     23  C   UNL     1      52.086   8.821  11.403  0.00  0.00    +0.000 A 
ATOM     24  C   UNL     1      51.732   9.727  12.402  0.00  0.00    +0.000 A 
ATOM     25  C   UNL     1      50.455   9.660  12.978  0.00  0.00    +0.000 A 
BRANCH  24  26
ATOM     26  C   UNL     1      52.678  10.708  12.857  0.00  0.00    +0.000 C 
ATOM     27  N   UNL     1      53.435  11.505  13.219  0.00  0.00    +0.000 NA
ENDBRANCH  24  26
ENDBRANCH  19  20
ENDBRANCH   9  19
TORSDOF 5
ENDMDL
MODEL 6
REMARK VINA RESULT:    -5.969      2.344      4.811
REMARK INTER + INTRA:          -8.166
REMARK INTER:                  -7.535
REMARK INTRA:                  -0.631
REMARK UNBOUND:                -0.452
REMARK  Name = 
REMARK  8 active torsions:
REMARK  status: ('A' for Active; 'I' for Inactive)
REMARK    1  A    between atoms: C_1  and  C_2
REMARK    2  A    between atoms: C_2  and  C_3
REMARK    3  A    between atoms: C_2  and  C_4
REMARK    4  A    between atoms: C_2  and  C_5
REMARK    5  A    between atoms: C_9  and  C_10
REMARK    6  A    between atoms: N_16  and  C_17
REMARK    7  A    between atoms: C_17  and  C_18
REMARK    8  A    between atoms: C_22  and  C_23
REMARK                            x       y       z     vdW  Elec       q    Type
REMARK                         _______ _______ _______ _____ _____    ______ ____
ROOT
ATOM      1  C   UNL     1      45.199   4.618  12.500  0.00  0.00    +0.000 A 
ATOM      2  N   UNL     1      45.369   3.995  13.657  0.00  0.00    +0.000 NA
ATOM      3  C   UNL     1      46.415   4.599  14.294  0.00  0.00    +0.000 A 
ATOM      4  C   UNL     1      46.988   4.301  15.543  0.00  0.00    +0.000 A 
ATOM      5  C   UNL     1      48.070   5.073  15.995  0.00  0.00    +0.000 A 
ATOM      6  C   UNL     1      48.542   6.134  15.207  0.00  0.00    +0.000 A 
ATOM      7  C   UNL     1      47.975   6.445  13.963  0.00  0.00    +0.000 A 
ATOM      8  C   UNL     1      46.917   5.639  13.525  0.00  0.00    +0.000 A 
ATOM      9  N   UNL     1      46.177   5.593  12.352  0.00  0.00    +0.000 N 
ENDROOT
BRANCH   5  10
ATOM     10  C   UNL     1      48.771   4.816  17.289  0.00  0.00    +0.000 C 
ATOM     11  N   UNL     1      48.036   4.455  18.385  0.00  0.00    +0.000 N 
ATOM     12  O   UNL     1      49.989   4.922  17.386  0.00  0.00    +0.000 OA
ATOM     13  H   UNL     1      47.033   4.364  18.410  0.00  0.00    +0.000 HD
ATOM     14  H   UNL     1      48.547   4.299  19.241  0.00  0.00    +0.000 HD
ENDBRANCH   5  10
BRANCH   1  16
ATOM     15  C   UNL     1      43.463   2.899  11.929  0.00  0.00    +0.000 C 
ATOM     16  C   UNL     1      44.080   4.261  11.519  0.00  0.00    +0.000 C 
ATOM     17  C   UNL     1      44.609   4.095  10.086  0.00  0.00    +0.000 C 
ATOM     18  C   UNL     1      42.934   5.287  11.565  0.00  0.00    +0.000 C 
ENDBRANCH   1  16
BRANCH   9  19
ATOM     19  C   UNL     1      46.415   6.476  11.217  0.00  0.00    +0.000 C 
BRANCH  19  20
ATOM     20  C   UNL     1      45.931   7.901  11.391  0.00  0.00    +0.000 A 
ATOM     21  C   UNL     1      46.695   8.897  12.015  0.00  0.00    +0.000 A 
ATOM     22  C   UNL     1      46.151  10.155  12.284  0.00  0.00    +0.000 A 
ATOM     23  C   UNL     1      44.833  10.442  11.931  0.00  0.00    +0.000 A 
ATOM     24  C   UNL     1      44.062   9.480  11.277  0.00  0.00    +0.000 A 
ATOM     25  C   UNL     1      44.610   8.218  11.010  0.00  0.00    +0.000 A 
BRANCH  24  26
ATOM     26  C   UNL     1      42.706   9.774  10.901  0.00  0.00    +0.000 C 
ATOM     27  N   UNL     1      41.616  10.007  10.590  0.00  0.00    +0.000 NA
ENDBRANCH  24  26
ENDBRANCH  19  20
ENDBRANCH   9  19
TORSDOF 5
ENDMDL
MODEL 7
REMARK VINA RESULT:    -5.775      2.301      5.848
REMARK INTER + INTRA:          -7.915
REMARK INTER:                  -7.273
REMARK INTRA:                  -0.642
REMARK UNBOUND:                -0.452
REMARK  Name = 
REMARK  8 active torsions:
REMARK  status: ('A' for Active; 'I' for Inactive)
REMARK    1  A    between atoms: C_1  and  C_2
REMARK    2  A    between atoms: C_2  and  C_3
REMARK    3  A    between atoms: C_2  and  C_4
REMARK    4  A    between atoms: C_2  and  C_5
REMARK    5  A    between atoms: C_9  and  C_10
REMARK    6  A    between atoms: N_16  and  C_17
REMARK    7  A    between atoms: C_17  and  C_18
REMARK    8  A    between atoms: C_22  and  C_23
REMARK                            x       y       z     vdW  Elec       q    Type
REMARK                         _______ _______ _______ _____ _____    ______ ____
ROOT
ATOM      1  C   UNL     1      47.939   8.187  12.540  0.00  0.00    +0.000 A 
ATOM      2  N   UNL     1      46.897   7.862  11.789  0.00  0.00    +0.000 NA
ATOM      3  C   UNL     1      46.439   6.654  12.230  0.00  0.00    +0.000 A 
ATOM      4  C   UNL     1      45.362   5.883  11.756  0.00  0.00    +0.000 A 
ATOM      5  C   UNL     1      45.078   4.659  12.380  0.00  0.00    +0.000 A 
ATOM      6  C   UNL     1      45.853   4.240  13.472  0.00  0.00    +0.000 A 
ATOM      7  C   UNL     1      46.925   5.002  13.958  0.00  0.00    +0.000 A 
ATOM      8  C   UNL     1      47.203   6.205  13.296  0.00  0.00    +0.000 A 
ATOM      9  N   UNL     1      48.201   7.160  13.437  0.00  0.00    +0.000 N 
ENDROOT
BRANCH   5  10
ATOM     10  C   UNL     1      43.980   3.750  11.931  0.00  0.00    +0.000 C 
ATOM     11  N   UNL     1      43.860   2.515  12.506  0.00  0.00    +0.000 N 
ATOM     12  O   UNL     1      43.186   4.091  11.060  0.00  0.00    +0.000 OA
ATOM     13  H   UNL     1      44.474   2.138  13.210  0.00  0.00    +0.000 HD
ATOM     14  H   UNL     1      43.110   1.929  12.169  0.00  0.00    +0.000 HD
ENDBRANCH   5  10
BRANCH   1  16
ATOM     15  C   UNL     1      47.964  10.393  11.344  0.00  0.00    +0.000 C 
ATOM     16  C   UNL     1      48.697   9.508  12.385  0.00  0.00    +0.000 C 
ATOM     17  C   UNL     1      50.123   9.288  11.855  0.00  0.00    +0.000 C 
ATOM     18  C   UNL     1      48.717  10.310  13.698  0.00  0.00    +0.000 C 
ENDBRANCH   1  16
BRANCH   9  19
ATOM     19  C   UNL     1      49.282   7.056  14.409  0.00  0.00    +0.000 C 
BRANCH  19  20
ATOM     20  C   UNL     1      48.867   7.201  15.859  0.00  0.00    +0.000 A 
ATOM     21  C   UNL     1      48.573   8.438  16.449  0.00  0.00    +0.000 A 
ATOM     22  C   UNL     1      48.339   8.539  17.822  0.00  0.00    +0.000 A 
ATOM     23  C   UNL     1      48.391   7.405  18.630  0.00  0.00    +0.000 A 
ATOM     24  C   UNL     1      48.647   6.156  18.063  0.00  0.00    +0.000 A 
ATOM     25  C   UNL     1      48.884   6.058  16.685  0.00  0.00    +0.000 A 
BRANCH  24  26
ATOM     26  C   UNL     1      48.691   4.982  18.890  0.00  0.00    +0.000 C 
ATOM     27  N   UNL     1      48.724   4.041  19.563  0.00  0.00    +0.000 NA
ENDBRANCH  24  26
ENDBRANCH  19  20
ENDBRANCH   9  19
TORSDOF 5
ENDMDL
MODEL 8
REMARK VINA RESULT:    -5.676      2.550      6.069
REMARK INTER + INTRA:          -7.787
REMARK INTER:                  -7.083
REMARK INTRA:                  -0.704
REMARK UNBOUND:                -0.452
REMARK  Name = 
REMARK  8 active torsions:
REMARK  status: ('A' for Active; 'I' for Inactive)
REMARK    1  A    between atoms: C_1  and  C_2
REMARK    2  A    between atoms: C_2  and  C_3
REMARK    3  A    between atoms: C_2  and  C_4
REMARK    4  A    between atoms: C_2  and  C_5
REMARK    5  A    between atoms: C_9  and  C_10
REMARK    6  A    between atoms: N_16  and  C_17
REMARK    7  A    between atoms: C_17  and  C_18
REMARK    8  A    between atoms: C_22  and  C_23
REMARK                            x       y       z     vdW  Elec       q    Type
REMARK                         _______ _______ _______ _____ _____    ______ ____
ROOT
ATOM      1  C   UNL     1      48.004   8.213  12.565  0.00  0.00    +0.000 A 
ATOM      2  N   UNL     1      46.921   7.917  11.861  0.00  0.00    +0.000 NA
ATOM      3  C   UNL     1      46.486   6.693  12.280  0.00  0.00    +0.000 A 
ATOM      4  C   UNL     1      45.383   5.941  11.836  0.00  0.00    +0.000 A 
ATOM      5  C   UNL     1      45.130   4.693  12.427  0.00  0.00    +0.000 A 
ATOM      6  C   UNL     1      45.964   4.232  13.457  0.00  0.00    +0.000 A 
ATOM      7  C   UNL     1      47.063   4.974  13.912  0.00  0.00    +0.000 A 
ATOM      8  C   UNL     1      47.307   6.202  13.284  0.00  0.00    +0.000 A 
ATOM      9  N   UNL     1      48.313   7.151  13.406  0.00  0.00    +0.000 N 
ENDROOT
BRANCH   5  10
ATOM     10  C   UNL     1      44.008   3.802  12.004  0.00  0.00    +0.000 C 
ATOM     11  N   UNL     1      43.969   2.516  12.465  0.00  0.00    +0.000 N 
ATOM     12  O   UNL     1      43.122   4.204  11.256  0.00  0.00    +0.000 OA
ATOM     13  H   UNL     1      44.659   2.089  13.062  0.00  0.00    +0.000 HD
ATOM     14  H   UNL     1      43.198   1.945  12.149  0.00  0.00    +0.000 HD
ENDBRANCH   5  10
BRANCH   1  16
ATOM     15  C   UNL     1      48.044  10.408  11.351  0.00  0.00    +0.000 C 
ATOM     16  C   UNL     1      48.755   9.538  12.420  0.00  0.00    +0.000 C 
ATOM     17  C   UNL     1      50.197   9.327  11.933  0.00  0.00    +0.000 C 
ATOM     18  C   UNL     1      48.730  10.353  13.726  0.00  0.00    +0.000 C 
ENDBRANCH   1  16
BRANCH   9  19
ATOM     19  C   UNL     1      49.446   7.009  14.311  0.00  0.00    +0.000 C 
BRANCH  19  20
ATOM     20  C   UNL     1      49.107   7.061  15.787  0.00  0.00    +0.000 A 
ATOM     21  C   UNL     1      49.063   5.921  16.602  0.00  0.00    +0.000 A 
ATOM     22  C   UNL     1      48.604   5.999  17.918  0.00  0.00    +0.000 A 
ATOM     23  C   UNL     1      48.183   7.218  18.446  0.00  0.00    +0.000 A 
ATOM     24  C   UNL     1      48.250   8.374  17.669  0.00  0.00    +0.000 A 
ATOM     25  C   UNL     1      48.710   8.294  16.346  0.00  0.00    +0.000 A 
BRANCH  24  26
ATOM     26  C   UNL     1      47.829   9.637  18.211  0.00  0.00    +0.000 C 
ATOM     27  N   UNL     1      47.496  10.657  18.644  0.00  0.00    +0.000 NA
ENDBRANCH  24  26
ENDBRANCH  19  20
ENDBRANCH   9  19
TORSDOF 5
ENDMDL
