MODEL 1
REMARK VINA RESULT:    -8.100      0.000      0.000
REMARK INTER + INTRA:         -11.378
REMARK INTER:                 -10.467
REMARK INTRA:                  -0.910
REMARK UNBOUND:                -0.910
REMARK  Name = 
REMARK  5 active torsions:
REMARK  status: ('A' for Active; 'I' for Inactive)
REMARK    1  A    between atoms: C_2  and  C_3
REMARK    2  A    between atoms: C_6  and  N_7
REMARK    3  A    between atoms: N_7  and  C_8
REMARK    4  A    between atoms: C_8  and  C_9
REMARK    5  A    between atoms: C_13  and  N_14
REMARK                            x       y       z     vdW  Elec       q    Type
REMARK                         _______ _______ _______ _____ _____    ______ ____
ROOT
ATOM      1  C   UNL     1      43.967   4.692  11.433  0.00  0.00    +0.000 C 
ATOM      2  C   UNL     1      43.073   3.618  12.014  0.00  0.00    +0.000 C 
ATOM      3  C   UNL     1      42.708   5.053  12.202  0.00  0.00    +0.000 C 
ENDROOT
BRANCH   1   4
ATOM      4  C   UNL     1      45.296   5.083  12.081  0.00  0.00    +0.000 A 
ATOM      5  C   UNL     1      46.032   4.212  12.898  0.00  0.00    +0.000 A 
ATOM      6  C   UNL     1      47.146   4.661  13.615  0.00  0.00    +0.000 A 
ATOM      7  C   UNL     1      47.510   6.011  13.571  0.00  0.00    +0.000 A 
ATOM      8  C   UNL     1      46.801   6.921  12.785  0.00  0.00    +0.000 A 
ATOM      9  C   UNL     1      45.767   6.402  11.991  0.00  0.00    +0.000 A 
BRANCH   8  10
ATOM     10  N   UNL     1      47.046   8.277  12.810  0.00  0.00    +0.000 N 
ATOM     11  C   UNL     1      45.952   9.263  12.844  0.00  0.00    +0.000 C 
ATOM     12  C   UNL     1      46.115  10.270  11.687  0.00  0.00    +0.000 C 
ATOM     13  N   UNL     1      47.442  10.926  11.674  0.00  0.00    +0.000 NA
ATOM     14  C   UNL     1      48.490   9.878  11.641  0.00  0.00    +0.000 C 
ATOM     15  C   UNL     1      48.393   8.851  12.796  0.00  0.00    +0.000 C 
ATOM     16  H   UNL     1      47.541  11.438  12.551  0.00  0.00    +0.000 HD
ENDBRANCH   8  10
ENDBRANCH   1   4
BRANCH   1  17
ATOM     17  N   UNL     1      43.959   4.835   9.955  0.00  0.00    +0.000 N 
ATOM     18  H   UNL     1      43.650   5.735   9.598  0.00  0.00    +0.000 HD
BRANCH  17  22
ATOM     19  C   UNL     1      46.654   2.768   7.514  0.00  0.00    +0.000 A 
ATOM     20  N   UNL     1      46.658   4.125   7.451  0.00  0.00    +0.000 NA
ATOM     21  C   UNL     1      45.770   4.766   8.258  0.00  0.00    +0.000 A 
ATOM     22  C   UNL     1      44.854   4.143   9.111  0.00  0.00    +0.000 A 
ATOM     23  C   UNL     1      44.878   2.748   9.122  0.00  0.00    +0.000 A 
ATOM     24  C   UNL     1      45.781   2.050   8.319  0.00  0.00    +0.000 A 
ATOM     25  F   UNL     1      45.801   0.714   8.348  0.00  0.00    +0.000 F 
BRANCH  19  27
ATOM     26  N   UNL     1      48.388   1.560   5.993  0.00  0.00    +0.000 NA
ATOM     27  C   UNL     1      47.615   2.091   6.683  0.00  0.00    +0.000 C 
ENDBRANCH  19  27
ENDBRANCH  17  22
ENDBRANCH   1  17
TORSDOF 5
ENDMDL
MODEL 2
REMARK VINA RESULT:    -8.055      2.038      3.465
REMARK INTER + INTRA:         -11.320
REMARK INTER:                 -11.006
REMARK INTRA:                  -0.314
REMARK UNBOUND:                -0.910
REMARK  Name = 
REMARK  5 active torsions:
REMARK  status: ('A' for Active; 'I' for Inactive)
REMARK    1  A    between atoms: C_2  and  C_3
REMARK    2  A    between atoms: C_6  and  N_7
REMARK    3  A    between atoms: N_7  and  C_8
REMARK    4  A    between atoms: C_8  and  C_9
REMARK    5  A    between atoms: C_13  and  N_14
REMARK                            x       y       z     vdW  Elec       q    Type
REMARK                         _______ _______ _______ _____ _____    ______ ____
ROOT
ATOM      1  C   UNL     1      44.204   4.596  11.739  0.00  0.00    +0.000 C 
ATOM      2  C   UNL     1      43.751   3.314  12.406  0.00  0.00    +0.000 C 
ATOM      3  C   UNL     1      42.968   4.566  12.622  0.00  0.00    +0.000 C 
ENDROOT
BRANCH   1   4
ATOM      4  C   UNL     1      45.391   5.407  12.258  0.00  0.00    +0.000 A 
ATOM      5  C   UNL     1      46.073   6.350  11.475  0.00  0.00    +0.000 A 
ATOM      6  C   UNL     1      47.260   6.940  11.921  0.00  0.00    +0.000 A 
ATOM      7  C   UNL     1      47.819   6.550  13.143  0.00  0.00    +0.000 A 
ATOM      8  C   UNL     1      47.187   5.605  13.954  0.00  0.00    +0.000 A 
ATOM      9  C   UNL     1      45.940   5.130  13.520  0.00  0.00    +0.000 A 
BRANCH   8  10
ATOM     10  N   UNL     1      47.763   5.102  15.100  0.00  0.00    +0.000 N 
ATOM     11  C   UNL     1      47.451   3.751  15.598  0.00  0.00    +0.000 C 
ATOM     12  C   UNL     1      46.983   3.825  17.065  0.00  0.00    +0.000 C 
ATOM     13  N   UNL     1      47.949   4.523  17.945  0.00  0.00    +0.000 NA
ATOM     14  C   UNL     1      48.217   5.869  17.385  0.00  0.00    +0.000 C 
ATOM     15  C   UNL     1      48.716   5.855  15.919  0.00  0.00    +0.000 C 
ATOM     16  H   UNL     1      48.823   3.996  17.920  0.00  0.00    +0.000 HD
ENDBRANCH   8  10
ENDBRANCH   1   4
BRANCH   1  17
ATOM     17  N   UNL     1      44.020   4.679  10.268  0.00  0.00    +0.000 N 
ATOM     18  H   UNL     1      43.600   5.537   9.921  0.00  0.00    +0.000 HD
BRANCH  17  22
ATOM     19  C   UNL     1      46.585   2.727   7.602  0.00  0.00    +0.000 A 
ATOM     20  N   UNL     1      46.584   4.086   7.597  0.00  0.00    +0.000 NA
ATOM     21  C   UNL     1      45.739   4.689   8.476  0.00  0.00    +0.000 A 
ATOM     22  C   UNL     1      44.870   4.027   9.349  0.00  0.00    +0.000 A 
ATOM     23  C   UNL     1      44.898   2.632   9.300  0.00  0.00    +0.000 A 
ATOM     24  C   UNL     1      45.758   1.973   8.422  0.00  0.00    +0.000 A 
ATOM     25  F   UNL     1      45.782   0.637   8.393  0.00  0.00    +0.000 F 
BRANCH  19  27
ATOM     26  N   UNL     1      48.264   1.585   5.973  0.00  0.00    +0.000 NA
ATOM     27  C   UNL     1      47.503   2.091   6.694  0.00  0.00    +0.000 C 
ENDBRANCH  19  27
ENDBRANCH  17  22
ENDBRANCH   1  17
TORSDOF 5
ENDMDL
MODEL 3
REMARK VINA RESULT:    -7.859      1.439      2.404
REMARK INTER + INTRA:         -11.066
REMARK INTER:                 -10.294
REMARK INTRA:                  -0.772
REMARK UNBOUND:                -0.910
REMARK  Name = 
REMARK  5 active torsions:
REMARK  status: ('A' for Active; 'I' for Inactive)
REMARK    1  A    between atoms: C_2  and  C_3
REMARK    2  A    between atoms: C_6  and  N_7
REMARK    3  A    between atoms: N_7  and  C_8
REMARK    4  A    between atoms: C_8  and  C_9
REMARK    5  A    between atoms: C_13  and  N_14
REMARK                            x       y       z     vdW  Elec       q    Type
REMARK                         _______ _______ _______ _____ _____    ______ ____
ROOT
ATOM      1  C   UNL     1      44.076   4.865  11.668  0.00  0.00    +0.000 C 
ATOM      2  C   UNL     1      44.238   3.619  12.512  0.00  0.00    +0.000 C 
ATOM      3  C   UNL     1      43.018   4.463  12.681  0.00  0.00    +0.000 C 
ENDROOT
BRANCH   1   4
ATOM      4  C   UNL     1      44.846   6.152  11.963  0.00  0.00    +0.000 A 
ATOM      5  C   UNL     1      44.432   7.412  11.507  0.00  0.00    +0.000 A 
ATOM      6  C   UNL     1      45.251   8.537  11.643  0.00  0.00    +0.000 A 
ATOM      7  C   UNL     1      46.533   8.409  12.191  0.00  0.00    +0.000 A 
ATOM      8  C   UNL     1      46.998   7.174  12.647  0.00  0.00    +0.000 A 
ATOM      9  C   UNL     1      46.096   6.099  12.600  0.00  0.00    +0.000 A 
BRANCH   8  10
ATOM     10  N   UNL     1      48.292   6.978  13.076  0.00  0.00    +0.000 N 
ATOM     11  C   UNL     1      48.596   6.499  14.436  0.00  0.00    +0.000 C 
ATOM     12  C   UNL     1      49.575   7.467  15.129  0.00  0.00    +0.000 C 
ATOM     13  N   UNL     1      50.809   7.703  14.344  0.00  0.00    +0.000 NA
ATOM     14  C   UNL     1      50.429   8.180  12.993  0.00  0.00    +0.000 C 
ATOM     15  C   UNL     1      49.465   7.232  12.236  0.00  0.00    +0.000 C 
ATOM     16  H   UNL     1      51.280   6.804  14.236  0.00  0.00    +0.000 HD
ENDBRANCH   8  10
ENDBRANCH   1   4
BRANCH   1  17
ATOM     17  N   UNL     1      43.790   4.657  10.225  0.00  0.00    +0.000 N 
ATOM     18  H   UNL     1      43.187   5.349   9.788  0.00  0.00    +0.000 HD
BRANCH  17  22
ATOM     19  C   UNL     1      46.516   2.767   7.678  0.00  0.00    +0.000 A 
ATOM     20  N   UNL     1      46.493   4.125   7.682  0.00  0.00    +0.000 NA
ATOM     21  C   UNL     1      45.596   4.708   8.522  0.00  0.00    +0.000 A 
ATOM     22  C   UNL     1      44.696   4.025   9.346  0.00  0.00    +0.000 A 
ATOM     23  C   UNL     1      44.748   2.632   9.288  0.00  0.00    +0.000 A 
ATOM     24  C   UNL     1      45.662   1.994   8.449  0.00  0.00    +0.000 A 
ATOM     25  F   UNL     1      45.709   0.658   8.413  0.00  0.00    +0.000 F 
BRANCH  19  27
ATOM     26  N   UNL     1      48.291   1.654   6.131  0.00  0.00    +0.000 NA
ATOM     27  C   UNL     1      47.488   2.152   6.812  0.00  0.00    +0.000 C 
ENDBRANCH  19  27
ENDBRANCH  17  22
ENDBRANCH   1  17
TORSDOF 5
ENDMDL
MODEL 4
REMARK VINA RESULT:    -6.479      2.978      7.428
REMARK INTER + INTRA:          -9.283
REMARK INTER:                  -8.935
REMARK INTRA:                  -0.348
REMARK UNBOUND:                -0.910
REMARK  Name = 
REMARK  5 active torsions:
REMARK  status: ('A' for Active; 'I' for Inactive)
REMARK    1  A    between atoms: C_2  and  C_3
REMARK    2  A    between atoms: C_6  and  N_7
REMARK    3  A    between atoms: N_7  and  C_8
REMARK    4  A    between atoms: C_8  and  C_9
REMARK    5  A    between atoms: C_13  and  N_14
REMARK                            x       y       z     vdW  Elec       q    Type
REMARK                         _______ _______ _______ _____ _____    ______ ____
ROOT
ATOM      1  C   UNL     1      46.038   6.473  12.185  0.00  0.00    +0.000 C 
ATOM      2  C   UNL     1      45.915   7.846  11.559  0.00  0.00    +0.000 C 
ATOM      3  C   UNL     1      45.336   7.605  12.914  0.00  0.00    +0.000 C 
ENDROOT
BRANCH   1   4
ATOM      4  C   UNL     1      45.162   5.299  11.748  0.00  0.00    +0.000 A 
ATOM      5  C   UNL     1      44.332   4.594  12.632  0.00  0.00    +0.000 A 
ATOM      6  C   UNL     1      43.684   3.419  12.236  0.00  0.00    +0.000 A 
ATOM      7  C   UNL     1      43.903   2.895  10.957  0.00  0.00    +0.000 A 
ATOM      8  C   UNL     1      44.732   3.551  10.044  0.00  0.00    +0.000 A 
ATOM      9  C   UNL     1      45.263   4.786  10.445  0.00  0.00    +0.000 A 
BRANCH   8  10
ATOM     10  N   UNL     1      45.073   3.008   8.825  0.00  0.00    +0.000 N 
ATOM     11  C   UNL     1      45.124   1.551   8.611  0.00  0.00    +0.000 C 
ATOM     12  C   UNL     1      46.503   1.149   8.049  0.00  0.00    +0.000 C 
ATOM     13  N   UNL     1      46.866   1.895   6.822  0.00  0.00    +0.000 NA
ATOM     14  C   UNL     1      46.793   3.347   7.110  0.00  0.00    +0.000 C 
ATOM     15  C   UNL     1      45.420   3.815   7.653  0.00  0.00    +0.000 C 
ATOM     16  H   UNL     1      46.164   1.682   6.113  0.00  0.00    +0.000 HD
ENDBRANCH   8  10
ENDBRANCH   1   4
BRANCH   1  17
ATOM     17  N   UNL     1      47.393   6.070  12.640  0.00  0.00    +0.000 N 
ATOM     18  H   UNL     1      48.168   6.400  12.072  0.00  0.00    +0.000 HD
BRANCH  17  22
ATOM     19  C   UNL     1      48.268   5.421  16.679  0.00  0.00    +0.000 A 
ATOM     20  N   UNL     1      48.807   6.517  16.084  0.00  0.00    +0.000 NA
ATOM     21  C   UNL     1      48.502   6.699  14.771  0.00  0.00    +0.000 A 
ATOM     22  C   UNL     1      47.712   5.844  13.997  0.00  0.00    +0.000 A 
ATOM     23  C   UNL     1      47.199   4.724  14.652  0.00  0.00    +0.000 A 
ATOM     24  C   UNL     1      47.477   4.505  16.001  0.00  0.00    +0.000 A 
ATOM     25  F   UNL     1      46.970   3.434  16.619  0.00  0.00    +0.000 F 
BRANCH  19  27
ATOM     26  N   UNL     1      48.795   5.084  19.206  0.00  0.00    +0.000 NA
ATOM     27  C   UNL     1      48.565   5.248  18.076  0.00  0.00    +0.000 C 
ENDBRANCH  19  27
ENDBRANCH  17  22
ENDBRANCH   1  17
TORSDOF 5
ENDMDL
MODEL 5
REMARK VINA RESULT:    -6.444      1.716      2.943
REMARK INTER + INTRA:          -9.238
REMARK INTER:                  -8.637
REMARK INTRA:                  -0.601
REMARK UNBOUND:                -0.910
REMARK  Name = 
REMARK  5 active torsions:
REMARK  status: ('A' for Active; 'I' for Inactive)
REMARK    1  A    between atoms: C_2  and  C_3
REMARK    2  A    between atoms: C_6  and  N_7
REMARK    3  A    between atoms: N_7  and  C_8
REMARK    4  A    between atoms: C_8  and  C_9
REMARK    5  A    between atoms: C_13  and  N_14
REMARK                            x       y       z     vdW  Elec       q    Type
REMARK                         _______ _______ _______ _____ _____    ______ ____
ROOT
ATOM      1  C   UNL     1      44.747   6.002  11.787  0.00  0.00    +0.000 C 
ATOM      2  C   UNL     1      45.715   5.113  12.538  0.00  0.00    +0.000 C 
ATOM      3  C   UNL     1      44.353   5.353  13.102  0.00  0.00    +0.000 C 
ENDROOT
BRANCH   1   4
ATOM      4  C   UNL     1      44.873   7.526  11.791  0.00  0.00    +0.000 A 
ATOM      5  C   UNL     1      43.964   8.369  11.135  0.00  0.00    +0.000 A 
ATOM      6  C   UNL     1      44.209   9.741  11.011  0.00  0.00    +0.000 A 
ATOM      7  C   UNL     1      45.403  10.286  11.495  0.00  0.00    +0.000 A 
ATOM      8  C   UNL     1      46.347   9.487  12.143  0.00  0.00    +0.000 A 
ATOM      9  C   UNL     1      46.004   8.142  12.349  0.00  0.00    +0.000 A 
BRANCH   8  10
ATOM     10  N   UNL     1      47.586   9.955  12.521  0.00  0.00    +0.000 N 
ATOM     11  C   UNL     1      48.312  10.961  11.726  0.00  0.00    +0.000 C 
ATOM     12  C   UNL     1      49.723  10.442  11.381  0.00  0.00    +0.000 C 
ATOM     13  N   UNL     1      50.494  10.030  12.576  0.00  0.00    +0.000 NA
ATOM     14  C   UNL     1      49.707   9.023  13.327  0.00  0.00    +0.000 C 
ATOM     15  C   UNL     1      48.287   9.498  13.723  0.00  0.00    +0.000 C 
ATOM     16  H   UNL     1      50.599  10.851  13.173  0.00  0.00    +0.000 HD
ENDBRANCH   8  10
ENDBRANCH   1   4
BRANCH   1  17
ATOM     17  N   UNL     1      44.182   5.453  10.528  0.00  0.00    +0.000 N 
ATOM     18  H   UNL     1      43.609   6.092   9.983  0.00  0.00    +0.000 HD
BRANCH  17  22
ATOM     19  C   UNL     1      46.028   2.481   8.236  0.00  0.00    +0.000 A 
ATOM     20  N   UNL     1      45.229   2.084   9.260  0.00  0.00    +0.000 NA
ATOM     21  C   UNL     1      44.644   3.075   9.985  0.00  0.00    +0.000 A 
ATOM     22  C   UNL     1      44.821   4.445   9.774  0.00  0.00    +0.000 A 
ATOM     23  C   UNL     1      45.666   4.799   8.722  0.00  0.00    +0.000 A 
ATOM     24  C   UNL     1      46.278   3.814   7.945  0.00  0.00    +0.000 A 
ATOM     25  F   UNL     1      47.077   4.167   6.934  0.00  0.00    +0.000 F 
BRANCH  19  27
ATOM     26  N   UNL     1      47.090   0.592   6.794  0.00  0.00    +0.000 NA
ATOM     27  C   UNL     1      46.621   1.432   7.450  0.00  0.00    +0.000 C 
ENDBRANCH  19  27
ENDBRANCH  17  22
ENDBRANCH   1  17
TORSDOF 5
ENDMDL
MODEL 6
REMARK VINA RESULT:    -6.296      4.636      7.950
REMARK INTER + INTRA:          -9.047
REMARK INTER:                  -8.688
REMARK INTRA:                  -0.359
REMARK UNBOUND:                -0.910
REMARK  Name = 
REMARK  5 active torsions:
REMARK  status: ('A' for Active; 'I' for Inactive)
REMARK    1  A    between atoms: C_2  and  C_3
REMARK    2  A    between atoms: C_6  and  N_7
REMARK    3  A    between atoms: N_7  and  C_8
REMARK    4  A    between atoms: C_8  and  C_9
REMARK    5  A    between atoms: C_13  and  N_14
REMARK                            x       y       z     vdW  Elec       q    Type
REMARK                         _______ _______ _______ _____ _____    ______ ____
ROOT
ATOM      1  C   UNL     1      48.597   7.090  15.501  0.00  0.00    +0.000 C 
ATOM      2  C   UNL     1      49.919   7.787  15.742  0.00  0.00    +0.000 C 
ATOM      3  C   UNL     1      48.648   8.558  15.888  0.00  0.00    +0.000 C 
ENDROOT
BRANCH   1   4
ATOM      4  C   UNL     1      48.088   6.775  14.094  0.00  0.00    +0.000 A 
ATOM      5  C   UNL     1      48.498   7.485  12.956  0.00  0.00    +0.000 A 
ATOM      6  C   UNL     1      47.879   7.287  11.718  0.00  0.00    +0.000 A 
ATOM      7  C   UNL     1      46.794   6.410  11.608  0.00  0.00    +0.000 A 
ATOM      8  C   UNL     1      46.339   5.690  12.714  0.00  0.00    +0.000 A 
ATOM      9  C   UNL     1      47.066   5.831  13.906  0.00  0.00    +0.000 A 
BRANCH   8  10
ATOM     10  N   UNL     1      45.201   4.914  12.680  0.00  0.00    +0.000 N 
ATOM     11  C   UNL     1      45.251   3.473  12.377  0.00  0.00    +0.000 C 
ATOM     12  C   UNL     1      44.301   3.147  11.208  0.00  0.00    +0.000 C 
ATOM     13  N   UNL     1      42.913   3.607  11.445  0.00  0.00    +0.000 NA
ATOM     14  C   UNL     1      42.938   5.059  11.744  0.00  0.00    +0.000 C 
ATOM     15  C   UNL     1      43.858   5.445  12.929  0.00  0.00    +0.000 C 
ATOM     16  H   UNL     1      42.567   3.124  12.275  0.00  0.00    +0.000 HD
ENDBRANCH   8  10
ENDBRANCH   1   4
BRANCH   1  17
ATOM     17  N   UNL     1      48.171   6.103  16.526  0.00  0.00    +0.000 N 
ATOM     18  H   UNL     1      47.168   6.014  16.667  0.00  0.00    +0.000 HD
BRANCH  17  22
ATOM     19  C   UNL     1      50.415   2.675  17.366  0.00  0.00    +0.000 A 
ATOM     20  N   UNL     1      49.185   2.505  16.815  0.00  0.00    +0.000 NA
ATOM     21  C   UNL     1      48.482   3.640  16.554  0.00  0.00    +0.000 A 
ATOM     22  C   UNL     1      48.913   4.941  16.829  0.00  0.00    +0.000 A 
ATOM     23  C   UNL     1      50.175   5.058  17.412  0.00  0.00    +0.000 A 
ATOM     24  C   UNL     1      50.935   3.920  17.686  0.00  0.00    +0.000 A 
ATOM     25  F   UNL     1      52.147   4.048  18.234  0.00  0.00    +0.000 F 
BRANCH  19  27
ATOM     26  N   UNL     1      51.794   0.516  17.830  0.00  0.00    +0.000 NA
ATOM     27  C   UNL     1      51.171   1.475  17.612  0.00  0.00    +0.000 C 
ENDBRANCH  19  27
ENDBRANCH  17  22
ENDBRANCH   1  17
TORSDOF 5
ENDMDL
MODEL 7
REMARK VINA RESULT:    -6.124      3.653      6.387
REMARK INTER + INTRA:          -8.825
REMARK INTER:                  -8.635
REMARK INTRA:                  -0.190
REMARK UNBOUND:                -0.910
REMARK  Name = 
REMARK  5 active torsions:
REMARK  status: ('A' for Active; 'I' for Inactive)
REMARK    1  A    between atoms: C_2  and  C_3
REMARK    2  A    between atoms: C_6  and  N_7
REMARK    3  A    between atoms: N_7  and  C_8
REMARK    4  A    between atoms: C_8  and  C_9
REMARK    5  A    between atoms: C_13  and  N_14
REMARK                            x       y       z     vdW  Elec       q    Type
REMARK                         _______ _______ _______ _____ _____    ______ ____
ROOT
ATOM      1  C   UNL     1      47.969   7.781  13.100  0.00  0.00    +0.000 C 
ATOM      2  C   UNL     1      48.356   8.793  12.042  0.00  0.00    +0.000 C 
ATOM      3  C   UNL     1      48.525   7.337  11.759  0.00  0.00    +0.000 C 
ENDROOT
BRANCH   1   4
ATOM      4  C   UNL     1      48.844   7.509  14.323  0.00  0.00    +0.000 A 
ATOM      5  C   UNL     1      50.227   7.747  14.342  0.00  0.00    +0.000 A 
ATOM      6  C   UNL     1      51.020   7.320  15.412  0.00  0.00    +0.000 A 
ATOM      7  C   UNL     1      50.449   6.592  16.462  0.00  0.00    +0.000 A 
ATOM      8  C   UNL     1      49.080   6.317  16.483  0.00  0.00    +0.000 A 
ATOM      9  C   UNL     1      48.306   6.868  15.450  0.00  0.00    +0.000 A 
BRANCH   8  10
ATOM     10  N   UNL     1      48.500   5.500  17.429  0.00  0.00    +0.000 N 
ATOM     11  C   UNL     1      48.740   5.688  18.870  0.00  0.00    +0.000 C 
ATOM     12  C   UNL     1      49.244   4.372  19.497  0.00  0.00    +0.000 C 
ATOM     13  N   UNL     1      48.342   3.227  19.238  0.00  0.00    +0.000 NA
ATOM     14  C   UNL     1      48.145   3.098  17.774  0.00  0.00    +0.000 C 
ATOM     15  C   UNL     1      47.614   4.383  17.093  0.00  0.00    +0.000 C 
ATOM     16  H   UNL     1      47.437   3.447  19.656  0.00  0.00    +0.000 HD
ENDBRANCH   8  10
ENDBRANCH   1   4
BRANCH   1  17
ATOM     17  N   UNL     1      46.516   7.610  13.355  0.00  0.00    +0.000 N 
ATOM     18  H   UNL     1      45.967   8.465  13.387  0.00  0.00    +0.000 HD
BRANCH  17  22
ATOM     19  C   UNL     1      44.322   4.237  12.213  0.00  0.00    +0.000 A 
ATOM     20  N   UNL     1      45.279   4.076  13.163  0.00  0.00    +0.000 NA
ATOM     21  C   UNL     1      45.973   5.192  13.512  0.00  0.00    +0.000 A 
ATOM     22  C   UNL     1      45.796   6.463  12.957  0.00  0.00    +0.000 A 
ATOM     23  C   UNL     1      44.814   6.569  11.971  0.00  0.00    +0.000 A 
ATOM     24  C   UNL     1      44.070   5.451  11.592  0.00  0.00    +0.000 A 
ATOM     25  F   UNL     1      43.125   5.569  10.654  0.00  0.00    +0.000 F 
BRANCH  19  27
ATOM     26  N   UNL     1      42.971   2.106  11.570  0.00  0.00    +0.000 NA
ATOM     27  C   UNL     1      43.567   3.061  11.868  0.00  0.00    +0.000 C 
ENDBRANCH  19  27
ENDBRANCH  17  22
ENDBRANCH   1  17
TORSDOF 5
ENDMDL
MODEL 8
REMARK VINA RESULT:    -6.030      3.758      7.321
REMARK INTER + INTRA:          -8.702
REMARK INTER:                  -8.208
REMARK INTRA:                  -0.495
REMARK UNBOUND:                -0.910
REMARK  Name = 
REMARK  5 active torsions:
REMARK  status: ('A' for Active; 'I' for Inactive)
REMARK    1  A    between atoms: C_2  and  C_3
REMARK    2  A    between atoms: C_6  and  N_7
REMARK    3  A    between atoms: N_7  and  C_8
REMARK    4  A    between atoms: C_8  and  C_9
REMARK    5  A    between atoms: C_13  and  N_14
REMARK                            x       y       z     vdW  Elec       q    Type
REMARK                         _______ _______ _______ _____ _____    ______ ____
ROOT
ATOM      1  C   UNL     1      48.871   8.130  12.607  0.00  0.00    +0.000 C 
ATOM      2  C   UNL     1      49.842   7.316  11.777  0.00  0.00    +0.000 C 
ATOM      3  C   UNL     1      49.965   8.804  11.797  0.00  0.00    +0.000 C 
ENDROOT
BRANCH   1   4
ATOM      4  C   UNL     1      47.434   8.389  12.156  0.00  0.00    +0.000 A 
ATOM      5  C   UNL     1      46.786   9.620  12.336  0.00  0.00    +0.000 A 
ATOM      6  C   UNL     1      45.420   9.764  12.075  0.00  0.00    +0.000 A 
ATOM      7  C   UNL     1      44.661   8.656  11.680  0.00  0.00    +0.000 A 
ATOM      8  C   UNL     1      45.255   7.406  11.500  0.00  0.00    +0.000 A 
ATOM      9  C   UNL     1      46.648   7.337  11.658  0.00  0.00    +0.000 A 
BRANCH   8  10
ATOM     10  N   UNL     1      44.528   6.266  11.235  0.00  0.00    +0.000 N 
ATOM     11  C   UNL     1      43.055   6.258  11.279  0.00  0.00    +0.000 C 
ATOM     12  C   UNL     1      42.563   5.145  12.227  0.00  0.00    +0.000 C 
ATOM     13  N   UNL     1      43.108   3.811  11.884  0.00  0.00    +0.000 NA
ATOM     14  C   UNL     1      44.587   3.894  11.857  0.00  0.00    +0.000 C 
ATOM     15  C   UNL     1      45.141   4.979  10.900  0.00  0.00    +0.000 C 
ATOM     16  H   UNL     1      42.790   3.583  10.941  0.00  0.00    +0.000 HD
ENDBRANCH   8  10
ENDBRANCH   1   4
BRANCH   1  17
ATOM     17  N   UNL     1      49.030   8.050  14.081  0.00  0.00    +0.000 N 
ATOM     18  H   UNL     1      49.035   8.938  14.576  0.00  0.00    +0.000 HD
BRANCH  17  22
ATOM     19  C   UNL     1      47.750   4.773  16.344  0.00  0.00    +0.000 A 
ATOM     20  N   UNL     1      47.397   4.812  15.032  0.00  0.00    +0.000 NA
ATOM     21  C   UNL     1      47.830   5.890  14.326  0.00  0.00    +0.000 A 
ATOM     22  C   UNL     1      48.574   6.953  14.845  0.00  0.00    +0.000 A 
ATOM     23  C   UNL     1      48.893   6.873  16.201  0.00  0.00    +0.000 A 
ATOM     24  C   UNL     1      48.480   5.779  16.960  0.00  0.00    +0.000 A 
ATOM     25  F   UNL     1      48.802   5.709  18.256  0.00  0.00    +0.000 F 
BRANCH  19  27
ATOM     26  N   UNL     1      46.971   2.666  17.660  0.00  0.00    +0.000 NA
ATOM     27  C   UNL     1      47.318   3.616  17.083  0.00  0.00    +0.000 C 
ENDBRANCH  19  27
ENDBRANCH  17  22
ENDBRANCH   1  17
TORSDOF 5
ENDMDL
MODEL 9
REMARK VINA RESULT:    -5.676      4.353      7.374
REMARK INTER + INTRA:          -8.246
REMARK INTER:                  -7.348
REMARK INTRA:                  -0.898
REMARK UNBOUND:                -0.910
REMARK  Name = 
REMARK  5 active torsions:
REMARK  status: ('A' for Active; 'I' for Inactive)
REMARK    1  A    between atoms: C_2  and  C_3
REMARK    2  A    between atoms: C_6  and  N_7
REMARK    3  A    between atoms: N_7  and  C_8
REMARK    4  A    between atoms: C_8  and  C_9
REMARK    5  A    between atoms: C_13  and  N_14
REMARK                            x       y       z     vdW  Elec       q    Type
REMARK                         _______ _______ _______ _____ _____    ______ ____
ROOT
ATOM      1  C   UNL     1      49.526   7.877  14.010  0.00  0.00    +0.000 C 
ATOM      2  C   UNL     1      49.873   9.082  13.162  0.00  0.00    +0.000 C 
ATOM      3  C   UNL     1      50.966   8.331  13.847  0.00  0.00    +0.000 C 
ENDROOT
BRANCH   1   4
ATOM      4  C   UNL     1      48.924   8.013  15.409  0.00  0.00    +0.000 A 
ATOM      5  C   UNL     1      48.380   9.211  15.894  0.00  0.00    +0.000 A 
ATOM      6  C   UNL     1      48.004   9.345  17.234  0.00  0.00    +0.000 A 
ATOM      7  C   UNL     1      48.220   8.293  18.131  0.00  0.00    +0.000 A 
ATOM      8  C   UNL     1      48.772   7.085  17.702  0.00  0.00    +0.000 A 
ATOM      9  C   UNL     1      49.022   6.955  16.327  0.00  0.00    +0.000 A 
BRANCH   8  10
ATOM     10  N   UNL     1      49.117   6.073  18.571  0.00  0.00    +0.000 N 
ATOM     11  C   UNL     1      49.429   4.714  18.096  0.00  0.00    +0.000 C 
ATOM     12  C   UNL     1      48.546   3.684  18.829  0.00  0.00    +0.000 C 
ATOM     13  N   UNL     1      48.644   3.784  20.303  0.00  0.00    +0.000 NA
ATOM     14  C   UNL     1      48.320   5.172  20.708  0.00  0.00    +0.000 C 
ATOM     15  C   UNL     1      49.195   6.251  20.022  0.00  0.00    +0.000 C 
ATOM     16  H   UNL     1      49.616   3.603  20.559  0.00  0.00    +0.000 HD
ENDBRANCH   8  10
ENDBRANCH   1   4
BRANCH   1  17
ATOM     17  N   UNL     1      49.081   6.661  13.283  0.00  0.00    +0.000 N 
ATOM     18  H   UNL     1      49.725   5.874  13.298  0.00  0.00    +0.000 HD
BRANCH  17  22
ATOM     19  C   UNL     1      45.036   5.668  12.897  0.00  0.00    +0.000 A 
ATOM     20  N   UNL     1      45.815   4.859  13.661  0.00  0.00    +0.000 NA
ATOM     21  C   UNL     1      47.125   5.210  13.766  0.00  0.00    +0.000 A 
ATOM     22  C   UNL     1      47.722   6.306  13.137  0.00  0.00    +0.000 A 
ATOM     23  C   UNL     1      46.882   7.093  12.349  0.00  0.00    +0.000 A 
ATOM     24  C   UNL     1      45.529   6.776  12.223  0.00  0.00    +0.000 A 
ATOM     25  F   UNL     1      44.733   7.545  11.474  0.00  0.00    +0.000 F 
BRANCH  19  27
ATOM     26  N   UNL     1      42.512   5.049  12.733  0.00  0.00    +0.000 NA
ATOM     27  C   UNL     1      43.644   5.314  12.813  0.00  0.00    +0.000 C 
ENDBRANCH  19  27
ENDBRANCH  17  22
ENDBRANCH   1  17
TORSDOF 5
ENDMDL
