MODEL 1
REMARK VINA RESULT:    -8.624      0.000      0.000
REMARK INTER + INTRA:         -11.998
REMARK INTER:                 -11.145
REMARK INTRA:                  -0.853
REMARK UNBOUND:                -0.853
REMARK  Name = 
REMARK  6 active torsions:
REMARK  status: ('A' for Active; 'I' for Inactive)
REMARK    1  A    between atoms: C_1  and  C_2
REMARK    2  A    between atoms: C_5  and  C_6
REMARK    3  A    between atoms: C_6  and  C_7
REMARK    4  A    between atoms: C_10  and  C_11
REMARK    5  A    between atoms: C_11  and  N_12
REMARK    6  A    between atoms: C_13  and  C_15
REMARK                            x       y       z     vdW  Elec       q    Type
REMARK                         _______ _______ _______ _____ _____    ______ ____
ROOT
ATOM      1  C   UNL     1      47.108   8.206  13.393  0.00  0.00    +0.000 C 
ENDROOT
BRANCH   1   5
ATOM      2  C   UNL     1      44.779   5.568  10.871  0.00  0.00    +0.000 A 
ATOM      3  C   UNL     1      46.099   5.894  10.533  0.00  0.00    +0.000 A 
ATOM      4  C   UNL     1      46.844   6.769  11.330  0.00  0.00    +0.000 A 
ATOM      5  C   UNL     1      46.288   7.327  12.488  0.00  0.00    +0.000 A 
ATOM      6  C   UNL     1      44.952   7.042  12.798  0.00  0.00    +0.000 A 
ATOM      7  C   UNL     1      44.207   6.165  12.003  0.00  0.00    +0.000 A 
BRANCH   2   8
ATOM      8  C   UNL     1      43.998   4.567  10.051  0.00  0.00    +0.000 C 
BRANCH   8  13
ATOM      9  C   UNL     1      47.200   0.981   6.864  0.00  0.00    +0.000 C 
ATOM     10  C   UNL     1      46.387   1.953   7.664  0.00  0.00    +0.000 A 
ATOM     11  C   UNL     1      46.300   3.291   7.293  0.00  0.00    +0.000 A 
ATOM     12  C   UNL     1      45.526   4.157   8.067  0.00  0.00    +0.000 A 
ATOM     13  C   UNL     1      44.856   3.674   9.192  0.00  0.00    +0.000 A 
ATOM     14  C   UNL     1      45.021   2.327   9.493  0.00  0.00    +0.000 A 
ATOM     15  N   UNL     1      45.760   1.463   8.758  0.00  0.00    +0.000 NA
ENDBRANCH   8  13
ENDBRANCH   2   8
ENDBRANCH   1   5
BRANCH   1  16
ATOM     16  N   UNL     1      47.509   7.525  14.599  0.00  0.00    +0.000 N 
ATOM     17  C   UNL     1      48.722   6.887  14.659  0.00  0.00    +0.000 C 
ATOM     18  O   UNL     1      49.523   6.928  13.727  0.00  0.00    +0.000 OA
ATOM     19  H   UNL     1      46.784   7.303  15.275  0.00  0.00    +0.000 HD
BRANCH  17  20
ATOM     20  C   UNL     1      49.051   6.198  15.912  0.00  0.00    +0.000 A 
ATOM     21  C   UNL     1      50.123   6.643  16.675  0.00  0.00    +0.000 A 
ATOM     22  S   UNL     1      50.367   5.748  18.105  0.00  0.00    +0.000 S 
ATOM     23  C   UNL     1      49.076   4.704  17.734  0.00  0.00    +0.000 A 
ATOM     24  N   UNL     1      48.764   3.663  18.551  0.00  0.00    +0.000 NA
ATOM     25  C   UNL     1      47.785   2.934  18.134  0.00  0.00    +0.000 A 
ATOM     26  N   UNL     1      47.081   3.156  16.980  0.00  0.00    +0.000 N 
ATOM     27  C   UNL     1      47.338   4.216  16.139  0.00  0.00    +0.000 A 
ATOM     28  O   UNL     1      46.655   4.419  15.142  0.00  0.00    +0.000 OA
ATOM     29  C   UNL     1      48.449   5.052  16.550  0.00  0.00    +0.000 A 
ATOM     30  H   UNL     1      46.314   2.556  16.718  0.00  0.00    +0.000 HD
ENDBRANCH  17  20
ENDBRANCH   1  16
TORSDOF 5
ENDMDL
MODEL 2
REMARK VINA RESULT:    -7.803      2.236      2.681
REMARK INTER + INTRA:         -10.937
REMARK INTER:                  -9.863
REMARK INTRA:                  -1.074
REMARK UNBOUND:                -0.853
REMARK  Name = 
REMARK  6 active torsions:
REMARK  status: ('A' for Active; 'I' for Inactive)
REMARK    1  A    between atoms: C_1  and  C_2
REMARK    2  A    between atoms: C_5  and  C_6
REMARK    3  A    between atoms: C_6  and  C_7
REMARK    4  A    between atoms: C_10  and  C_11
REMARK    5  A    between atoms: C_11  and  N_12
REMARK    6  A    between atoms: C_13  and  C_15
REMARK                            x       y       z     vdW  Elec       q    Type
REMARK                         _______ _______ _______ _____ _____    ______ ____
ROOT
ATOM      1  C   UNL     1      47.956   7.532  13.978  0.00  0.00    +0.000 C 
ENDROOT
BRANCH   1   5
ATOM      2  C   UNL     1      45.171   5.433  11.413  0.00  0.00    +0.000 A 
ATOM      3  C   UNL     1      45.328   6.821  11.306  0.00  0.00    +0.000 A 
ATOM      4  C   UNL     1      46.205   7.506  12.154  0.00  0.00    +0.000 A 
ATOM      5  C   UNL     1      46.951   6.815  13.116  0.00  0.00    +0.000 A 
ATOM      6  C   UNL     1      46.756   5.435  13.257  0.00  0.00    +0.000 A 
ATOM      7  C   UNL     1      45.881   4.749  12.409  0.00  0.00    +0.000 A 
BRANCH   2   8
ATOM      8  C   UNL     1      44.278   4.683  10.451  0.00  0.00    +0.000 C 
BRANCH   8  13
ATOM      9  C   UNL     1      47.237   1.812   6.415  0.00  0.00    +0.000 C 
ATOM     10  C   UNL     1      46.448   2.513   7.480  0.00  0.00    +0.000 A 
ATOM     11  C   UNL     1      45.771   1.793   8.460  0.00  0.00    +0.000 A 
ATOM     12  C   UNL     1      45.054   2.490   9.434  0.00  0.00    +0.000 A 
ATOM     13  C   UNL     1      45.027   3.886   9.413  0.00  0.00    +0.000 A 
ATOM     14  C   UNL     1      45.717   4.513   8.382  0.00  0.00    +0.000 A 
ATOM     15  N   UNL     1      46.426   3.864   7.428  0.00  0.00    +0.000 NA
ENDBRANCH   8  13
ENDBRANCH   2   8
ENDBRANCH   1   5
BRANCH   1  16
ATOM     16  N   UNL     1      47.936   7.067  15.342  0.00  0.00    +0.000 N 
ATOM     17  C   UNL     1      49.089   6.618  15.935  0.00  0.00    +0.000 C 
ATOM     18  O   UNL     1      50.173   6.656  15.354  0.00  0.00    +0.000 OA
ATOM     19  H   UNL     1      47.033   6.831  15.744  0.00  0.00    +0.000 HD
BRANCH  17  20
ATOM     20  C   UNL     1      48.986   6.140  17.318  0.00  0.00    +0.000 A 
ATOM     21  C   UNL     1      49.388   4.846  17.625  0.00  0.00    +0.000 A 
ATOM     22  S   UNL     1      49.218   4.448  19.274  0.00  0.00    +0.000 S 
ATOM     23  C   UNL     1      48.559   5.975  19.629  0.00  0.00    +0.000 A 
ATOM     24  N   UNL     1      48.153   6.283  20.890  0.00  0.00    +0.000 NA
ATOM     25  C   UNL     1      47.644   7.462  21.011  0.00  0.00    +0.000 A 
ATOM     26  N   UNL     1      47.512   8.367  19.991  0.00  0.00    +0.000 N 
ATOM     27  C   UNL     1      47.940   8.113  18.706  0.00  0.00    +0.000 A 
ATOM     28  O   UNL     1      47.857   8.963  17.827  0.00  0.00    +0.000 OA
ATOM     29  C   UNL     1      48.497   6.788  18.510  0.00  0.00    +0.000 A 
ATOM     30  H   UNL     1      47.118   9.281  20.156  0.00  0.00    +0.000 HD
ENDBRANCH  17  20
ENDBRANCH   1  16
TORSDOF 5
ENDMDL
MODEL 3
REMARK VINA RESULT:    -7.670      2.658      4.540
REMARK INTER + INTRA:         -10.765
REMARK INTER:                  -9.642
REMARK INTRA:                  -1.123
REMARK UNBOUND:                -0.853
REMARK  Name = 
REMARK  6 active torsions:
REMARK  status: ('A' for Active; 'I' for Inactive)
REMARK    1  A    between atoms: C_1  and  C_2
REMARK    2  A    between atoms: C_5  and  C_6
REMARK    3  A    between atoms: C_6  and  C_7
REMARK    4  A    between atoms: C_10  and  C_11
REMARK    5  A    between atoms: C_11  and  N_12
REMARK    6  A    between atoms: C_13  and  C_15
REMARK                            x       y       z     vdW  Elec       q    Type
REMARK                         _______ _______ _______ _____ _____    ______ ____
ROOT
ATOM      1  C   UNL     1      47.172   5.445  14.589  0.00  0.00    +0.000 C 
ENDROOT
BRANCH   1   5
ATOM      2  C   UNL     1      44.929   4.018  11.172  0.00  0.00    +0.000 A 
ATOM      3  C   UNL     1      45.188   5.386  11.332  0.00  0.00    +0.000 A 
ATOM      4  C   UNL     1      45.886   5.853  12.450  0.00  0.00    +0.000 A 
ATOM      5  C   UNL     1      46.351   4.960  13.424  0.00  0.00    +0.000 A 
ATOM      6  C   UNL     1      46.048   3.599  13.290  0.00  0.00    +0.000 A 
ATOM      7  C   UNL     1      45.352   3.131  12.171  0.00  0.00    +0.000 A 
BRANCH   2   8
ATOM      8  C   UNL     1      44.238   3.505   9.929  0.00  0.00    +0.000 C 
BRANCH   8  13
ATOM      9  C   UNL     1      47.867   2.276   5.616  0.00  0.00    +0.000 C 
ATOM     10  C   UNL     1      46.921   2.544   6.748  0.00  0.00    +0.000 A 
ATOM     11  C   UNL     1      46.558   1.534   7.633  0.00  0.00    +0.000 A 
ATOM     12  C   UNL     1      45.678   1.833   8.675  0.00  0.00    +0.000 A 
ATOM     13  C   UNL     1      45.180   3.130   8.813  0.00  0.00    +0.000 A 
ATOM     14  C   UNL     1      45.585   4.065   7.867  0.00  0.00    +0.000 A 
ATOM     15  N   UNL     1      46.441   3.805   6.851  0.00  0.00    +0.000 NA
ENDBRANCH   8  13
ENDBRANCH   2   8
ENDBRANCH   1   5
BRANCH   1  16
ATOM     16  N   UNL     1      47.716   6.761  14.363  0.00  0.00    +0.000 N 
ATOM     17  C   UNL     1      48.943   7.098  14.877  0.00  0.00    +0.000 C 
ATOM     18  O   UNL     1      49.638   6.282  15.481  0.00  0.00    +0.000 OA
ATOM     19  H   UNL     1      47.073   7.489  14.066  0.00  0.00    +0.000 HD
BRANCH  17  20
ATOM     20  C   UNL     1      49.420   8.462  14.624  0.00  0.00    +0.000 A 
ATOM     21  C   UNL     1      49.914   9.218  15.679  0.00  0.00    +0.000 A 
ATOM     22  S   UNL     1      50.441  10.773  15.221  0.00  0.00    +0.000 S 
ATOM     23  C   UNL     1      49.986  10.509  13.604  0.00  0.00    +0.000 A 
ATOM     24  N   UNL     1      50.136  11.484  12.668  0.00  0.00    +0.000 NA
ATOM     25  C   UNL     1      49.722  11.160  11.491  0.00  0.00    +0.000 A 
ATOM     26  N   UNL     1      49.180   9.947  11.158  0.00  0.00    +0.000 N 
ATOM     27  C   UNL     1      49.039   8.917  12.063  0.00  0.00    +0.000 A 
ATOM     28  O   UNL     1      48.601   7.825  11.722  0.00  0.00    +0.000 OA
ATOM     29  C   UNL     1      49.467   9.240  13.410  0.00  0.00    +0.000 A 
ATOM     30  H   UNL     1      48.888   9.751  10.212  0.00  0.00    +0.000 HD
ENDBRANCH  17  20
ENDBRANCH   1  16
TORSDOF 5
ENDMDL
MODEL 4
REMARK VINA RESULT:    -7.420      2.217      2.681
REMARK INTER + INTRA:         -10.441
REMARK INTER:                  -9.448
REMARK INTRA:                  -0.993
REMARK UNBOUND:                -0.853
REMARK  Name = 
REMARK  6 active torsions:
REMARK  status: ('A' for Active; 'I' for Inactive)
REMARK    1  A    between atoms: C_1  and  C_2
REMARK    2  A    between atoms: C_5  and  C_6
REMARK    3  A    between atoms: C_6  and  C_7
REMARK    4  A    between atoms: C_10  and  C_11
REMARK    5  A    between atoms: C_11  and  N_12
REMARK    6  A    between atoms: C_13  and  C_15
REMARK                            x       y       z     vdW  Elec       q    Type
REMARK                         _______ _______ _______ _____ _____    ______ ____
ROOT
ATOM      1  C   UNL     1      48.605   7.399  14.979  0.00  0.00    +0.000 C 
ENDROOT
BRANCH   1   5
ATOM      2  C   UNL     1      45.669   5.544  12.393  0.00  0.00    +0.000 A 
ATOM      3  C   UNL     1      46.512   4.758  13.192  0.00  0.00    +0.000 A 
ATOM      4  C   UNL     1      47.481   5.354  14.005  0.00  0.00    +0.000 A 
ATOM      5  C   UNL     1      47.619   6.747  14.047  0.00  0.00    +0.000 A 
ATOM      6  C   UNL     1      46.812   7.529  13.211  0.00  0.00    +0.000 A 
ATOM      7  C   UNL     1      45.841   6.934  12.398  0.00  0.00    +0.000 A 
BRANCH   2   8
ATOM      8  C   UNL     1      44.575   4.906  11.569  0.00  0.00    +0.000 C 
BRANCH   8  13
ATOM      9  C   UNL     1      46.471   3.027   6.455  0.00  0.00    +0.000 C 
ATOM     10  C   UNL     1      45.953   3.470   7.791  0.00  0.00    +0.000 A 
ATOM     11  C   UNL     1      45.306   2.578   8.639  0.00  0.00    +0.000 A 
ATOM     12  C   UNL     1      44.846   3.035   9.875  0.00  0.00    +0.000 A 
ATOM     13  C   UNL     1      45.041   4.368  10.240  0.00  0.00    +0.000 A 
ATOM     14  C   UNL     1      45.680   5.187   9.316  0.00  0.00    +0.000 A 
ATOM     15  N   UNL     1      46.142   4.770   8.114  0.00  0.00    +0.000 NA
ENDBRANCH   8  13
ENDBRANCH   2   8
ENDBRANCH   1   5
BRANCH   1  16
ATOM     16  N   UNL     1      49.566   6.460  15.501  0.00  0.00    +0.000 N 
ATOM     17  C   UNL     1      49.833   6.423  16.847  0.00  0.00    +0.000 C 
ATOM     18  O   UNL     1      49.226   7.132  17.647  0.00  0.00    +0.000 OA
ATOM     19  H   UNL     1      50.214   6.037  14.843  0.00  0.00    +0.000 HD
BRANCH  17  20
ATOM     20  C   UNL     1      50.839   5.456  17.300  0.00  0.00    +0.000 A 
ATOM     21  C   UNL     1      52.055   5.915  17.790  0.00  0.00    +0.000 A 
ATOM     22  S   UNL     1      53.108   4.671  18.288  0.00  0.00    +0.000 S 
ATOM     23  C   UNL     1      51.994   3.471  17.825  0.00  0.00    +0.000 A 
ATOM     24  N   UNL     1      52.298   2.151  17.954  0.00  0.00    +0.000 NA
ATOM     25  C   UNL     1      51.376   1.351  17.536  0.00  0.00    +0.000 A 
ATOM     26  N   UNL     1      50.175   1.748  17.011  0.00  0.00    +0.000 N 
ATOM     27  C   UNL     1      49.810   3.071  16.893  0.00  0.00    +0.000 A 
ATOM     28  O   UNL     1      48.705   3.392  16.469  0.00  0.00    +0.000 OA
ATOM     29  C   UNL     1      50.824   4.013  17.325  0.00  0.00    +0.000 A 
ATOM     30  H   UNL     1      49.489   1.069  16.715  0.00  0.00    +0.000 HD
ENDBRANCH  17  20
ENDBRANCH   1  16
TORSDOF 5
ENDMDL
MODEL 5
REMARK VINA RESULT:    -7.290      2.967      3.751
REMARK INTER + INTRA:         -10.274
REMARK INTER:                  -9.214
REMARK INTRA:                  -1.060
REMARK UNBOUND:                -0.853
REMARK  Name = 
REMARK  6 active torsions:
REMARK  status: ('A' for Active; 'I' for Inactive)
REMARK    1  A    between atoms: C_1  and  C_2
REMARK    2  A    between atoms: C_5  and  C_6
REMARK    3  A    between atoms: C_6  and  C_7
REMARK    4  A    between atoms: C_10  and  C_11
REMARK    5  A    between atoms: C_11  and  N_12
REMARK    6  A    between atoms: C_13  and  C_15
REMARK                            x       y       z     vdW  Elec       q    Type
REMARK                         _______ _______ _______ _____ _____    ______ ____
ROOT
ATOM      1  C   UNL     1      47.918   5.116  15.022  0.00  0.00    +0.000 C 
ENDROOT
BRANCH   1   5
ATOM      2  C   UNL     1      45.223   4.389  11.713  0.00  0.00    +0.000 A 
ATOM      3  C   UNL     1      45.651   5.690  12.009  0.00  0.00    +0.000 A 
ATOM      4  C   UNL     1      46.498   5.931  13.096  0.00  0.00    +0.000 A 
ATOM      5  C   UNL     1      46.944   4.875  13.900  0.00  0.00    +0.000 A 
ATOM      6  C   UNL     1      46.475   3.582  13.635  0.00  0.00    +0.000 A 
ATOM      7  C   UNL     1      45.630   3.340  12.547  0.00  0.00    +0.000 A 
BRANCH   2   8
ATOM      8  C   UNL     1      44.366   4.118  10.497  0.00  0.00    +0.000 C 
BRANCH   8  13
ATOM      9  C   UNL     1      47.388   2.499   5.858  0.00  0.00    +0.000 C 
ATOM     10  C   UNL     1      46.592   2.869   7.073  0.00  0.00    +0.000 A 
ATOM     11  C   UNL     1      46.111   1.893   7.939  0.00  0.00    +0.000 A 
ATOM     12  C   UNL     1      45.378   2.287   9.060  0.00  0.00    +0.000 A 
ATOM     13  C   UNL     1      45.140   3.642   9.294  0.00  0.00    +0.000 A 
ATOM     14  C   UNL     1      45.644   4.541   8.361  0.00  0.00    +0.000 A 
ATOM     15  N   UNL     1      46.363   4.188   7.269  0.00  0.00    +0.000 NA
ENDBRANCH   8  13
ENDBRANCH   2   8
ENDBRANCH   1   5
BRANCH   1  16
ATOM     16  N   UNL     1      47.866   6.472  15.509  0.00  0.00    +0.000 N 
ATOM     17  C   UNL     1      49.021   7.198  15.651  0.00  0.00    +0.000 C 
ATOM     18  O   UNL     1      50.115   6.749  15.313  0.00  0.00    +0.000 OA
ATOM     19  H   UNL     1      47.019   6.766  15.986  0.00  0.00    +0.000 HD
BRANCH  17  20
ATOM     20  C   UNL     1      48.890   8.563  16.174  0.00  0.00    +0.000 A 
ATOM     21  C   UNL     1      49.369   9.630  15.423  0.00  0.00    +0.000 A 
ATOM     22  S   UNL     1      49.130  11.148  16.159  0.00  0.00    +0.000 S 
ATOM     23  C   UNL     1      48.419  10.432  17.528  0.00  0.00    +0.000 A 
ATOM     24  N   UNL     1      48.012  11.192  18.580  0.00  0.00    +0.000 NA
ATOM     25  C   UNL     1      47.519  10.518  19.563  0.00  0.00    +0.000 A 
ATOM     26  N   UNL     1      47.387   9.154  19.589  0.00  0.00    +0.000 N 
ATOM     27  C   UNL     1      47.753   8.347  18.534  0.00  0.00    +0.000 A 
ATOM     28  O   UNL     1      47.572   7.135  18.566  0.00  0.00    +0.000 OA
ATOM     29  C   UNL     1      48.338   9.055  17.412  0.00  0.00    +0.000 A 
ATOM     30  H   UNL     1      46.978   8.688  20.385  0.00  0.00    +0.000 HD
ENDBRANCH  17  20
ENDBRANCH   1  16
TORSDOF 5
ENDMDL
MODEL 6
REMARK VINA RESULT:    -7.288      4.200      9.148
REMARK INTER + INTRA:         -10.271
REMARK INTER:                  -9.809
REMARK INTRA:                  -0.462
REMARK UNBOUND:                -0.853
REMARK  Name = 
REMARK  6 active torsions:
REMARK  status: ('A' for Active; 'I' for Inactive)
REMARK    1  A    between atoms: C_1  and  C_2
REMARK    2  A    between atoms: C_5  and  C_6
REMARK    3  A    between atoms: C_6  and  C_7
REMARK    4  A    between atoms: C_10  and  C_11
REMARK    5  A    between atoms: C_11  and  N_12
REMARK    6  A    between atoms: C_13  and  C_15
REMARK                            x       y       z     vdW  Elec       q    Type
REMARK                         _______ _______ _______ _____ _____    ______ ____
ROOT
ATOM      1  C   UNL     1      47.147   3.440  16.895  0.00  0.00    +0.000 C 
ENDROOT
BRANCH   1   5
ATOM      2  C   UNL     1      51.399   3.681  17.671  0.00  0.00    +0.000 A 
ATOM      3  C   UNL     1      50.800   2.452  17.364  0.00  0.00    +0.000 A 
ATOM      4  C   UNL     1      49.422   2.366  17.142  0.00  0.00    +0.000 A 
ATOM      5  C   UNL     1      48.617   3.510  17.210  0.00  0.00    +0.000 A 
ATOM      6  C   UNL     1      49.207   4.729  17.567  0.00  0.00    +0.000 A 
ATOM      7  C   UNL     1      50.585   4.816  17.787  0.00  0.00    +0.000 A 
BRANCH   2   8
ATOM      8  C   UNL     1      52.897   3.788  17.840  0.00  0.00    +0.000 C 
BRANCH   8  13
ATOM      9  C   UNL     1      55.444  -1.070  19.627  0.00  0.00    +0.000 C 
ATOM     10  C   UNL     1      54.779   0.172  19.115  0.00  0.00    +0.000 A 
ATOM     11  C   UNL     1      54.243   0.220  17.832  0.00  0.00    +0.000 A 
ATOM     12  C   UNL     1      53.629   1.397  17.401  0.00  0.00    +0.000 A 
ATOM     13  C   UNL     1      53.561   2.500  18.254  0.00  0.00    +0.000 A 
ATOM     14  C   UNL     1      54.144   2.361  19.509  0.00  0.00    +0.000 A 
ATOM     15  N   UNL     1      54.740   1.231  19.956  0.00  0.00    +0.000 NA
ENDBRANCH   8  13
ENDBRANCH   2   8
ENDBRANCH   1   5
BRANCH   1  16
ATOM     16  N   UNL     1      46.754   4.410  15.904  0.00  0.00    +0.000 N 
ATOM     17  C   UNL     1      46.896   4.128  14.568  0.00  0.00    +0.000 C 
ATOM     18  O   UNL     1      47.294   3.033  14.176  0.00  0.00    +0.000 OA
ATOM     19  H   UNL     1      46.637   5.372  16.210  0.00  0.00    +0.000 HD
BRANCH  17  20
ATOM     20  C   UNL     1      46.495   5.174  13.620  0.00  0.00    +0.000 A 
ATOM     21  C   UNL     1      47.387   6.193  13.311  0.00  0.00    +0.000 A 
ATOM     22  S   UNL     1      46.779   7.319  12.186  0.00  0.00    +0.000 S 
ATOM     23  C   UNL     1      45.284   6.511  12.104  0.00  0.00    +0.000 A 
ATOM     24  N   UNL     1      44.274   6.989  11.329  0.00  0.00    +0.000 NA
ATOM     25  C   UNL     1      43.188   6.296  11.385  0.00  0.00    +0.000 A 
ATOM     26  N   UNL     1      43.020   5.163  12.137  0.00  0.00    +0.000 N 
ATOM     27  C   UNL     1      44.024   4.623  12.910  0.00  0.00    +0.000 A 
ATOM     28  O   UNL     1      43.860   3.577  13.528  0.00  0.00    +0.000 OA
ATOM     29  C   UNL     1      45.261   5.380  12.902  0.00  0.00    +0.000 A 
ATOM     30  H   UNL     1      42.147   4.657  12.125  0.00  0.00    +0.000 HD
ENDBRANCH  17  20
ENDBRANCH   1  16
TORSDOF 5
ENDMDL
MODEL 7
REMARK VINA RESULT:    -7.205      2.330      3.071
REMARK INTER + INTRA:         -10.163
REMARK INTER:                  -9.065
REMARK INTRA:                  -1.098
REMARK UNBOUND:                -0.853
REMARK  Name = 
REMARK  6 active torsions:
REMARK  status: ('A' for Active; 'I' for Inactive)
REMARK    1  A    between atoms: C_1  and  C_2
REMARK    2  A    between atoms: C_5  and  C_6
REMARK    3  A    between atoms: C_6  and  C_7
REMARK    4  A    between atoms: C_10  and  C_11
REMARK    5  A    between atoms: C_11  and  N_12
REMARK    6  A    between atoms: C_13  and  C_15
REMARK                            x       y       z     vdW  Elec       q    Type
REMARK                         _______ _______ _______ _____ _____    ______ ____
ROOT
ATOM      1  C   UNL     1      47.025   8.457  13.779  0.00  0.00    +0.000 C 
ENDROOT
BRANCH   1   5
ATOM      2  C   UNL     1      44.889   5.698  11.215  0.00  0.00    +0.000 A 
ATOM      3  C   UNL     1      45.916   5.241  12.053  0.00  0.00    +0.000 A 
ATOM      4  C   UNL     1      46.627   6.135  12.860  0.00  0.00    +0.000 A 
ATOM      5  C   UNL     1      46.318   7.501  12.855  0.00  0.00    +0.000 A 
ATOM      6  C   UNL     1      45.328   7.964  11.980  0.00  0.00    +0.000 A 
ATOM      7  C   UNL     1      44.614   7.071  11.174  0.00  0.00    +0.000 A 
BRANCH   2   8
ATOM      8  C   UNL     1      44.073   4.724  10.397  0.00  0.00    +0.000 C 
BRANCH   8  13
ATOM      9  C   UNL     1      47.107   1.262   6.921  0.00  0.00    +0.000 C 
ATOM     10  C   UNL     1      46.342   2.202   7.802  0.00  0.00    +0.000 A 
ATOM     11  C   UNL     1      46.374   3.576   7.581  0.00  0.00    +0.000 A 
ATOM     12  C   UNL     1      45.641   4.412   8.425  0.00  0.00    +0.000 A 
ATOM     13  C   UNL     1      44.892   3.864   9.468  0.00  0.00    +0.000 A 
ATOM     14  C   UNL     1      44.939   2.483   9.619  0.00  0.00    +0.000 A 
ATOM     15  N   UNL     1      45.636   1.647   8.813  0.00  0.00    +0.000 NA
ENDBRANCH   8  13
ENDBRANCH   2   8
ENDBRANCH   1   5
BRANCH   1  16
ATOM     16  N   UNL     1      48.080   7.817  14.523  0.00  0.00    +0.000 N 
ATOM     17  C   UNL     1      48.478   8.327  15.734  0.00  0.00    +0.000 C 
ATOM     18  O   UNL     1      47.913   9.292  16.246  0.00  0.00    +0.000 OA
ATOM     19  H   UNL     1      48.684   7.172  14.021  0.00  0.00    +0.000 HD
BRANCH  17  20
ATOM     20  C   UNL     1      49.573   7.634  16.422  0.00  0.00    +0.000 A 
ATOM     21  C   UNL     1      49.359   7.116  17.693  0.00  0.00    +0.000 A 
ATOM     22  S   UNL     1      50.721   6.330  18.351  0.00  0.00    +0.000 S 
ATOM     23  C   UNL     1      51.659   6.695  16.980  0.00  0.00    +0.000 A 
ATOM     24  N   UNL     1      52.968   6.329  16.913  0.00  0.00    +0.000 NA
ATOM     25  C   UNL     1      53.567   6.696  15.831  0.00  0.00    +0.000 A 
ATOM     26  N   UNL     1      52.978   7.385  14.805  0.00  0.00    +0.000 N 
ATOM     27  C   UNL     1      51.648   7.746  14.813  0.00  0.00    +0.000 A 
ATOM     28  O   UNL     1      51.137   8.315  13.855  0.00  0.00    +0.000 OA
ATOM     29  C   UNL     1      50.934   7.380  16.020  0.00  0.00    +0.000 A 
ATOM     30  H   UNL     1      53.500   7.629  13.977  0.00  0.00    +0.000 HD
ENDBRANCH  17  20
ENDBRANCH   1  16
TORSDOF 5
ENDMDL
MODEL 8
REMARK VINA RESULT:    -7.199      3.314      8.013
REMARK INTER + INTRA:         -10.156
REMARK INTER:                  -9.144
REMARK INTRA:                  -1.012
REMARK UNBOUND:                -0.853
REMARK  Name = 
REMARK  6 active torsions:
REMARK  status: ('A' for Active; 'I' for Inactive)
REMARK    1  A    between atoms: C_1  and  C_2
REMARK    2  A    between atoms: C_5  and  C_6
REMARK    3  A    between atoms: C_6  and  C_7
REMARK    4  A    between atoms: C_10  and  C_11
REMARK    5  A    between atoms: C_11  and  N_12
REMARK    6  A    between atoms: C_13  and  C_15
REMARK                            x       y       z     vdW  Elec       q    Type
REMARK                         _______ _______ _______ _____ _____    ______ ____
ROOT
ATOM      1  C   UNL     1      48.630   7.537  12.877  0.00  0.00    +0.000 C 
ENDROOT
BRANCH   1   5
ATOM      2  C   UNL     1      49.785   6.026  16.766  0.00  0.00    +0.000 A 
ATOM      3  C   UNL     1      48.518   5.741  16.240  0.00  0.00    +0.000 A 
ATOM      4  C   UNL     1      48.131   6.253  14.997  0.00  0.00    +0.000 A 
ATOM      5  C   UNL     1      49.008   7.049  14.250  0.00  0.00    +0.000 A 
ATOM      6  C   UNL     1      50.255   7.376  14.799  0.00  0.00    +0.000 A 
ATOM      7  C   UNL     1      50.643   6.864  16.041  0.00  0.00    +0.000 A 
BRANCH   2   8
ATOM      8  C   UNL     1      50.231   5.416  18.075  0.00  0.00    +0.000 C 
BRANCH   8  13
ATOM      9  C   UNL     1      53.250   0.522  17.607  0.00  0.00    +0.000 C 
ATOM     10  C   UNL     1      52.426   1.771  17.703  0.00  0.00    +0.000 A 
ATOM     11  C   UNL     1      51.085   1.774  17.334  0.00  0.00    +0.000 A 
ATOM     12  C   UNL     1      50.357   2.960  17.446  0.00  0.00    +0.000 A 
ATOM     13  C   UNL     1      50.978   4.115  17.923  0.00  0.00    +0.000 A 
ATOM     14  C   UNL     1      52.326   4.017  18.247  0.00  0.00    +0.000 A 
ATOM     15  N   UNL     1      53.056   2.880  18.154  0.00  0.00    +0.000 NA
ENDBRANCH   8  13
ENDBRANCH   2   8
ENDBRANCH   1   5
BRANCH   1  16
ATOM     16  N   UNL     1      47.880   6.555  12.135  0.00  0.00    +0.000 N 
ATOM     17  C   UNL     1      46.563   6.782  11.826  0.00  0.00    +0.000 C 
ATOM     18  O   UNL     1      46.004   7.840  12.108  0.00  0.00    +0.000 OA
ATOM     19  H   UNL     1      48.257   5.612  12.093  0.00  0.00    +0.000 HD
BRANCH  17  20
ATOM     20  C   UNL     1      45.860   5.726  11.088  0.00  0.00    +0.000 A 
ATOM     21  C   UNL     1      45.922   5.707   9.700  0.00  0.00    +0.000 A 
ATOM     22  S   UNL     1      45.066   4.413   8.994  0.00  0.00    +0.000 S 
ATOM     23  C   UNL     1      44.545   3.857  10.514  0.00  0.00    +0.000 A 
ATOM     24  N   UNL     1      43.727   2.776  10.619  0.00  0.00    +0.000 NA
ATOM     25  C   UNL     1      43.384   2.484  11.827  0.00  0.00    +0.000 A 
ATOM     26  N   UNL     1      43.792   3.166  12.943  0.00  0.00    +0.000 N 
ATOM     27  C   UNL     1      44.647   4.245  12.890  0.00  0.00    +0.000 A 
ATOM     28  O   UNL     1      45.036   4.801  13.910  0.00  0.00    +0.000 OA
ATOM     29  C   UNL     1      45.041   4.631  11.549  0.00  0.00    +0.000 A 
ATOM     30  H   UNL     1      43.499   2.876  13.864  0.00  0.00    +0.000 HD
ENDBRANCH  17  20
ENDBRANCH   1  16
TORSDOF 5
ENDMDL
MODEL 9
REMARK VINA RESULT:    -7.083      3.579      8.603
REMARK INTER + INTRA:         -10.006
REMARK INTER:                  -9.054
REMARK INTRA:                  -0.952
REMARK UNBOUND:                -0.853
REMARK  Name = 
REMARK  6 active torsions:
REMARK  status: ('A' for Active; 'I' for Inactive)
REMARK    1  A    between atoms: C_1  and  C_2
REMARK    2  A    between atoms: C_5  and  C_6
REMARK    3  A    between atoms: C_6  and  C_7
REMARK    4  A    between atoms: C_10  and  C_11
REMARK    5  A    between atoms: C_11  and  N_12
REMARK    6  A    between atoms: C_13  and  C_15
REMARK                            x       y       z     vdW  Elec       q    Type
REMARK                         _______ _______ _______ _____ _____    ______ ____
ROOT
ATOM      1  C   UNL     1      47.212   3.321  16.856  0.00  0.00    +0.000 C 
ENDROOT
BRANCH   1   5
ATOM      2  C   UNL     1      51.277   4.100  18.126  0.00  0.00    +0.000 A 
ATOM      3  C   UNL     1      50.953   2.903  17.473  0.00  0.00    +0.000 A 
ATOM      4  C   UNL     1      49.635   2.636  17.089  0.00  0.00    +0.000 A 
ATOM      5  C   UNL     1      48.618   3.565  17.337  0.00  0.00    +0.000 A 
ATOM      6  C   UNL     1      48.933   4.738  18.035  0.00  0.00    +0.000 A 
ATOM      7  C   UNL     1      50.250   5.007  18.419  0.00  0.00    +0.000 A 
BRANCH   2   8
ATOM      8  C   UNL     1      52.712   4.421  18.478  0.00  0.00    +0.000 C 
BRANCH   8  13
ATOM      9  C   UNL     1      55.775   6.916  14.274  0.00  0.00    +0.000 C 
ATOM     10  C   UNL     1      54.943   6.305  15.361  0.00  0.00    +0.000 A 
ATOM     11  C   UNL     1      53.649   6.753  15.610  0.00  0.00    +0.000 A 
ATOM     12  C   UNL     1      52.910   6.149  16.629  0.00  0.00    +0.000 A 
ATOM     13  C   UNL     1      53.474   5.114  17.377  0.00  0.00    +0.000 A 
ATOM     14  C   UNL     1      54.779   4.751  17.066  0.00  0.00    +0.000 A 
ATOM     15  N   UNL     1      55.517   5.314  16.080  0.00  0.00    +0.000 NA
ENDBRANCH   8  13
ENDBRANCH   2   8
ENDBRANCH   1   5
BRANCH   1  16
ATOM     16  N   UNL     1      46.774   4.324  15.918  0.00  0.00    +0.000 N 
ATOM     17  C   UNL     1      46.887   4.103  14.568  0.00  0.00    +0.000 C 
ATOM     18  O   UNL     1      47.298   3.035  14.119  0.00  0.00    +0.000 OA
ATOM     19  H   UNL     1      46.645   5.269  16.269  0.00  0.00    +0.000 HD
BRANCH  17  20
ATOM     20  C   UNL     1      46.440   5.179  13.677  0.00  0.00    +0.000 A 
ATOM     21  C   UNL     1      47.258   6.284  13.478  0.00  0.00    +0.000 A 
ATOM     22  S   UNL     1      46.605   7.437  12.406  0.00  0.00    +0.000 S 
ATOM     23  C   UNL     1      45.185   6.523  12.205  0.00  0.00    +0.000 A 
ATOM     24  N   UNL     1      44.170   6.976  11.421  0.00  0.00    +0.000 NA
ATOM     25  C   UNL     1      43.141   6.199  11.382  0.00  0.00    +0.000 A 
ATOM     26  N   UNL     1      43.036   5.006  12.047  0.00  0.00    +0.000 N 
ATOM     27  C   UNL     1      44.050   4.491  12.824  0.00  0.00    +0.000 A 
ATOM     28  O   UNL     1      43.947   3.394  13.363  0.00  0.00    +0.000 OA
ATOM     29  C   UNL     1      45.222   5.340  12.922  0.00  0.00    +0.000 A 
ATOM     30  H   UNL     1      42.208   4.436  11.963  0.00  0.00    +0.000 HD
ENDBRANCH  17  20
ENDBRANCH   1  16
TORSDOF 5
ENDMDL
