MODEL 1
REMARK VINA RESULT:    -8.026      0.000      0.000
REMARK INTER + INTRA:         -12.856
REMARK INTER:                 -11.779
REMARK INTRA:                  -1.076
REMARK UNBOUND:                -1.076
REMARK  Name = 
REMARK  9 active torsions:
REMARK  status: ('A' for Active; 'I' for Inactive)
REMARK    1  A    between atoms: C_1  and  O_2
REMARK    2  A    between atoms: O_2  and  C_3
REMARK    3  A    between atoms: C_10  and  C_11
REMARK    4  A    between atoms: N_13  and  C_14
REMARK    5  A    between atoms: C_14  and  C_15
REMARK    6  A    between atoms: C_18  and  C_19
REMARK    7  A    between atoms: C_19  and  O_20
REMARK    8  A    between atoms: O_20  and  C_21
REMARK    9  A    between atoms: C_21  and  C_22
REMARK                            x       y       z     vdW  Elec       q    Type
REMARK                         _______ _______ _______ _____ _____    ______ ____
ROOT
ATOM      1  C   UNL     1      48.247   6.631  13.355  0.00  0.00    +0.000 C 
ENDROOT
BRANCH   1   2
ATOM      2  C   UNL     1      47.030   6.026  12.707  0.00  0.00    +0.000 A 
ATOM      3  C   UNL     1      46.515   6.546  11.512  0.00  0.00    +0.000 A 
ATOM      4  C   UNL     1      45.446   5.915  10.864  0.00  0.00    +0.000 A 
ATOM      5  C   UNL     1      44.866   4.757  11.403  0.00  0.00    +0.000 A 
ATOM      6  C   UNL     1      45.344   4.276  12.628  0.00  0.00    +0.000 A 
ATOM      7  C   UNL     1      46.409   4.908  13.277  0.00  0.00    +0.000 A 
BRANCH   5   8
ATOM      8  C   UNL     1      43.763   4.031  10.672  0.00  0.00    +0.000 C 
BRANCH   8   9
ATOM      9  O   UNL     1      44.343   3.031   9.838  0.00  0.00    +0.000 OA
BRANCH   9  10
ATOM     10  C   UNL     1      44.622   3.520   8.527  0.00  0.00    +0.000 C 
BRANCH  10  11
ATOM     11  C   UNL     1      45.798   2.777   7.942  0.00  0.00    +0.000 A 
ATOM     12  C   UNL     1      45.971   1.411   8.185  0.00  0.00    +0.000 A 
ATOM     13  C   UNL     1      47.054   0.762   7.608  0.00  0.00    +0.000 A 
ATOM     14  N   UNL     1      47.955   1.367   6.806  0.00  0.00    +0.000 NA
ATOM     15  C   UNL     1      47.764   2.683   6.572  0.00  0.00    +0.000 A 
ATOM     16  C   UNL     1      46.714   3.415   7.100  0.00  0.00    +0.000 A 
ENDBRANCH  10  11
ENDBRANCH   9  10
ENDBRANCH   8   9
ENDBRANCH   5   8
ENDBRANCH   1   2
BRANCH   1  19
ATOM     17  C   UNL     1      49.194   7.110  15.556  0.00  0.00    +0.000 C 
ATOM     18  O   UNL     1      50.220   7.540  15.034  0.00  0.00    +0.000 OA
ATOM     19  N   UNL     1      48.165   6.623  14.793  0.00  0.00    +0.000 N 
ATOM     20  H   UNL     1      47.328   6.257  15.225  0.00  0.00    +0.000 HD
BRANCH  17  28
ATOM     21  C   UNL     1      48.892   4.609  17.913  0.00  0.00    +0.000 A 
ATOM     22  N   UNL     1      48.696   3.857  19.016  0.00  0.00    +0.000 NA
ATOM     23  C   UNL     1      48.532   4.483  20.183  0.00  0.00    +0.000 A 
ATOM     24  N   UNL     1      48.546   5.795  20.395  0.00  0.00    +0.000 NA
ATOM     25  C   UNL     1      48.726   6.507  19.270  0.00  0.00    +0.000 A 
ATOM     26  S   UNL     1      48.775   8.202  19.357  0.00  0.00    +0.000 S 
ATOM     27  C   UNL     1      48.993   8.327  17.678  0.00  0.00    +0.000 A 
ATOM     28  C   UNL     1      49.031   7.102  17.018  0.00  0.00    +0.000 A 
ATOM     29  C   UNL     1      48.889   6.012  17.979  0.00  0.00    +0.000 A 
BRANCH  21  31
ATOM     30  C   UNL     1      47.914   3.264  16.277  0.00  0.00    +0.000 C 
ATOM     31  O   UNL     1      49.084   3.956  16.712  0.00  0.00    +0.000 OA
ENDBRANCH  21  31
ENDBRANCH  17  28
ENDBRANCH   1  19
TORSDOF 8
ENDMDL
MODEL 2
REMARK VINA RESULT:    -7.801      0.833      1.237
REMARK INTER + INTRA:         -12.526
REMARK INTER:                 -11.588
REMARK INTRA:                  -0.938
REMARK UNBOUND:                -1.076
REMARK  Name = 
REMARK  9 active torsions:
REMARK  status: ('A' for Active; 'I' for Inactive)
REMARK    1  A    between atoms: C_1  and  O_2
REMARK    2  A    between atoms: O_2  and  C_3
REMARK    3  A    between atoms: C_10  and  C_11
REMARK    4  A    between atoms: N_13  and  C_14
REMARK    5  A    between atoms: C_14  and  C_15
REMARK    6  A    between atoms: C_18  and  C_19
REMARK    7  A    between atoms: C_19  and  O_20
REMARK    8  A    between atoms: O_20  and  C_21
REMARK    9  A    between atoms: C_21  and  C_22
REMARK                            x       y       z     vdW  Elec       q    Type
REMARK                         _______ _______ _______ _____ _____    ______ ____
ROOT
ATOM      1  C   UNL     1      48.254   6.873  13.320  0.00  0.00    +0.000 C 
ENDROOT
BRANCH   1   2
ATOM      2  C   UNL     1      47.060   6.212  12.683  0.00  0.00    +0.000 A 
ATOM      3  C   UNL     1      46.473   6.744  11.528  0.00  0.00    +0.000 A 
ATOM      4  C   UNL     1      45.429   6.069  10.885  0.00  0.00    +0.000 A 
ATOM      5  C   UNL     1      44.946   4.852  11.390  0.00  0.00    +0.000 A 
ATOM      6  C   UNL     1      45.495   4.355  12.579  0.00  0.00    +0.000 A 
ATOM      7  C   UNL     1      46.536   5.031  13.222  0.00  0.00    +0.000 A 
BRANCH   5   8
ATOM      8  C   UNL     1      43.872   4.082  10.661  0.00  0.00    +0.000 C 
BRANCH   8   9
ATOM      9  O   UNL     1      44.489   3.100   9.833  0.00  0.00    +0.000 OA
BRANCH   9  10
ATOM     10  C   UNL     1      44.748   3.592   8.519  0.00  0.00    +0.000 C 
BRANCH  10  11
ATOM     11  C   UNL     1      45.852   2.788   7.878  0.00  0.00    +0.000 A 
ATOM     12  C   UNL     1      46.757   3.391   7.000  0.00  0.00    +0.000 A 
ATOM     13  C   UNL     1      47.772   2.619   6.452  0.00  0.00    +0.000 A 
ATOM     14  N   UNL     1      47.953   1.310   6.724  0.00  0.00    +0.000 NA
ATOM     15  C   UNL     1      47.078   0.747   7.584  0.00  0.00    +0.000 A 
ATOM     16  C   UNL     1      46.036   1.435   8.184  0.00  0.00    +0.000 A 
ENDBRANCH  10  11
ENDBRANCH   9  10
ENDBRANCH   8   9
ENDBRANCH   5   8
ENDBRANCH   1   2
BRANCH   1  19
ATOM     17  C   UNL     1      48.945   7.111  15.652  0.00  0.00    +0.000 C 
ATOM     18  O   UNL     1      50.025   6.584  15.399  0.00  0.00    +0.000 OA
ATOM     19  N   UNL     1      47.997   7.282  14.677  0.00  0.00    +0.000 N 
ATOM     20  H   UNL     1      47.104   7.702  14.891  0.00  0.00    +0.000 HD
BRANCH  17  28
ATOM     21  C   UNL     1      48.319   5.518  18.647  0.00  0.00    +0.000 A 
ATOM     22  N   UNL     1      47.986   5.168  19.907  0.00  0.00    +0.000 NA
ATOM     23  C   UNL     1      47.719   6.140  20.781  0.00  0.00    +0.000 A 
ATOM     24  N   UNL     1      47.751   7.449  20.554  0.00  0.00    +0.000 NA
ATOM     25  C   UNL     1      48.070   7.755  19.285  0.00  0.00    +0.000 A 
ATOM     26  S   UNL     1      48.163   9.385  18.820  0.00  0.00    +0.000 S 
ATOM     27  C   UNL     1      48.559   8.955  17.226  0.00  0.00    +0.000 A 
ATOM     28  C   UNL     1      48.629   7.582  17.010  0.00  0.00    +0.000 A 
ATOM     29  C   UNL     1      48.353   6.866  18.252  0.00  0.00    +0.000 A 
BRANCH  21  31
ATOM     30  C   UNL     1      47.572   3.541  17.661  0.00  0.00    +0.000 C 
ATOM     31  O   UNL     1      48.617   4.509  17.753  0.00  0.00    +0.000 OA
ENDBRANCH  21  31
ENDBRANCH  17  28
ENDBRANCH   1  19
TORSDOF 8
ENDMDL
MODEL 3
REMARK VINA RESULT:    -7.789      1.579      2.577
REMARK INTER + INTRA:         -12.508
REMARK INTER:                 -11.471
REMARK INTRA:                  -1.037
REMARK UNBOUND:                -1.076
REMARK  Name = 
REMARK  9 active torsions:
REMARK  status: ('A' for Active; 'I' for Inactive)
REMARK    1  A    between atoms: C_1  and  O_2
REMARK    2  A    between atoms: O_2  and  C_3
REMARK    3  A    between atoms: C_10  and  C_11
REMARK    4  A    between atoms: N_13  and  C_14
REMARK    5  A    between atoms: C_14  and  C_15
REMARK    6  A    between atoms: C_18  and  C_19
REMARK    7  A    between atoms: C_19  and  O_20
REMARK    8  A    between atoms: O_20  and  C_21
REMARK    9  A    between atoms: C_21  and  C_22
REMARK                            x       y       z     vdW  Elec       q    Type
REMARK                         _______ _______ _______ _____ _____    ______ ____
ROOT
ATOM      1  C   UNL     1      48.160   6.254  13.913  0.00  0.00    +0.000 C 
ENDROOT
BRANCH   1   2
ATOM      2  C   UNL     1      46.965   5.813  13.110  0.00  0.00    +0.000 A 
ATOM      3  C   UNL     1      46.457   6.609  12.076  0.00  0.00    +0.000 A 
ATOM      4  C   UNL     1      45.411   6.146  11.268  0.00  0.00    +0.000 A 
ATOM      5  C   UNL     1      44.847   4.880  11.486  0.00  0.00    +0.000 A 
ATOM      6  C   UNL     1      45.317   4.113  12.559  0.00  0.00    +0.000 A 
ATOM      7  C   UNL     1      46.360   4.577  13.367  0.00  0.00    +0.000 A 
BRANCH   5   8
ATOM      8  C   UNL     1      43.770   4.344  10.574  0.00  0.00    +0.000 C 
BRANCH   8   9
ATOM      9  O   UNL     1      44.314   3.285   9.791  0.00  0.00    +0.000 OA
BRANCH   9  10
ATOM     10  C   UNL     1      44.643   3.709   8.469  0.00  0.00    +0.000 C 
BRANCH  10  11
ATOM     11  C   UNL     1      45.783   2.879   7.933  0.00  0.00    +0.000 A 
ATOM     12  C   UNL     1      45.887   1.521   8.249  0.00  0.00    +0.000 A 
ATOM     13  C   UNL     1      46.940   0.790   7.714  0.00  0.00    +0.000 A 
ATOM     14  N   UNL     1      47.874   1.307   6.890  0.00  0.00    +0.000 NA
ATOM     15  C   UNL     1      47.750   2.616   6.585  0.00  0.00    +0.000 A 
ATOM     16  C   UNL     1      46.734   3.427   7.066  0.00  0.00    +0.000 A 
ENDBRANCH  10  11
ENDBRANCH   9  10
ENDBRANCH   8   9
ENDBRANCH   5   8
ENDBRANCH   1   2
BRANCH   1  19
ATOM     17  C   UNL     1      48.879   6.343  16.247  0.00  0.00    +0.000 C 
ATOM     18  O   UNL     1      50.051   6.216  15.904  0.00  0.00    +0.000 OA
ATOM     19  N   UNL     1      47.869   6.357  15.319  0.00  0.00    +0.000 N 
ATOM     20  H   UNL     1      46.905   6.447  15.606  0.00  0.00    +0.000 HD
BRANCH  17  28
ATOM     21  C   UNL     1      47.720   8.966  18.164  0.00  0.00    +0.000 A 
ATOM     22  N   UNL     1      47.328   9.809  19.142  0.00  0.00    +0.000 NA
ATOM     23  C   UNL     1      47.220   9.326  20.382  0.00  0.00    +0.000 A 
ATOM     24  N   UNL     1      47.452   8.079  20.776  0.00  0.00    +0.000 NA
ATOM     25  C   UNL     1      47.856   7.277  19.776  0.00  0.00    +0.000 A 
ATOM     26  S   UNL     1      48.192   5.646  20.102  0.00  0.00    +0.000 S 
ATOM     27  C   UNL     1      48.614   5.363  18.481  0.00  0.00    +0.000 A 
ATOM     28  C   UNL     1      48.513   6.485  17.665  0.00  0.00    +0.000 A 
ATOM     29  C   UNL     1      48.040   7.627  18.442  0.00  0.00    +0.000 A 
BRANCH  21  31
ATOM     30  C   UNL     1      49.043  10.138  16.642  0.00  0.00    +0.000 C 
ATOM     31  O   UNL     1      47.808   9.465  16.879  0.00  0.00    +0.000 OA
ENDBRANCH  21  31
ENDBRANCH  17  28
ENDBRANCH   1  19
TORSDOF 8
ENDMDL
MODEL 4
REMARK VINA RESULT:    -7.707      1.783      3.405
REMARK INTER + INTRA:         -12.388
REMARK INTER:                 -10.955
REMARK INTRA:                  -1.433
REMARK UNBOUND:                -1.076
REMARK  Name = 
REMARK  9 active torsions:
REMARK  status: ('A' for Active; 'I' for Inactive)
REMARK    1  A    between atoms: C_1  and  O_2
REMARK    2  A    between atoms: O_2  and  C_3
REMARK    3  A    between atoms: C_10  and  C_11
REMARK    4  A    between atoms: N_13  and  C_14
REMARK    5  A    between atoms: C_14  and  C_15
REMARK    6  A    between atoms: C_18  and  C_19
REMARK    7  A    between atoms: C_19  and  O_20
REMARK    8  A    between atoms: O_20  and  C_21
REMARK    9  A    between atoms: C_21  and  C_22
REMARK                            x       y       z     vdW  Elec       q    Type
REMARK                         _______ _______ _______ _____ _____    ______ ____
ROOT
ATOM      1  C   UNL     1      47.180   4.387  15.057  0.00  0.00    +0.000 C 
ENDROOT
BRANCH   1   2
ATOM      2  C   UNL     1      46.410   4.418  13.764  0.00  0.00    +0.000 A 
ATOM      3  C   UNL     1      46.131   3.238  13.062  0.00  0.00    +0.000 A 
ATOM      4  C   UNL     1      45.328   3.265  11.915  0.00  0.00    +0.000 A 
ATOM      5  C   UNL     1      44.797   4.475  11.443  0.00  0.00    +0.000 A 
ATOM      6  C   UNL     1      45.129   5.659  12.112  0.00  0.00    +0.000 A 
ATOM      7  C   UNL     1      45.933   5.632  13.255  0.00  0.00    +0.000 A 
BRANCH   5   8
ATOM      8  C   UNL     1      43.872   4.501  10.250  0.00  0.00    +0.000 C 
BRANCH   8   9
ATOM      9  O   UNL     1      44.216   3.429   9.376  0.00  0.00    +0.000 OA
BRANCH   9  10
ATOM     10  C   UNL     1      44.791   3.894   8.156  0.00  0.00    +0.000 C 
BRANCH  10  11
ATOM     11  C   UNL     1      45.910   2.976   7.733  0.00  0.00    +0.000 A 
ATOM     12  C   UNL     1      45.938   1.643   8.156  0.00  0.00    +0.000 A 
ATOM     13  C   UNL     1      46.975   0.827   7.724  0.00  0.00    +0.000 A 
ATOM     14  N   UNL     1      47.963   1.236   6.902  0.00  0.00    +0.000 NA
ATOM     15  C   UNL     1      47.913   2.522   6.494  0.00  0.00    +0.000 A 
ATOM     16  C   UNL     1      46.919   3.412   6.868  0.00  0.00    +0.000 A 
ENDBRANCH  10  11
ENDBRANCH   9  10
ENDBRANCH   8   9
ENDBRANCH   5   8
ENDBRANCH   1   2
BRANCH   1  19
ATOM     17  C   UNL     1      48.675   5.885  16.279  0.00  0.00    +0.000 C 
ATOM     18  O   UNL     1      49.361   4.930  16.635  0.00  0.00    +0.000 OA
ATOM     19  N   UNL     1      47.560   5.703  15.502  0.00  0.00    +0.000 N 
ATOM     20  H   UNL     1      46.990   6.488  15.223  0.00  0.00    +0.000 HD
BRANCH  17  28
ATOM     21  C   UNL     1      48.823   8.887  14.587  0.00  0.00    +0.000 A 
ATOM     22  N   UNL     1      49.020  10.157  14.173  0.00  0.00    +0.000 NA
ATOM     23  C   UNL     1      49.446  11.051  15.067  0.00  0.00    +0.000 A 
ATOM     24  N   UNL     1      49.699  10.836  16.353  0.00  0.00    +0.000 NA
ATOM     25  C   UNL     1      49.507   9.558  16.721  0.00  0.00    +0.000 A 
ATOM     26  S   UNL     1      49.778   9.106  18.334  0.00  0.00    +0.000 S 
ATOM     27  C   UNL     1      49.370   7.492  17.999  0.00  0.00    +0.000 A 
ATOM     28  C   UNL     1      49.024   7.260  16.671  0.00  0.00    +0.000 A 
ATOM     29  C   UNL     1      49.089   8.505  15.912  0.00  0.00    +0.000 A 
BRANCH  21  31
ATOM     30  C   UNL     1      49.403   7.464  12.833  0.00  0.00    +0.000 C 
ATOM     31  O   UNL     1      48.359   7.972  13.663  0.00  0.00    +0.000 OA
ENDBRANCH  21  31
ENDBRANCH  17  28
ENDBRANCH   1  19
TORSDOF 8
ENDMDL
MODEL 5
REMARK VINA RESULT:    -7.676      1.534      2.623
REMARK INTER + INTRA:         -12.341
REMARK INTER:                 -11.253
REMARK INTRA:                  -1.089
REMARK UNBOUND:                -1.076
REMARK  Name = 
REMARK  9 active torsions:
REMARK  status: ('A' for Active; 'I' for Inactive)
REMARK    1  A    between atoms: C_1  and  O_2
REMARK    2  A    between atoms: O_2  and  C_3
REMARK    3  A    between atoms: C_10  and  C_11
REMARK    4  A    between atoms: N_13  and  C_14
REMARK    5  A    between atoms: C_14  and  C_15
REMARK    6  A    between atoms: C_18  and  C_19
REMARK    7  A    between atoms: C_19  and  O_20
REMARK    8  A    between atoms: O_20  and  C_21
REMARK    9  A    between atoms: C_21  and  C_22
REMARK                            x       y       z     vdW  Elec       q    Type
REMARK                         _______ _______ _______ _____ _____    ______ ____
ROOT
ATOM      1  C   UNL     1      47.198   3.626  14.815  0.00  0.00    +0.000 C 
ENDROOT
BRANCH   1   2
ATOM      2  C   UNL     1      46.535   4.205  13.593  0.00  0.00    +0.000 A 
ATOM      3  C   UNL     1      46.862   5.486  13.132  0.00  0.00    +0.000 A 
ATOM      4  C   UNL     1      46.316   5.975  11.939  0.00  0.00    +0.000 A 
ATOM      5  C   UNL     1      45.424   5.194  11.189  0.00  0.00    +0.000 A 
ATOM      6  C   UNL     1      45.052   3.939  11.685  0.00  0.00    +0.000 A 
ATOM      7  C   UNL     1      45.595   3.452  12.877  0.00  0.00    +0.000 A 
BRANCH   5   8
ATOM      8  C   UNL     1      44.889   5.686   9.866  0.00  0.00    +0.000 C 
BRANCH   8   9
ATOM      9  O   UNL     1      45.639   5.084   8.813  0.00  0.00    +0.000 OA
BRANCH   9  10
ATOM     10  C   UNL     1      44.979   3.942   8.269  0.00  0.00    +0.000 C 
BRANCH  10  11
ATOM     11  C   UNL     1      46.000   2.948   7.772  0.00  0.00    +0.000 A 
ATOM     12  C   UNL     1      45.960   1.614   8.190  0.00  0.00    +0.000 A 
ATOM     13  C   UNL     1      46.905   0.729   7.689  0.00  0.00    +0.000 A 
ATOM     14  N   UNL     1      47.864   1.071   6.806  0.00  0.00    +0.000 NA
ATOM     15  C   UNL     1      47.881   2.360   6.404  0.00  0.00    +0.000 A 
ATOM     16  C   UNL     1      46.979   3.316   6.844  0.00  0.00    +0.000 A 
ENDBRANCH  10  11
ENDBRANCH   9  10
ENDBRANCH   8   9
ENDBRANCH   5   8
ENDBRANCH   1   2
BRANCH   1  19
ATOM     17  C   UNL     1      47.303   4.420  17.123  0.00  0.00    +0.000 C 
ATOM     18  O   UNL     1      46.788   3.378  17.518  0.00  0.00    +0.000 OA
ATOM     19  N   UNL     1      47.531   4.633  15.788  0.00  0.00    +0.000 N 
ATOM     20  H   UNL     1      47.942   5.498  15.465  0.00  0.00    +0.000 HD
BRANCH  17  28
ATOM     21  C   UNL     1      49.703   6.898  17.068  0.00  0.00    +0.000 A 
ATOM     22  N   UNL     1      50.571   7.895  17.337  0.00  0.00    +0.000 NA
ATOM     23  C   UNL     1      50.467   8.521  18.512  0.00  0.00    +0.000 A 
ATOM     24  N   UNL     1      49.581   8.276  19.471  0.00  0.00    +0.000 NA
ATOM     25  C   UNL     1      48.748   7.265  19.172  0.00  0.00    +0.000 A 
ATOM     26  S   UNL     1      47.546   6.820  20.285  0.00  0.00    +0.000 S 
ATOM     27  C   UNL     1      46.992   5.583  19.262  0.00  0.00    +0.000 A 
ATOM     28  C   UNL     1      47.697   5.478  18.066  0.00  0.00    +0.000 A 
ATOM     29  C   UNL     1      48.737   6.501  18.008  0.00  0.00    +0.000 A 
BRANCH  21  31
ATOM     30  C   UNL     1      49.840   7.199  14.760  0.00  0.00    +0.000 C 
ATOM     31  O   UNL     1      49.800   6.270  15.843  0.00  0.00    +0.000 OA
ENDBRANCH  21  31
ENDBRANCH  17  28
ENDBRANCH   1  19
TORSDOF 8
ENDMDL
MODEL 6
REMARK VINA RESULT:    -7.345      1.557      2.433
REMARK INTER + INTRA:         -11.856
REMARK INTER:                 -10.827
REMARK INTRA:                  -1.029
REMARK UNBOUND:                -1.076
REMARK  Name = 
REMARK  9 active torsions:
REMARK  status: ('A' for Active; 'I' for Inactive)
REMARK    1  A    between atoms: C_1  and  O_2
REMARK    2  A    between atoms: O_2  and  C_3
REMARK    3  A    between atoms: C_10  and  C_11
REMARK    4  A    between atoms: N_13  and  C_14
REMARK    5  A    between atoms: C_14  and  C_15
REMARK    6  A    between atoms: C_18  and  C_19
REMARK    7  A    between atoms: C_19  and  O_20
REMARK    8  A    between atoms: O_20  and  C_21
REMARK    9  A    between atoms: C_21  and  C_22
REMARK                            x       y       z     vdW  Elec       q    Type
REMARK                         _______ _______ _______ _____ _____    ______ ____
ROOT
ATOM      1  C   UNL     1      47.169   4.202  15.120  0.00  0.00    +0.000 C 
ENDROOT
BRANCH   1   2
ATOM      2  C   UNL     1      46.501   4.402  13.786  0.00  0.00    +0.000 A 
ATOM      3  C   UNL     1      45.985   3.317  13.067  0.00  0.00    +0.000 A 
ATOM      4  C   UNL     1      45.276   3.523  11.877  0.00  0.00    +0.000 A 
ATOM      5  C   UNL     1      45.077   4.819  11.379  0.00  0.00    +0.000 A 
ATOM      6  C   UNL     1      45.647   5.897  12.069  0.00  0.00    +0.000 A 
ATOM      7  C   UNL     1      46.358   5.690  13.255  0.00  0.00    +0.000 A 
BRANCH   5   8
ATOM      8  C   UNL     1      44.252   5.054  10.137  0.00  0.00    +0.000 C 
BRANCH   8   9
ATOM      9  O   UNL     1      45.046   4.752   8.993  0.00  0.00    +0.000 OA
BRANCH   9  10
ATOM     10  C   UNL     1      44.627   3.548   8.351  0.00  0.00    +0.000 C 
BRANCH  10  11
ATOM     11  C   UNL     1      45.828   2.800   7.829  0.00  0.00    +0.000 A 
ATOM     12  C   UNL     1      46.017   1.448   8.137  0.00  0.00    +0.000 A 
ATOM     13  C   UNL     1      47.124   0.793   7.616  0.00  0.00    +0.000 A 
ATOM     14  N   UNL     1      48.036   1.377   6.812  0.00  0.00    +0.000 NA
ATOM     15  C   UNL     1      47.832   2.678   6.515  0.00  0.00    +0.000 A 
ATOM     16  C   UNL     1      46.756   3.416   6.984  0.00  0.00    +0.000 A 
ENDBRANCH  10  11
ENDBRANCH   9  10
ENDBRANCH   8   9
ENDBRANCH   5   8
ENDBRANCH   1   2
BRANCH   1  19
ATOM     17  C   UNL     1      48.618   5.536  16.566  0.00  0.00    +0.000 C 
ATOM     18  O   UNL     1      49.317   4.552  16.795  0.00  0.00    +0.000 OA
ATOM     19  N   UNL     1      47.519   5.447  15.753  0.00  0.00    +0.000 N 
ATOM     20  H   UNL     1      46.938   6.255  15.578  0.00  0.00    +0.000 HD
BRANCH  17  28
ATOM     21  C   UNL     1      48.147   6.934  19.684  0.00  0.00    +0.000 A 
ATOM     22  N   UNL     1      48.039   7.735  20.765  0.00  0.00    +0.000 NA
ATOM     23  C   UNL     1      48.506   8.983  20.672  0.00  0.00    +0.000 A 
ATOM     24  N   UNL     1      49.085   9.542  19.616  0.00  0.00    +0.000 NA
ATOM     25  C   UNL     1      49.157   8.718  18.557  0.00  0.00    +0.000 A 
ATOM     26  S   UNL     1      49.875   9.268  17.121  0.00  0.00    +0.000 S 
ATOM     27  C   UNL     1      49.580   7.784  16.351  0.00  0.00    +0.000 A 
ATOM     28  C   UNL     1      48.936   6.847  17.154  0.00  0.00    +0.000 A 
ATOM     29  C   UNL     1      48.701   7.404  18.482  0.00  0.00    +0.000 A 
BRANCH  21  31
ATOM     30  C   UNL     1      48.657   4.762  20.362  0.00  0.00    +0.000 C 
ATOM     31  O   UNL     1      47.685   5.638  19.793  0.00  0.00    +0.000 OA
ENDBRANCH  21  31
ENDBRANCH  17  28
ENDBRANCH   1  19
TORSDOF 8
ENDMDL
MODEL 7
REMARK VINA RESULT:    -6.909      3.420      5.371
REMARK INTER + INTRA:         -11.216
REMARK INTER:                  -9.975
REMARK INTRA:                  -1.241
REMARK UNBOUND:                -1.076
REMARK  Name = 
REMARK  9 active torsions:
REMARK  status: ('A' for Active; 'I' for Inactive)
REMARK    1  A    between atoms: C_1  and  O_2
REMARK    2  A    between atoms: O_2  and  C_3
REMARK    3  A    between atoms: C_10  and  C_11
REMARK    4  A    between atoms: N_13  and  C_14
REMARK    5  A    between atoms: C_14  and  C_15
REMARK    6  A    between atoms: C_18  and  C_19
REMARK    7  A    between atoms: C_19  and  O_20
REMARK    8  A    between atoms: O_20  and  C_21
REMARK    9  A    between atoms: C_21  and  C_22
REMARK                            x       y       z     vdW  Elec       q    Type
REMARK                         _______ _______ _______ _____ _____    ______ ____
ROOT
ATOM      1  C   UNL     1      48.428   6.835  14.462  0.00  0.00    +0.000 C 
ENDROOT
BRANCH   1   2
ATOM      2  C   UNL     1      47.497   6.241  13.438  0.00  0.00    +0.000 A 
ATOM      3  C   UNL     1      46.707   5.125  13.742  0.00  0.00    +0.000 A 
ATOM      4  C   UNL     1      45.771   4.642  12.820  0.00  0.00    +0.000 A 
ATOM      5  C   UNL     1      45.614   5.261  11.571  0.00  0.00    +0.000 A 
ATOM      6  C   UNL     1      46.448   6.338  11.247  0.00  0.00    +0.000 A 
ATOM      7  C   UNL     1      47.385   6.818  12.167  0.00  0.00    +0.000 A 
BRANCH   5   8
ATOM      8  C   UNL     1      44.557   4.791  10.602  0.00  0.00    +0.000 C 
BRANCH   8   9
ATOM      9  O   UNL     1      44.896   3.484  10.147  0.00  0.00    +0.000 OA
BRANCH   9  10
ATOM     10  C   UNL     1      44.587   3.298   8.767  0.00  0.00    +0.000 C 
BRANCH  10  11
ATOM     11  C   UNL     1      45.753   2.648   8.063  0.00  0.00    +0.000 A 
ATOM     12  C   UNL     1      46.654   3.416   7.318  0.00  0.00    +0.000 A 
ATOM     13  C   UNL     1      47.726   2.780   6.706  0.00  0.00    +0.000 A 
ATOM     14  N   UNL     1      47.966   1.456   6.794  0.00  0.00    +0.000 NA
ATOM     15  C   UNL     1      47.094   0.733   7.528  0.00  0.00    +0.000 A 
ATOM     16  C   UNL     1      45.997   1.276   8.178  0.00  0.00    +0.000 A 
ENDBRANCH  10  11
ENDBRANCH   9  10
ENDBRANCH   8   9
ENDBRANCH   5   8
ENDBRANCH   1   2
BRANCH   1  19
ATOM     17  C   UNL     1      50.567   8.012  14.569  0.00  0.00    +0.000 C 
ATOM     18  O   UNL     1      50.243   8.530  15.634  0.00  0.00    +0.000 OA
ATOM     19  N   UNL     1      49.716   7.165  13.908  0.00  0.00    +0.000 N 
ATOM     20  H   UNL     1      49.979   6.751  13.025  0.00  0.00    +0.000 HD
BRANCH  17  28
ATOM     21  C   UNL     1      51.615   8.747  11.365  0.00  0.00    +0.000 A 
ATOM     22  N   UNL     1      52.297   8.983  10.226  0.00  0.00    +0.000 NA
ATOM     23  C   UNL     1      53.627   9.078  10.296  0.00  0.00    +0.000 A 
ATOM     24  N   UNL     1      54.378   8.972  11.387  0.00  0.00    +0.000 NA
ATOM     25  C   UNL     1      53.662   8.720  12.497  0.00  0.00    +0.000 A 
ATOM     26  S   UNL     1      54.462   8.560  13.985  0.00  0.00    +0.000 S 
ATOM     27  C   UNL     1      52.998   8.265  14.792  0.00  0.00    +0.000 A 
ATOM     28  C   UNL     1      51.881   8.279  13.962  0.00  0.00    +0.000 A 
ATOM     29  C   UNL     1      52.281   8.571  12.589  0.00  0.00    +0.000 A 
BRANCH  21  31
ATOM     30  C   UNL     1      49.616   9.942  11.485  0.00  0.00    +0.000 C 
ATOM     31  O   UNL     1      50.238   8.673  11.290  0.00  0.00    +0.000 OA
ENDBRANCH  21  31
ENDBRANCH  17  28
ENDBRANCH   1  19
TORSDOF 8
ENDMDL
MODEL 8
REMARK VINA RESULT:    -6.788      2.817      3.776
REMARK INTER + INTRA:         -11.038
REMARK INTER:                 -10.027
REMARK INTRA:                  -1.011
REMARK UNBOUND:                -1.076
REMARK  Name = 
REMARK  9 active torsions:
REMARK  status: ('A' for Active; 'I' for Inactive)
REMARK    1  A    between atoms: C_1  and  O_2
REMARK    2  A    between atoms: O_2  and  C_3
REMARK    3  A    between atoms: C_10  and  C_11
REMARK    4  A    between atoms: N_13  and  C_14
REMARK    5  A    between atoms: C_14  and  C_15
REMARK    6  A    between atoms: C_18  and  C_19
REMARK    7  A    between atoms: C_19  and  O_20
REMARK    8  A    between atoms: O_20  and  C_21
REMARK    9  A    between atoms: C_21  and  C_22
REMARK                            x       y       z     vdW  Elec       q    Type
REMARK                         _______ _______ _______ _____ _____    ______ ____
ROOT
ATOM      1  C   UNL     1      49.302   6.813  16.093  0.00  0.00    +0.000 C 
ENDROOT
BRANCH   1   2
ATOM      2  C   UNL     1      48.350   6.133  15.144  0.00  0.00    +0.000 A 
ATOM      3  C   UNL     1      47.611   5.012  15.543  0.00  0.00    +0.000 A 
ATOM      4  C   UNL     1      46.655   4.449  14.689  0.00  0.00    +0.000 A 
ATOM      5  C   UNL     1      46.426   4.992  13.416  0.00  0.00    +0.000 A 
ATOM      6  C   UNL     1      47.210   6.074  12.998  0.00  0.00    +0.000 A 
ATOM      7  C   UNL     1      48.167   6.634  13.849  0.00  0.00    +0.000 A 
BRANCH   5   8
ATOM      8  C   UNL     1      45.347   4.435  12.520  0.00  0.00    +0.000 C 
BRANCH   8   9
ATOM      9  O   UNL     1      44.928   5.454  11.615  0.00  0.00    +0.000 OA
BRANCH   9  10
ATOM     10  C   UNL     1      43.983   4.970  10.661  0.00  0.00    +0.000 C 
BRANCH  10  11
ATOM     11  C   UNL     1      44.670   4.058   9.676  0.00  0.00    +0.000 A 
ATOM     12  C   UNL     1      45.525   4.577   8.698  0.00  0.00    +0.000 A 
ATOM     13  C   UNL     1      46.155   3.698   7.827  0.00  0.00    +0.000 A 
ATOM     14  N   UNL     1      46.005   2.359   7.869  0.00  0.00    +0.000 NA
ATOM     15  C   UNL     1      45.186   1.874   8.827  0.00  0.00    +0.000 A 
ATOM     16  C   UNL     1      44.516   2.669   9.743  0.00  0.00    +0.000 A 
ENDBRANCH  10  11
ENDBRANCH   9  10
ENDBRANCH   8   9
ENDBRANCH   5   8
ENDBRANCH   1   2
BRANCH   1  19
ATOM     17  C   UNL     1      50.491   5.671  17.896  0.00  0.00    +0.000 C 
ATOM     18  O   UNL     1      49.764   6.205  18.730  0.00  0.00    +0.000 OA
ATOM     19  N   UNL     1      50.339   5.930  16.559  0.00  0.00    +0.000 N 
ATOM     20  H   UNL     1      50.947   5.500  15.876  0.00  0.00    +0.000 HD
BRANCH  17  28
ATOM     21  C   UNL     1      51.091   2.332  17.270  0.00  0.00    +0.000 A 
ATOM     22  N   UNL     1      51.531   1.056  17.242  0.00  0.00    +0.000 NA
ATOM     23  C   UNL     1      52.638   0.757  17.925  0.00  0.00    +0.000 A 
ATOM     24  N   UNL     1      53.383   1.591  18.643  0.00  0.00    +0.000 NA
ATOM     25  C   UNL     1      52.901   2.845  18.659  0.00  0.00    +0.000 A 
ATOM     26  S   UNL     1      53.733   4.045  19.526  0.00  0.00    +0.000 S 
ATOM     27  C   UNL     1      52.581   5.216  19.099  0.00  0.00    +0.000 A 
ATOM     28  C   UNL     1      51.550   4.733  18.300  0.00  0.00    +0.000 A 
ATOM     29  C   UNL     1      51.755   3.314  18.023  0.00  0.00    +0.000 A 
BRANCH  21  31
ATOM     30  C   UNL     1      48.761   2.434  17.290  0.00  0.00    +0.000 C 
ATOM     31  O   UNL     1      49.959   2.641  16.543  0.00  0.00    +0.000 OA
ENDBRANCH  21  31
ENDBRANCH  17  28
ENDBRANCH   1  19
TORSDOF 8
ENDMDL
MODEL 9
REMARK VINA RESULT:    -6.776      3.486      8.237
REMARK INTER + INTRA:         -11.022
REMARK INTER:                  -9.561
REMARK INTRA:                  -1.461
REMARK UNBOUND:                -1.076
REMARK  Name = 
REMARK  9 active torsions:
REMARK  status: ('A' for Active; 'I' for Inactive)
REMARK    1  A    between atoms: C_1  and  O_2
REMARK    2  A    between atoms: O_2  and  C_3
REMARK    3  A    between atoms: C_10  and  C_11
REMARK    4  A    between atoms: N_13  and  C_14
REMARK    5  A    between atoms: C_14  and  C_15
REMARK    6  A    between atoms: C_18  and  C_19
REMARK    7  A    between atoms: C_19  and  O_20
REMARK    8  A    between atoms: O_20  and  C_21
REMARK    9  A    between atoms: C_21  and  C_22
REMARK                            x       y       z     vdW  Elec       q    Type
REMARK                         _______ _______ _______ _____ _____    ______ ____
ROOT
ATOM      1  C   UNL     1      48.258   8.038  11.965  0.00  0.00    +0.000 C 
ENDROOT
BRANCH   1   2
ATOM      2  C   UNL     1      48.481   7.898  13.448  0.00  0.00    +0.000 A 
ATOM      3  C   UNL     1      49.180   6.803  13.972  0.00  0.00    +0.000 A 
ATOM      4  C   UNL     1      49.471   6.733  15.339  0.00  0.00    +0.000 A 
ATOM      5  C   UNL     1      49.059   7.752  16.211  0.00  0.00    +0.000 A 
ATOM      6  C   UNL     1      48.307   8.813  15.693  0.00  0.00    +0.000 A 
ATOM      7  C   UNL     1      48.014   8.882  14.328  0.00  0.00    +0.000 A 
BRANCH   5   8
ATOM      8  C   UNL     1      49.432   7.718  17.673  0.00  0.00    +0.000 C 
BRANCH   8   9
ATOM      9  O   UNL     1      50.171   6.527  17.933  0.00  0.00    +0.000 OA
BRANCH   9  10
ATOM     10  C   UNL     1      49.382   5.540  18.597  0.00  0.00    +0.000 C 
BRANCH  10  11
ATOM     11  C   UNL     1      49.364   4.268  17.787  0.00  0.00    +0.000 A 
ATOM     12  C   UNL     1      50.494   3.446  17.723  0.00  0.00    +0.000 A 
ATOM     13  C   UNL     1      50.425   2.273  16.985  0.00  0.00    +0.000 A 
ATOM     14  N   UNL     1      49.323   1.860  16.327  0.00  0.00    +0.000 NA
ATOM     15  C   UNL     1      48.238   2.659  16.410  0.00  0.00    +0.000 A 
ATOM     16  C   UNL     1      48.207   3.846  17.123  0.00  0.00    +0.000 A 
ENDBRANCH  10  11
ENDBRANCH   9  10
ENDBRANCH   8   9
ENDBRANCH   5   8
ENDBRANCH   1   2
BRANCH   1  19
ATOM     17  C   UNL     1      46.203   6.854  11.378  0.00  0.00    +0.000 C 
ATOM     18  O   UNL     1      45.528   7.762  11.858  0.00  0.00    +0.000 OA
ATOM     19  N   UNL     1      47.572   6.904  11.402  0.00  0.00    +0.000 N 
ATOM     20  H   UNL     1      48.124   6.149  11.020  0.00  0.00    +0.000 HD
BRANCH  17  28
ATOM     21  C   UNL     1      44.382   4.195  12.609  0.00  0.00    +0.000 A 
ATOM     22  N   UNL     1      43.711   3.043  12.815  0.00  0.00    +0.000 NA
ATOM     23  C   UNL     1      43.440   2.274  11.758  0.00  0.00    +0.000 A 
ATOM     24  N   UNL     1      43.755   2.520  10.491  0.00  0.00    +0.000 NA
ATOM     25  C   UNL     1      44.437   3.667  10.331  0.00  0.00    +0.000 A 
ATOM     26  S   UNL     1      44.915   4.140   8.773  0.00  0.00    +0.000 S 
ATOM     27  C   UNL     1      45.661   5.540   9.378  0.00  0.00    +0.000 A 
ATOM     28  C   UNL     1      45.567   5.681  10.759  0.00  0.00    +0.000 A 
ATOM     29  C   UNL     1      44.816   4.564  11.325  0.00  0.00    +0.000 A 
BRANCH  21  31
ATOM     30  C   UNL     1      45.967   4.832  14.197  0.00  0.00    +0.000 C 
ATOM     31  O   UNL     1      44.638   4.998  13.703  0.00  0.00    +0.000 OA
ENDBRANCH  21  31
ENDBRANCH  17  28
ENDBRANCH   1  19
TORSDOF 8
ENDMDL
