MODEL 1
REMARK VINA RESULT:    -8.451      0.000      0.000
REMARK INTER + INTRA:         -13.252
REMARK INTER:                 -11.909
REMARK INTRA:                  -1.343
REMARK UNBOUND:                -1.343
REMARK  Name = 
REMARK  8 active torsions:
REMARK  status: ('A' for Active; 'I' for Inactive)
REMARK    1  A    between atoms: C_1  and  C_2
REMARK    2  A    between atoms: C_2  and  N_3
REMARK    3  A    between atoms: C_2  and  C_16
REMARK    4  A    between atoms: C_4  and  C_6
REMARK    5  A    between atoms: C_19  and  C_20
REMARK    6  A    between atoms: C_20  and  N_21
REMARK    7  A    between atoms: N_21  and  C_22
REMARK    8  A    between atoms: C_22  and  C_23
REMARK                            x       y       z     vdW  Elec       q    Type
REMARK                         _______ _______ _______ _____ _____    ______ ____
ROOT
ATOM      1  C   UNL     1      48.112   8.165  12.584  0.00  0.00    +0.000 C 
ATOM      2  C   UNL     1      48.044   6.778  13.236  0.00  0.00    +0.000 C 
ENDROOT
BRANCH   2   3
ATOM      3  C   UNL     1      46.849   6.009  12.690  0.00  0.00    +0.000 A 
ATOM      4  C   UNL     1      46.355   6.271  11.407  0.00  0.00    +0.000 A 
ATOM      5  C   UNL     1      45.289   5.523  10.891  0.00  0.00    +0.000 A 
ATOM      6  C   UNL     1      44.702   4.493  11.641  0.00  0.00    +0.000 A 
ATOM      7  C   UNL     1      45.177   4.249  12.934  0.00  0.00    +0.000 A 
ATOM      8  C   UNL     1      46.237   4.997  13.451  0.00  0.00    +0.000 A 
BRANCH   6   9
ATOM      9  C   UNL     1      43.594   3.650  11.053  0.00  0.00    +0.000 C 
BRANCH   9  10
ATOM     10  N   UNL     1      43.847   3.393   9.637  0.00  0.00    +0.000 NA
ATOM     11  H   UNL     1      44.404   4.158   9.257  0.00  0.00    +0.000 HD
BRANCH  10  12
ATOM     12  C   UNL     1      44.553   2.133   9.429  0.00  0.00    +0.000 C 
BRANCH  12  13
ATOM     13  C   UNL     1      45.655   2.309   8.411  0.00  0.00    +0.000 A 
ATOM     14  C   UNL     1      45.912   3.554   7.830  0.00  0.00    +0.000 A 
ATOM     15  C   UNL     1      46.929   3.654   6.892  0.00  0.00    +0.000 A 
ATOM     16  N   UNL     1      47.697   2.615   6.501  0.00  0.00    +0.000 NA
ATOM     17  C   UNL     1      47.437   1.421   7.075  0.00  0.00    +0.000 A 
ATOM     18  C   UNL     1      46.445   1.222   8.023  0.00  0.00    +0.000 A 
ENDBRANCH  12  13
ENDBRANCH  10  12
ENDBRANCH   9  10
ENDBRANCH   6   9
ENDBRANCH   2   3
BRANCH   2  19
ATOM     19  N   UNL     1      47.946   6.835  14.688  0.00  0.00    +0.000 N 
ATOM     20  C   UNL     1      49.034   6.778  15.521  0.00  0.00    +0.000 C 
ATOM     21  O   UNL     1      50.187   6.726  15.104  0.00  0.00    +0.000 OA
ATOM     22  H   UNL     1      47.048   6.558  15.075  0.00  0.00    +0.000 HD
BRANCH  20  23
ATOM     23  C   UNL     1      48.757   6.858  16.960  0.00  0.00    +0.000 A 
ATOM     24  C   UNL     1      48.399   8.077  17.520  0.00  0.00    +0.000 A 
ATOM     25  S   UNL     1      48.095   7.997  19.197  0.00  0.00    +0.000 S 
ATOM     26  C   UNL     1      48.477   6.339  19.241  0.00  0.00    +0.000 A 
ATOM     27  N   UNL     1      48.454   5.648  20.413  0.00  0.00    +0.000 NA
ATOM     28  C   UNL     1      48.799   4.408  20.306  0.00  0.00    +0.000 A 
ATOM     29  N   UNL     1      49.148   3.793  19.131  0.00  0.00    +0.000 N 
ATOM     30  C   UNL     1      49.144   4.442  17.918  0.00  0.00    +0.000 A 
ATOM     31  O   UNL     1      49.394   3.851  16.871  0.00  0.00    +0.000 OA
ATOM     32  C   UNL     1      48.797   5.847  17.988  0.00  0.00    +0.000 A 
ATOM     33  H   UNL     1      49.393   2.815  19.113  0.00  0.00    +0.000 HD
ENDBRANCH  20  23
ENDBRANCH   2  19
TORSDOF 7
ENDMDL
MODEL 2
REMARK VINA RESULT:    -7.872      1.473      2.389
REMARK INTER + INTRA:         -12.437
REMARK INTER:                 -11.182
REMARK INTRA:                  -1.254
REMARK UNBOUND:                -1.343
REMARK  Name = 
REMARK  8 active torsions:
REMARK  status: ('A' for Active; 'I' for Inactive)
REMARK    1  A    between atoms: C_1  and  C_2
REMARK    2  A    between atoms: C_2  and  N_3
REMARK    3  A    between atoms: C_2  and  C_16
REMARK    4  A    between atoms: C_4  and  C_6
REMARK    5  A    between atoms: C_19  and  C_20
REMARK    6  A    between atoms: C_20  and  N_21
REMARK    7  A    between atoms: N_21  and  C_22
REMARK    8  A    between atoms: C_22  and  C_23
REMARK                            x       y       z     vdW  Elec       q    Type
REMARK                         _______ _______ _______ _____ _____    ______ ____
ROOT
ATOM      1  C   UNL     1      48.259   8.645  13.683  0.00  0.00    +0.000 C 
ATOM      2  C   UNL     1      48.386   7.131  13.895  0.00  0.00    +0.000 C 
ENDROOT
BRANCH   2   3
ATOM      3  C   UNL     1      47.315   6.406  13.092  0.00  0.00    +0.000 A 
ATOM      4  C   UNL     1      46.579   5.359  13.660  0.00  0.00    +0.000 A 
ATOM      5  C   UNL     1      45.559   4.733  12.933  0.00  0.00    +0.000 A 
ATOM      6  C   UNL     1      45.247   5.144  11.629  0.00  0.00    +0.000 A 
ATOM      7  C   UNL     1      45.999   6.171  11.050  0.00  0.00    +0.000 A 
ATOM      8  C   UNL     1      47.019   6.795  11.773  0.00  0.00    +0.000 A 
BRANCH   6   9
ATOM      9  C   UNL     1      44.104   4.505  10.874  0.00  0.00    +0.000 C 
BRANCH   9  10
ATOM     10  N   UNL     1      44.565   3.309  10.171  0.00  0.00    +0.000 NA
ATOM     11  H   UNL     1      43.964   2.525  10.425  0.00  0.00    +0.000 HD
BRANCH  10  12
ATOM     12  C   UNL     1      44.544   3.485   8.724  0.00  0.00    +0.000 C 
BRANCH  12  13
ATOM     13  C   UNL     1      45.687   2.731   8.085  0.00  0.00    +0.000 A 
ATOM     14  C   UNL     1      45.805   1.344   8.221  0.00  0.00    +0.000 A 
ATOM     15  C   UNL     1      46.882   0.706   7.623  0.00  0.00    +0.000 A 
ATOM     16  N   UNL     1      47.833   1.344   6.908  0.00  0.00    +0.000 NA
ATOM     17  C   UNL     1      47.700   2.681   6.783  0.00  0.00    +0.000 A 
ATOM     18  C   UNL     1      46.659   3.408   7.342  0.00  0.00    +0.000 A 
ENDBRANCH  12  13
ENDBRANCH  10  12
ENDBRANCH   9  10
ENDBRANCH   6   9
ENDBRANCH   2   3
BRANCH   2  19
ATOM     19  N   UNL     1      48.274   6.740  15.294  0.00  0.00    +0.000 N 
ATOM     20  C   UNL     1      49.356   6.460  16.088  0.00  0.00    +0.000 C 
ATOM     21  O   UNL     1      50.513   6.569  15.696  0.00  0.00    +0.000 OA
ATOM     22  H   UNL     1      47.381   6.334  15.562  0.00  0.00    +0.000 HD
BRANCH  20  23
ATOM     23  C   UNL     1      49.065   6.090  17.478  0.00  0.00    +0.000 A 
ATOM     24  C   UNL     1      49.363   4.809  17.921  0.00  0.00    +0.000 A 
ATOM     25  S   UNL     1      48.981   4.545  19.562  0.00  0.00    +0.000 S 
ATOM     26  C   UNL     1      48.358   6.121  19.725  0.00  0.00    +0.000 A 
ATOM     27  N   UNL     1      47.818   6.541  20.902  0.00  0.00    +0.000 NA
ATOM     28  C   UNL     1      47.353   7.745  20.874  0.00  0.00    +0.000 A 
ATOM     29  N   UNL     1      47.393   8.573  19.781  0.00  0.00    +0.000 N 
ATOM     30  C   UNL     1      47.966   8.206  18.586  0.00  0.00    +0.000 A 
ATOM     31  O   UNL     1      48.051   8.990  17.645  0.00  0.00    +0.000 OA
ATOM     32  C   UNL     1      48.474   6.848  18.554  0.00  0.00    +0.000 A 
ATOM     33  H   UNL     1      47.025   9.511  19.830  0.00  0.00    +0.000 HD
ENDBRANCH  20  23
ENDBRANCH   2  19
TORSDOF 7
ENDMDL
MODEL 3
REMARK VINA RESULT:    -7.491      2.666      4.511
REMARK INTER + INTRA:         -11.899
REMARK INTER:                 -10.541
REMARK INTRA:                  -1.358
REMARK UNBOUND:                -1.343
REMARK  Name = 
REMARK  8 active torsions:
REMARK  status: ('A' for Active; 'I' for Inactive)
REMARK    1  A    between atoms: C_1  and  C_2
REMARK    2  A    between atoms: C_2  and  N_3
REMARK    3  A    between atoms: C_2  and  C_16
REMARK    4  A    between atoms: C_4  and  C_6
REMARK    5  A    between atoms: C_19  and  C_20
REMARK    6  A    between atoms: C_20  and  N_21
REMARK    7  A    between atoms: N_21  and  C_22
REMARK    8  A    between atoms: C_22  and  C_23
REMARK                            x       y       z     vdW  Elec       q    Type
REMARK                         _______ _______ _______ _____ _____    ______ ____
ROOT
ATOM      1  C   UNL     1      47.490   3.981  15.561  0.00  0.00    +0.000 C 
ATOM      2  C   UNL     1      47.187   5.316  14.869  0.00  0.00    +0.000 C 
ENDROOT
BRANCH   2   3
ATOM      3  C   UNL     1      46.321   5.075  13.641  0.00  0.00    +0.000 A 
ATOM      4  C   UNL     1      46.047   3.775  13.201  0.00  0.00    +0.000 A 
ATOM      5  C   UNL     1      45.206   3.560  12.102  0.00  0.00    +0.000 A 
ATOM      6  C   UNL     1      44.615   4.637  11.426  0.00  0.00    +0.000 A 
ATOM      7  C   UNL     1      44.909   5.938  11.846  0.00  0.00    +0.000 A 
ATOM      8  C   UNL     1      45.751   6.153  12.940  0.00  0.00    +0.000 A 
BRANCH   6   9
ATOM      9  C   UNL     1      43.659   4.394  10.280  0.00  0.00    +0.000 C 
BRANCH   9  10
ATOM     10  N   UNL     1      44.217   3.412   9.353  0.00  0.00    +0.000 NA
ATOM     11  H   UNL     1      43.452   2.912   8.900  0.00  0.00    +0.000 HD
BRANCH  10  12
ATOM     12  C   UNL     1      45.055   4.036   8.335  0.00  0.00    +0.000 C 
BRANCH  12  13
ATOM     13  C   UNL     1      45.994   3.020   7.729  0.00  0.00    +0.000 A 
ATOM     14  C   UNL     1      46.804   3.345   6.636  0.00  0.00    +0.000 A 
ATOM     15  C   UNL     1      47.639   2.368   6.113  0.00  0.00    +0.000 A 
ATOM     16  N   UNL     1      47.723   1.111   6.598  0.00  0.00    +0.000 NA
ATOM     17  C   UNL     1      46.937   0.817   7.655  0.00  0.00    +0.000 A 
ATOM     18  C   UNL     1      46.073   1.725   8.249  0.00  0.00    +0.000 A 
ENDBRANCH  12  13
ENDBRANCH  10  12
ENDBRANCH   9  10
ENDBRANCH   6   9
ENDBRANCH   2   3
BRANCH   2  19
ATOM     19  N   UNL     1      48.388   6.035  14.468  0.00  0.00    +0.000 N 
ATOM     20  C   UNL     1      49.025   6.947  15.270  0.00  0.00    +0.000 C 
ATOM     21  O   UNL     1      48.661   7.192  16.415  0.00  0.00    +0.000 OA
ATOM     22  H   UNL     1      48.533   6.115  13.464  0.00  0.00    +0.000 HD
BRANCH  20  23
ATOM     23  C   UNL     1      50.229   7.575  14.712  0.00  0.00    +0.000 A 
ATOM     24  C   UNL     1      51.409   7.561  15.445  0.00  0.00    +0.000 A 
ATOM     25  S   UNL     1      52.716   8.315  14.651  0.00  0.00    +0.000 S 
ATOM     26  C   UNL     1      51.739   8.728  13.319  0.00  0.00    +0.000 A 
ATOM     27  N   UNL     1      52.245   9.438  12.275  0.00  0.00    +0.000 NA
ATOM     28  C   UNL     1      51.386   9.711  11.351  0.00  0.00    +0.000 A 
ATOM     29  N   UNL     1      50.070   9.325  11.369  0.00  0.00    +0.000 N 
ATOM     30  C   UNL     1      49.527   8.570  12.383  0.00  0.00    +0.000 A 
ATOM     31  O   UNL     1      48.364   8.178  12.342  0.00  0.00    +0.000 OA
ATOM     32  C   UNL     1      50.443   8.265  13.464  0.00  0.00    +0.000 A 
ATOM     33  H   UNL     1      49.452   9.558  10.606  0.00  0.00    +0.000 HD
ENDBRANCH  20  23
ENDBRANCH   2  19
TORSDOF 7
ENDMDL
MODEL 4
REMARK VINA RESULT:    -7.482      3.405      8.050
REMARK INTER + INTRA:         -11.887
REMARK INTER:                 -10.216
REMARK INTRA:                  -1.671
REMARK UNBOUND:                -1.343
REMARK  Name = 
REMARK  8 active torsions:
REMARK  status: ('A' for Active; 'I' for Inactive)
REMARK    1  A    between atoms: C_1  and  C_2
REMARK    2  A    between atoms: C_2  and  N_3
REMARK    3  A    between atoms: C_2  and  C_16
REMARK    4  A    between atoms: C_4  and  C_6
REMARK    5  A    between atoms: C_19  and  C_20
REMARK    6  A    between atoms: C_20  and  N_21
REMARK    7  A    between atoms: N_21  and  C_22
REMARK    8  A    between atoms: C_22  and  C_23
REMARK                            x       y       z     vdW  Elec       q    Type
REMARK                         _______ _______ _______ _____ _____    ______ ____
ROOT
ATOM      1  C   UNL     1      49.726   8.360  11.419  0.00  0.00    +0.000 C 
ATOM      2  C   UNL     1      48.342   8.165  12.051  0.00  0.00    +0.000 C 
ENDROOT
BRANCH   2   3
ATOM      3  C   UNL     1      48.485   7.949  13.551  0.00  0.00    +0.000 A 
ATOM      4  C   UNL     1      48.191   8.979  14.454  0.00  0.00    +0.000 A 
ATOM      5  C   UNL     1      48.274   8.756  15.834  0.00  0.00    +0.000 A 
ATOM      6  C   UNL     1      48.642   7.502  16.341  0.00  0.00    +0.000 A 
ATOM      7  C   UNL     1      48.962   6.480  15.441  0.00  0.00    +0.000 A 
ATOM      8  C   UNL     1      48.883   6.702  14.063  0.00  0.00    +0.000 A 
BRANCH   6   9
ATOM      9  C   UNL     1      48.669   7.252  17.832  0.00  0.00    +0.000 C 
BRANCH   9  10
ATOM     10  N   UNL     1      47.713   6.206  18.189  0.00  0.00    +0.000 NA
ATOM     11  H   UNL     1      47.304   5.827  17.335  0.00  0.00    +0.000 HD
BRANCH  10  12
ATOM     12  C   UNL     1      48.341   5.127  18.944  0.00  0.00    +0.000 C 
BRANCH  12  13
ATOM     13  C   UNL     1      48.736   3.999  18.021  0.00  0.00    +0.000 A 
ATOM     14  C   UNL     1      50.042   3.499  18.007  0.00  0.00    +0.000 A 
ATOM     15  C   UNL     1      50.351   2.470  17.130  0.00  0.00    +0.000 A 
ATOM     16  N   UNL     1      49.462   1.911  16.281  0.00  0.00    +0.000 NA
ATOM     17  C   UNL     1      48.206   2.403  16.312  0.00  0.00    +0.000 A 
ATOM     18  C   UNL     1      47.800   3.428  17.154  0.00  0.00    +0.000 A 
ENDBRANCH  12  13
ENDBRANCH  10  12
ENDBRANCH   9  10
ENDBRANCH   6   9
ENDBRANCH   2   3
BRANCH   2  19
ATOM     19  N   UNL     1      47.608   7.044  11.480  0.00  0.00    +0.000 N 
ATOM     20  C   UNL     1      46.238   6.984  11.434  0.00  0.00    +0.000 C 
ATOM     21  O   UNL     1      45.520   7.899  11.824  0.00  0.00    +0.000 OA
ATOM     22  H   UNL     1      48.114   6.163  11.447  0.00  0.00    +0.000 HD
BRANCH  20  23
ATOM     23  C   UNL     1      45.660   5.785  10.816  0.00  0.00    +0.000 A 
ATOM     24  C   UNL     1      45.833   5.566   9.456  0.00  0.00    +0.000 A 
ATOM     25  S   UNL     1      45.116   4.122   8.898  0.00  0.00    +0.000 S 
ATOM     26  C   UNL     1      44.508   3.764  10.447  0.00  0.00    +0.000 A 
ATOM     27  N   UNL     1      43.748   2.655  10.659  0.00  0.00    +0.000 NA
ATOM     28  C   UNL     1      43.325   2.524  11.872  0.00  0.00    +0.000 A 
ATOM     29  N   UNL     1      43.607   3.394  12.895  0.00  0.00    +0.000 N 
ATOM     30  C   UNL     1      44.405   4.503  12.736  0.00  0.00    +0.000 A 
ATOM     31  O   UNL     1      44.698   5.226  13.683  0.00  0.00    +0.000 OA
ATOM     32  C   UNL     1      44.878   4.714  11.382  0.00  0.00    +0.000 A 
ATOM     33  H   UNL     1      43.257   3.226  13.827  0.00  0.00    +0.000 HD
ENDBRANCH  20  23
ENDBRANCH   2  19
TORSDOF 7
ENDMDL
MODEL 5
REMARK VINA RESULT:    -7.386      2.981      8.422
REMARK INTER + INTRA:         -11.752
REMARK INTER:                 -10.028
REMARK INTRA:                  -1.724
REMARK UNBOUND:                -1.343
REMARK  Name = 
REMARK  8 active torsions:
REMARK  status: ('A' for Active; 'I' for Inactive)
REMARK    1  A    between atoms: C_1  and  C_2
REMARK    2  A    between atoms: C_2  and  N_3
REMARK    3  A    between atoms: C_2  and  C_16
REMARK    4  A    between atoms: C_4  and  C_6
REMARK    5  A    between atoms: C_19  and  C_20
REMARK    6  A    between atoms: C_20  and  N_21
REMARK    7  A    between atoms: N_21  and  C_22
REMARK    8  A    between atoms: C_22  and  C_23
REMARK                            x       y       z     vdW  Elec       q    Type
REMARK                         _______ _______ _______ _____ _____    ______ ____
ROOT
ATOM      1  C   UNL     1      49.159   8.016  11.385  0.00  0.00    +0.000 C 
ATOM      2  C   UNL     1      47.948   7.920  12.322  0.00  0.00    +0.000 C 
ENDROOT
BRANCH   2   3
ATOM      3  C   UNL     1      48.416   7.902  13.770  0.00  0.00    +0.000 A 
ATOM      4  C   UNL     1      47.874   8.788  14.709  0.00  0.00    +0.000 A 
ATOM      5  C   UNL     1      48.271   8.730  16.051  0.00  0.00    +0.000 A 
ATOM      6  C   UNL     1      49.209   7.782  16.484  0.00  0.00    +0.000 A 
ATOM      7  C   UNL     1      49.771   6.914  15.543  0.00  0.00    +0.000 A 
ATOM      8  C   UNL     1      49.379   6.973  14.203  0.00  0.00    +0.000 A 
BRANCH   6   9
ATOM      9  C   UNL     1      49.586   7.685  17.945  0.00  0.00    +0.000 C 
BRANCH   9  10
ATOM     10  N   UNL     1      50.217   6.396  18.222  0.00  0.00    +0.000 NA
ATOM     11  H   UNL     1      50.956   6.533  18.912  0.00  0.00    +0.000 HD
BRANCH  10  12
ATOM     12  C   UNL     1      49.261   5.417  18.725  0.00  0.00    +0.000 C 
BRANCH  12  13
ATOM     13  C   UNL     1      49.264   4.182  17.855  0.00  0.00    +0.000 A 
ATOM     14  C   UNL     1      50.380   3.341  17.796  0.00  0.00    +0.000 A 
ATOM     15  C   UNL     1      50.331   2.228  16.970  0.00  0.00    +0.000 A 
ATOM     16  N   UNL     1      49.263   1.898  16.213  0.00  0.00    +0.000 NA
ATOM     17  C   UNL     1      48.194   2.719  16.286  0.00  0.00    +0.000 A 
ATOM     18  C   UNL     1      48.146   3.853  17.083  0.00  0.00    +0.000 A 
ENDBRANCH  12  13
ENDBRANCH  10  12
ENDBRANCH   9  10
ENDBRANCH   6   9
ENDBRANCH   2   3
BRANCH   2  19
ATOM     19  N   UNL     1      47.129   6.741  12.075  0.00  0.00    +0.000 N 
ATOM     20  C   UNL     1      45.763   6.733  12.197  0.00  0.00    +0.000 C 
ATOM     21  O   UNL     1      45.115   7.737  12.474  0.00  0.00    +0.000 OA
ATOM     22  H   UNL     1      47.610   5.850  12.163  0.00  0.00    +0.000 HD
BRANCH  20  23
ATOM     23  C   UNL     1      45.092   5.462  11.902  0.00  0.00    +0.000 A 
ATOM     24  C   UNL     1      44.401   4.803  12.911  0.00  0.00    +0.000 A 
ATOM     25  S   UNL     1      43.664   3.352  12.402  0.00  0.00    +0.000 S 
ATOM     26  C   UNL     1      44.282   3.529  10.826  0.00  0.00    +0.000 A 
ATOM     27  N   UNL     1      44.049   2.584   9.874  0.00  0.00    +0.000 NA
ATOM     28  C   UNL     1      44.605   2.829   8.735  0.00  0.00    +0.000 A 
ATOM     29  N   UNL     1      45.360   3.940   8.457  0.00  0.00    +0.000 N 
ATOM     30  C   UNL     1      45.585   4.940   9.374  0.00  0.00    +0.000 A 
ATOM     31  O   UNL     1      46.205   5.956   9.078  0.00  0.00    +0.000 OA
ATOM     32  C   UNL     1      45.010   4.696  10.682  0.00  0.00    +0.000 A 
ATOM     33  H   UNL     1      45.755   4.079   7.539  0.00  0.00    +0.000 HD
ENDBRANCH  20  23
ENDBRANCH   2  19
TORSDOF 7
ENDMDL
MODEL 6
REMARK VINA RESULT:    -6.796      3.317      5.260
REMARK INTER + INTRA:         -10.920
REMARK INTER:                  -9.488
REMARK INTRA:                  -1.432
REMARK UNBOUND:                -1.343
REMARK  Name = 
REMARK  8 active torsions:
REMARK  status: ('A' for Active; 'I' for Inactive)
REMARK    1  A    between atoms: C_1  and  C_2
REMARK    2  A    between atoms: C_2  and  N_3
REMARK    3  A    between atoms: C_2  and  C_16
REMARK    4  A    between atoms: C_4  and  C_6
REMARK    5  A    between atoms: C_19  and  C_20
REMARK    6  A    between atoms: C_20  and  N_21
REMARK    7  A    between atoms: N_21  and  C_22
REMARK    8  A    between atoms: C_22  and  C_23
REMARK                            x       y       z     vdW  Elec       q    Type
REMARK                         _______ _______ _______ _____ _____    ______ ____
ROOT
ATOM      1  C   UNL     1      47.507   2.885  17.525  0.00  0.00    +0.000 C 
ATOM      2  C   UNL     1      48.406   4.117  17.353  0.00  0.00    +0.000 C 
ENDROOT
BRANCH   2   3
ATOM      3  C   UNL     1      48.072   4.820  16.045  0.00  0.00    +0.000 A 
ATOM      4  C   UNL     1      47.154   4.263  15.146  0.00  0.00    +0.000 A 
ATOM      5  C   UNL     1      46.812   4.942  13.970  0.00  0.00    +0.000 A 
ATOM      6  C   UNL     1      47.371   6.193  13.672  0.00  0.00    +0.000 A 
ATOM      7  C   UNL     1      48.308   6.739  14.555  0.00  0.00    +0.000 A 
ATOM      8  C   UNL     1      48.653   6.061  15.727  0.00  0.00    +0.000 A 
BRANCH   6   9
ATOM      9  C   UNL     1      46.950   6.948  12.431  0.00  0.00    +0.000 C 
BRANCH   9  10
ATOM     10  N   UNL     1      45.492   6.996  12.336  0.00  0.00    +0.000 NA
ATOM     11  H   UNL     1      45.178   7.941  12.556  0.00  0.00    +0.000 HD
BRANCH  10  12
ATOM     12  C   UNL     1      45.020   6.627  11.007  0.00  0.00    +0.000 C 
BRANCH  12  13
ATOM     13  C   UNL     1      44.524   5.200  11.001  0.00  0.00    +0.000 A 
ATOM     14  C   UNL     1      44.713   4.372   9.890  0.00  0.00    +0.000 A 
ATOM     15  C   UNL     1      44.226   3.074   9.937  0.00  0.00    +0.000 A 
ATOM     16  N   UNL     1      43.577   2.551  10.998  0.00  0.00    +0.000 NA
ATOM     17  C   UNL     1      43.408   3.362  12.063  0.00  0.00    +0.000 A 
ATOM     18  C   UNL     1      43.860   4.673  12.113  0.00  0.00    +0.000 A 
ENDBRANCH  12  13
ENDBRANCH  10  12
ENDBRANCH   9  10
ENDBRANCH   6   9
ENDBRANCH   2   3
BRANCH   2  19
ATOM     19  N   UNL     1      49.825   3.792  17.366  0.00  0.00    +0.000 N 
ATOM     20  C   UNL     1      50.663   4.113  18.403  0.00  0.00    +0.000 C 
ATOM     21  O   UNL     1      50.270   4.657  19.430  0.00  0.00    +0.000 OA
ATOM     22  H   UNL     1      50.248   3.649  16.453  0.00  0.00    +0.000 HD
BRANCH  20  23
ATOM     23  C   UNL     1      52.065   3.703  18.258  0.00  0.00    +0.000 A 
ATOM     24  C   UNL     1      53.075   4.622  18.508  0.00  0.00    +0.000 A 
ATOM     25  S   UNL     1      54.645   3.984  18.313  0.00  0.00    +0.000 S 
ATOM     26  C   UNL     1      54.028   2.470  17.840  0.00  0.00    +0.000 A 
ATOM     27  N   UNL     1      54.863   1.455  17.485  0.00  0.00    +0.000 NA
ATOM     28  C   UNL     1      54.260   0.375  17.116  0.00  0.00    +0.000 A 
ATOM     29  N   UNL     1      52.898   0.212  17.085  0.00  0.00    +0.000 N 
ATOM     30  C   UNL     1      52.018   1.195  17.475  0.00  0.00    +0.000 A 
ATOM     31  O   UNL     1      50.807   1.000  17.504  0.00  0.00    +0.000 OA
ATOM     32  C   UNL     1      52.645   2.442  17.867  0.00  0.00    +0.000 A 
ATOM     33  H   UNL     1      52.489  -0.665  16.800  0.00  0.00    +0.000 HD
ENDBRANCH  20  23
ENDBRANCH   2  19
TORSDOF 7
ENDMDL
MODEL 7
REMARK VINA RESULT:    -6.616      3.285      5.435
REMARK INTER + INTRA:         -10.666
REMARK INTER:                  -9.752
REMARK INTRA:                  -0.914
REMARK UNBOUND:                -1.343
REMARK  Name = 
REMARK  8 active torsions:
REMARK  status: ('A' for Active; 'I' for Inactive)
REMARK    1  A    between atoms: C_1  and  C_2
REMARK    2  A    between atoms: C_2  and  N_3
REMARK    3  A    between atoms: C_2  and  C_16
REMARK    4  A    between atoms: C_4  and  C_6
REMARK    5  A    between atoms: C_19  and  C_20
REMARK    6  A    between atoms: C_20  and  N_21
REMARK    7  A    between atoms: N_21  and  C_22
REMARK    8  A    between atoms: C_22  and  C_23
REMARK                            x       y       z     vdW  Elec       q    Type
REMARK                         _______ _______ _______ _____ _____    ______ ____
ROOT
ATOM      1  C   UNL     1      47.143   2.524  17.755  0.00  0.00    +0.000 C 
ATOM      2  C   UNL     1      48.069   3.747  17.766  0.00  0.00    +0.000 C 
ENDROOT
BRANCH   2   3
ATOM      3  C   UNL     1      47.907   4.528  16.470  0.00  0.00    +0.000 A 
ATOM      4  C   UNL     1      48.559   5.754  16.285  0.00  0.00    +0.000 A 
ATOM      5  C   UNL     1      48.447   6.440  15.070  0.00  0.00    +0.000 A 
ATOM      6  C   UNL     1      47.691   5.915  14.012  0.00  0.00    +0.000 A 
ATOM      7  C   UNL     1      47.018   4.704  14.204  0.00  0.00    +0.000 A 
ATOM      8  C   UNL     1      47.125   4.020  15.417  0.00  0.00    +0.000 A 
BRANCH   6   9
ATOM      9  C   UNL     1      47.627   6.632  12.682  0.00  0.00    +0.000 C 
BRANCH   9  10
ATOM     10  N   UNL     1      46.236   6.833  12.282  0.00  0.00    +0.000 NA
ATOM     11  H   UNL     1      46.039   7.834  12.264  0.00  0.00    +0.000 HD
BRANCH  10  12
ATOM     12  C   UNL     1      45.959   6.264  10.968  0.00  0.00    +0.000 C 
BRANCH  12  13
ATOM     13  C   UNL     1      45.008   5.097  11.089  0.00  0.00    +0.000 A 
ATOM     14  C   UNL     1      44.168   4.960  12.200  0.00  0.00    +0.000 A 
ATOM     15  C   UNL     1      43.324   3.861  12.263  0.00  0.00    +0.000 A 
ATOM     16  N   UNL     1      43.256   2.906  11.311  0.00  0.00    +0.000 NA
ATOM     17  C   UNL     1      44.070   3.058  10.246  0.00  0.00    +0.000 A 
ATOM     18  C   UNL     1      44.946   4.121  10.090  0.00  0.00    +0.000 A 
ENDBRANCH  12  13
ENDBRANCH  10  12
ENDBRANCH   9  10
ENDBRANCH   6   9
ENDBRANCH   2   3
BRANCH   2  19
ATOM     19  N   UNL     1      49.473   3.396  17.934  0.00  0.00    +0.000 N 
ATOM     20  C   UNL     1      50.111   2.454  17.169  0.00  0.00    +0.000 C 
ATOM     21  O   UNL     1      49.561   1.865  16.244  0.00  0.00    +0.000 OA
ATOM     22  H   UNL     1      49.866   3.599  18.849  0.00  0.00    +0.000 HD
BRANCH  20  23
ATOM     23  C   UNL     1      51.531   2.229  17.465  0.00  0.00    +0.000 A 
ATOM     24  C   UNL     1      52.006   0.931  17.595  0.00  0.00    +0.000 A 
ATOM     25  S   UNL     1      53.678   0.842  17.920  0.00  0.00    +0.000 S 
ATOM     26  C   UNL     1      53.817   2.539  17.945  0.00  0.00    +0.000 A 
ATOM     27  N   UNL     1      55.009   3.138  18.216  0.00  0.00    +0.000 NA
ATOM     28  C   UNL     1      54.962   4.428  18.237  0.00  0.00    +0.000 A 
ATOM     29  N   UNL     1      53.836   5.174  17.996  0.00  0.00    +0.000 N 
ATOM     30  C   UNL     1      52.622   4.612  17.677  0.00  0.00    +0.000 A 
ATOM     31  O   UNL     1      51.647   5.302  17.398  0.00  0.00    +0.000 OA
ATOM     32  C   UNL     1      52.612   3.162  17.674  0.00  0.00    +0.000 A 
ATOM     33  H   UNL     1      53.871   6.182  18.012  0.00  0.00    +0.000 HD
ENDBRANCH  20  23
ENDBRANCH   2  19
TORSDOF 7
ENDMDL
MODEL 8
REMARK VINA RESULT:    -6.490      4.585      7.875
REMARK INTER + INTRA:         -10.488
REMARK INTER:                  -9.493
REMARK INTRA:                  -0.995
REMARK UNBOUND:                -1.343
REMARK  Name = 
REMARK  8 active torsions:
REMARK  status: ('A' for Active; 'I' for Inactive)
REMARK    1  A    between atoms: C_1  and  C_2
REMARK    2  A    between atoms: C_2  and  N_3
REMARK    3  A    between atoms: C_2  and  C_16
REMARK    4  A    between atoms: C_4  and  C_6
REMARK    5  A    between atoms: C_19  and  C_20
REMARK    6  A    between atoms: C_20  and  N_21
REMARK    7  A    between atoms: N_21  and  C_22
REMARK    8  A    between atoms: C_22  and  C_23
REMARK                            x       y       z     vdW  Elec       q    Type
REMARK                         _______ _______ _______ _____ _____    ______ ____
ROOT
ATOM      1  C   UNL     1      45.184   9.489  12.301  0.00  0.00    +0.000 C 
ATOM      2  C   UNL     1      45.961   8.226  12.694  0.00  0.00    +0.000 C 
ENDROOT
BRANCH   2   3
ATOM      3  C   UNL     1      47.420   8.370  12.281  0.00  0.00    +0.000 A 
ATOM      4  C   UNL     1      47.938   9.614  11.901  0.00  0.00    +0.000 A 
ATOM      5  C   UNL     1      49.293   9.748  11.575  0.00  0.00    +0.000 A 
ATOM      6  C   UNL     1      50.160   8.648  11.630  0.00  0.00    +0.000 A 
ATOM      7  C   UNL     1      49.639   7.399  11.984  0.00  0.00    +0.000 A 
ATOM      8  C   UNL     1      48.286   7.263  12.306  0.00  0.00    +0.000 A 
BRANCH   6   9
ATOM      9  C   UNL     1      51.634   8.814  11.337  0.00  0.00    +0.000 C 
BRANCH   9  10
ATOM     10  N   UNL     1      52.284   7.508  11.248  0.00  0.00    +0.000 NA
ATOM     11  H   UNL     1      51.649   6.853  10.793  0.00  0.00    +0.000 HD
BRANCH  10  12
ATOM     12  C   UNL     1      53.534   7.571  10.498  0.00  0.00    +0.000 C 
BRANCH  12  13
ATOM     13  C   UNL     1      53.376   6.896   9.156  0.00  0.00    +0.000 A 
ATOM     14  C   UNL     1      52.745   7.544   8.090  0.00  0.00    +0.000 A 
ATOM     15  C   UNL     1      52.619   6.871   6.883  0.00  0.00    +0.000 A 
ATOM     16  N   UNL     1      53.073   5.617   6.668  0.00  0.00    +0.000 NA
ATOM     17  C   UNL     1      53.683   5.010   7.707  0.00  0.00    +0.000 A 
ATOM     18  C   UNL     1      53.860   5.600   8.950  0.00  0.00    +0.000 A 
ENDBRANCH  12  13
ENDBRANCH  10  12
ENDBRANCH   9  10
ENDBRANCH   6   9
ENDBRANCH   2   3
BRANCH   2  19
ATOM     19  N   UNL     1      45.419   7.014  12.096  0.00  0.00    +0.000 N 
ATOM     20  C   UNL     1      45.422   5.796  12.726  0.00  0.00    +0.000 C 
ATOM     21  O   UNL     1      45.837   5.641  13.870  0.00  0.00    +0.000 OA
ATOM     22  H   UNL     1      45.368   7.014  11.081  0.00  0.00    +0.000 HD
BRANCH  20  23
ATOM     23  C   UNL     1      44.826   4.679  11.984  0.00  0.00    +0.000 A 
ATOM     24  C   UNL     1      44.030   3.760  12.655  0.00  0.00    +0.000 A 
ATOM     25  S   UNL     1      43.401   2.535  11.649  0.00  0.00    +0.000 S 
ATOM     26  C   UNL     1      44.209   3.164  10.289  0.00  0.00    +0.000 A 
ATOM     27  N   UNL     1      44.124   2.547   9.079  0.00  0.00    +0.000 NA
ATOM     28  C   UNL     1      44.814   3.111   8.145  0.00  0.00    +0.000 A 
ATOM     29  N   UNL     1      45.568   4.245   8.307  0.00  0.00    +0.000 N 
ATOM     30  C   UNL     1      45.650   4.924   9.501  0.00  0.00    +0.000 A 
ATOM     31  O   UNL     1      46.276   5.974   9.602  0.00  0.00    +0.000 OA
ATOM     32  C   UNL     1      44.919   4.311  10.593  0.00  0.00    +0.000 A 
ATOM     33  H   UNL     1      46.073   4.645   7.531  0.00  0.00    +0.000 HD
ENDBRANCH  20  23
ENDBRANCH   2  19
TORSDOF 7
ENDMDL
MODEL 9
REMARK VINA RESULT:    -6.286      3.529      8.290
REMARK INTER + INTRA:         -10.201
REMARK INTER:                  -9.359
REMARK INTRA:                  -0.842
REMARK UNBOUND:                -1.343
REMARK  Name = 
REMARK  8 active torsions:
REMARK  status: ('A' for Active; 'I' for Inactive)
REMARK    1  A    between atoms: C_1  and  C_2
REMARK    2  A    between atoms: C_2  and  N_3
REMARK    3  A    between atoms: C_2  and  C_16
REMARK    4  A    between atoms: C_4  and  C_6
REMARK    5  A    between atoms: C_19  and  C_20
REMARK    6  A    between atoms: C_20  and  N_21
REMARK    7  A    between atoms: N_21  and  C_22
REMARK    8  A    between atoms: C_22  and  C_23
REMARK                            x       y       z     vdW  Elec       q    Type
REMARK                         _______ _______ _______ _____ _____    ______ ____
ROOT
ATOM      1  C   UNL     1      49.416   8.864  13.445  0.00  0.00    +0.000 C 
ATOM      2  C   UNL     1      48.400   8.515  14.541  0.00  0.00    +0.000 C 
ENDROOT
BRANCH   2   3
ATOM      3  C   UNL     1      49.125   7.950  15.754  0.00  0.00    +0.000 A 
ATOM      4  C   UNL     1      50.333   7.257  15.609  0.00  0.00    +0.000 A 
ATOM      5  C   UNL     1      51.020   6.787  16.734  0.00  0.00    +0.000 A 
ATOM      6  C   UNL     1      50.523   7.007  18.027  0.00  0.00    +0.000 A 
ATOM      7  C   UNL     1      49.303   7.675  18.173  0.00  0.00    +0.000 A 
ATOM      8  C   UNL     1      48.614   8.142  17.051  0.00  0.00    +0.000 A 
BRANCH   6   9
ATOM      9  C   UNL     1      51.302   6.551  19.240  0.00  0.00    +0.000 C 
BRANCH   9  10
ATOM     10  N   UNL     1      51.114   5.117  19.454  0.00  0.00    +0.000 NA
ATOM     11  H   UNL     1      51.422   4.882  20.398  0.00  0.00    +0.000 HD
BRANCH  10  12
ATOM     12  C   UNL     1      49.721   4.719  19.287  0.00  0.00    +0.000 C 
BRANCH  12  13
ATOM     13  C   UNL     1      49.596   3.688  18.191  0.00  0.00    +0.000 A 
ATOM     14  C   UNL     1      50.679   2.880  17.830  0.00  0.00    +0.000 A 
ATOM     15  C   UNL     1      50.509   1.958  16.807  0.00  0.00    +0.000 A 
ATOM     16  N   UNL     1      49.353   1.786  16.132  0.00  0.00    +0.000 NA
ATOM     17  C   UNL     1      48.318   2.571  16.497  0.00  0.00    +0.000 A 
ATOM     18  C   UNL     1      48.388   3.519  17.508  0.00  0.00    +0.000 A 
ENDBRANCH  12  13
ENDBRANCH  10  12
ENDBRANCH   9  10
ENDBRANCH   6   9
ENDBRANCH   2   3
BRANCH   2  19
ATOM     19  N   UNL     1      47.395   7.557  14.102  0.00  0.00    +0.000 N 
ATOM     20  C   UNL     1      47.671   6.502  13.271  0.00  0.00    +0.000 C 
ATOM     21  O   UNL     1      48.803   6.250  12.871  0.00  0.00    +0.000 OA
ATOM     22  H   UNL     1      46.435   7.889  14.131  0.00  0.00    +0.000 HD
BRANCH  20  23
ATOM     23  C   UNL     1      46.543   5.626  12.935  0.00  0.00    +0.000 A 
ATOM     24  C   UNL     1      46.637   4.263  13.182  0.00  0.00    +0.000 A 
ATOM     25  S   UNL     1      45.237   3.390  12.752  0.00  0.00    +0.000 S 
ATOM     26  C   UNL     1      44.472   4.797  12.176  0.00  0.00    +0.000 A 
ATOM     27  N   UNL     1      43.230   4.740  11.622  0.00  0.00    +0.000 NA
ATOM     28  C   UNL     1      42.786   5.875  11.196  0.00  0.00    +0.000 A 
ATOM     29  N   UNL     1      43.463   7.064  11.288  0.00  0.00    +0.000 N 
ATOM     30  C   UNL     1      44.701   7.175  11.878  0.00  0.00    +0.000 A 
ATOM     31  O   UNL     1      45.256   8.262  12.010  0.00  0.00    +0.000 OA
ATOM     32  C   UNL     1      45.261   5.921  12.343  0.00  0.00    +0.000 A 
ATOM     33  H   UNL     1      43.052   7.920  10.948  0.00  0.00    +0.000 HD
ENDBRANCH  20  23
ENDBRANCH   2  19
TORSDOF 7
ENDMDL
