MODEL 1
REMARK VINA RESULT:    -8.353      0.000      0.000
REMARK INTER + INTRA:         -11.776
REMARK INTER:                 -10.794
REMARK INTRA:                  -0.982
REMARK UNBOUND:                -0.982
REMARK  Name = 
REMARK  6 active torsions:
REMARK  status: ('A' for Active; 'I' for Inactive)
REMARK    1  A    between atoms: C_1  and  C_2
REMARK    2  A    between atoms: C_4  and  C_5
REMARK    3  A    between atoms: C_10  and  O_11
REMARK    4  A    between atoms: O_11  and  C_12
REMARK    5  A    between atoms: C_12  and  C_13
REMARK    6  A    between atoms: C_17  and  C_18
REMARK                            x       y       z     vdW  Elec       q    Type
REMARK                         _______ _______ _______ _____ _____    ______ ____
ROOT
ATOM      1  C   UNL     1      43.879   6.572  11.392  0.00  0.00    +0.000 C 
ENDROOT
BRANCH   1   2
ATOM      2  C   UNL     1      43.885   5.094  11.084  0.00  0.00    +0.000 A 
ATOM      3  N   UNL     1      43.210   4.279  11.917  0.00  0.00    +0.000 NA
ATOM      4  C   UNL     1      43.287   2.966  11.661  0.00  0.00    +0.000 A 
ATOM      5  C   UNL     1      44.013   2.441  10.622  0.00  0.00    +0.000 A 
ATOM      6  C   UNL     1      44.696   3.342   9.826  0.00  0.00    +0.000 A 
ATOM      7  N   UNL     1      44.636   4.672  10.047  0.00  0.00    +0.000 NA
BRANCH   6   8
ATOM      8  C   UNL     1      45.525   2.920   8.681  0.00  0.00    +0.000 A 
ATOM      9  C   UNL     1      45.952   3.851   7.715  0.00  0.00    +0.000 A 
ATOM     10  C   UNL     1      46.710   3.459   6.607  0.00  0.00    +0.000 A 
ATOM     11  C   UNL     1      47.062   2.123   6.449  0.00  0.00    +0.000 A 
ATOM     12  C   UNL     1      46.667   1.197   7.405  0.00  0.00    +0.000 A 
ATOM     13  F   UNL     1      47.010  -0.089   7.265  0.00  0.00    +0.000 F 
ATOM     14  C   UNL     1      45.914   1.582   8.508  0.00  0.00    +0.000 A 
ENDBRANCH   6   8
ENDBRANCH   1   2
BRANCH   1  15
ATOM     15  O   UNL     1      44.551   6.870  12.610  0.00  0.00    +0.000 OA
BRANCH  15  22
ATOM     16  C   UNL     1      46.606   4.615  13.517  0.00  0.00    +0.000 C 
ATOM     17  C   UNL     1      46.879   5.998  12.995  0.00  0.00    +0.000 A 
ATOM     18  C   UNL     1      48.246   6.341  12.890  0.00  0.00    +0.000 A 
ATOM     19  C   UNL     1      48.677   7.588  12.419  0.00  0.00    +0.000 A 
ATOM     20  C   UNL     1      47.719   8.524  12.039  0.00  0.00    +0.000 A 
ATOM     21  C   UNL     1      46.360   8.202  12.136  0.00  0.00    +0.000 A 
ATOM     22  C   UNL     1      45.920   6.951  12.608  0.00  0.00    +0.000 A 
BRANCH  19  23
ATOM     23  C   UNL     1      50.150   7.826  12.354  0.00  0.00    +0.000 C 
ATOM     24  N   UNL     1      50.883   7.741  13.496  0.00  0.00    +0.000 N 
ATOM     25  O   UNL     1      50.706   8.099  11.294  0.00  0.00    +0.000 OA
ATOM     26  H   UNL     1      50.518   7.526  14.410  0.00  0.00    +0.000 HD
ATOM     27  H   UNL     1      51.877   7.910  13.411  0.00  0.00    +0.000 HD
ENDBRANCH  19  23
ENDBRANCH  15  22
ENDBRANCH   1  15
TORSDOF 5
ENDMDL
MODEL 2
REMARK VINA RESULT:    -7.923      0.731      1.568
REMARK INTER + INTRA:         -11.221
REMARK INTER:                 -10.484
REMARK INTRA:                  -0.738
REMARK UNBOUND:                -0.982
REMARK  Name = 
REMARK  6 active torsions:
REMARK  status: ('A' for Active; 'I' for Inactive)
REMARK    1  A    between atoms: C_1  and  C_2
REMARK    2  A    between atoms: C_4  and  C_5
REMARK    3  A    between atoms: C_10  and  O_11
REMARK    4  A    between atoms: O_11  and  C_12
REMARK    5  A    between atoms: C_12  and  C_13
REMARK    6  A    between atoms: C_17  and  C_18
REMARK                            x       y       z     vdW  Elec       q    Type
REMARK                         _______ _______ _______ _____ _____    ______ ____
ROOT
ATOM      1  C   UNL     1      44.111   6.480  11.688  0.00  0.00    +0.000 C 
ENDROOT
BRANCH   1   2
ATOM      2  C   UNL     1      44.030   5.027  11.286  0.00  0.00    +0.000 A 
ATOM      3  N   UNL     1      43.306   4.203  12.068  0.00  0.00    +0.000 NA
ATOM      4  C   UNL     1      43.305   2.907  11.728  0.00  0.00    +0.000 A 
ATOM      5  C   UNL     1      43.999   2.406  10.656  0.00  0.00    +0.000 A 
ATOM      6  C   UNL     1      44.735   3.314   9.917  0.00  0.00    +0.000 A 
ATOM      7  N   UNL     1      44.754   4.628  10.222  0.00  0.00    +0.000 NA
BRANCH   6   8
ATOM      8  C   UNL     1      45.539   2.917   8.745  0.00  0.00    +0.000 A 
ATOM      9  C   UNL     1      45.950   3.870   7.793  0.00  0.00    +0.000 A 
ATOM     10  C   UNL     1      46.683   3.502   6.661  0.00  0.00    +0.000 A 
ATOM     11  C   UNL     1      47.025   2.169   6.463  0.00  0.00    +0.000 A 
ATOM     12  C   UNL     1      46.646   1.222   7.403  0.00  0.00    +0.000 A 
ATOM     13  F   UNL     1      46.980  -0.062   7.224  0.00  0.00    +0.000 F 
ATOM     14  C   UNL     1      45.917   1.581   8.530  0.00  0.00    +0.000 A 
ENDBRANCH   6   8
ENDBRANCH   1   2
BRANCH   1  15
ATOM     15  O   UNL     1      44.977   6.683  12.799  0.00  0.00    +0.000 OA
BRANCH  15  22
ATOM     16  C   UNL     1      45.673   9.701  12.070  0.00  0.00    +0.000 C 
ATOM     17  C   UNL     1      46.596   8.530  12.256  0.00  0.00    +0.000 A 
ATOM     18  C   UNL     1      47.970   8.814  12.085  0.00  0.00    +0.000 A 
ATOM     19  C   UNL     1      48.965   7.839  12.225  0.00  0.00    +0.000 A 
ATOM     20  C   UNL     1      48.584   6.540  12.547  0.00  0.00    +0.000 A 
ATOM     21  C   UNL     1      47.228   6.238  12.720  0.00  0.00    +0.000 A 
ATOM     22  C   UNL     1      46.222   7.213  12.580  0.00  0.00    +0.000 A 
BRANCH  19  23
ATOM     23  C   UNL     1      50.381   8.269  12.021  0.00  0.00    +0.000 C 
ATOM     24  N   UNL     1      51.240   7.430  11.382  0.00  0.00    +0.000 N 
ATOM     25  O   UNL     1      50.781   9.359  12.420  0.00  0.00    +0.000 OA
ATOM     26  H   UNL     1      51.007   6.519  11.021  0.00  0.00    +0.000 HD
ATOM     27  H   UNL     1      52.190   7.756  11.264  0.00  0.00    +0.000 HD
ENDBRANCH  19  23
ENDBRANCH  15  22
ENDBRANCH   1  15
TORSDOF 5
ENDMDL
MODEL 3
REMARK VINA RESULT:    -7.861      3.506      6.820
REMARK INTER + INTRA:         -11.141
REMARK INTER:                 -10.496
REMARK INTRA:                  -0.645
REMARK UNBOUND:                -0.982
REMARK  Name = 
REMARK  6 active torsions:
REMARK  status: ('A' for Active; 'I' for Inactive)
REMARK    1  A    between atoms: C_1  and  C_2
REMARK    2  A    between atoms: C_4  and  C_5
REMARK    3  A    between atoms: C_10  and  O_11
REMARK    4  A    between atoms: O_11  and  C_12
REMARK    5  A    between atoms: C_12  and  C_13
REMARK    6  A    between atoms: C_17  and  C_18
REMARK                            x       y       z     vdW  Elec       q    Type
REMARK                         _______ _______ _______ _____ _____    ______ ____
ROOT
ATOM      1  C   UNL     1      43.952   3.205  11.937  0.00  0.00    +0.000 C 
ENDROOT
BRANCH   1   2
ATOM      2  C   UNL     1      45.184   3.878  12.493  0.00  0.00    +0.000 A 
ATOM      3  N   UNL     1      46.020   3.132  13.240  0.00  0.00    +0.000 NA
ATOM      4  C   UNL     1      47.069   3.769  13.778  0.00  0.00    +0.000 A 
ATOM      5  C   UNL     1      47.307   5.110  13.607  0.00  0.00    +0.000 A 
ATOM      6  C   UNL     1      46.391   5.809  12.844  0.00  0.00    +0.000 A 
ATOM      7  N   UNL     1      45.327   5.201  12.279  0.00  0.00    +0.000 NA
BRANCH   6   8
ATOM      8  C   UNL     1      46.513   7.256  12.586  0.00  0.00    +0.000 A 
ATOM      9  C   UNL     1      47.774   7.852  12.387  0.00  0.00    +0.000 A 
ATOM     10  C   UNL     1      47.907   9.227  12.175  0.00  0.00    +0.000 A 
ATOM     11  C   UNL     1      46.774  10.035  12.154  0.00  0.00    +0.000 A 
ATOM     12  C   UNL     1      45.524   9.460  12.328  0.00  0.00    +0.000 A 
ATOM     13  F   UNL     1      44.430  10.229  12.299  0.00  0.00    +0.000 F 
ATOM     14  C   UNL     1      45.386   8.093  12.538  0.00  0.00    +0.000 A 
ENDBRANCH   6   8
ENDBRANCH   1   2
BRANCH   1  15
ATOM     15  O   UNL     1      43.668   3.620  10.606  0.00  0.00    +0.000 OA
BRANCH  15  22
ATOM     16  C   UNL     1      45.506   5.794   9.185  0.00  0.00    +0.000 C 
ATOM     17  C   UNL     1      45.443   4.308   8.962  0.00  0.00    +0.000 A 
ATOM     18  C   UNL     1      46.331   3.809   7.983  0.00  0.00    +0.000 A 
ATOM     19  C   UNL     1      46.405   2.450   7.654  0.00  0.00    +0.000 A 
ATOM     20  C   UNL     1      45.570   1.557   8.320  0.00  0.00    +0.000 A 
ATOM     21  C   UNL     1      44.683   2.033   9.293  0.00  0.00    +0.000 A 
ATOM     22  C   UNL     1      44.603   3.398   9.628  0.00  0.00    +0.000 A 
BRANCH  19  23
ATOM     23  C   UNL     1      47.388   2.050   6.603  0.00  0.00    +0.000 C 
ATOM     24  N   UNL     1      47.533   2.835   5.502  0.00  0.00    +0.000 N 
ATOM     25  O   UNL     1      48.062   1.029   6.715  0.00  0.00    +0.000 OA
ATOM     26  H   UNL     1      47.026   3.686   5.321  0.00  0.00    +0.000 HD
ATOM     27  H   UNL     1      48.207   2.529   4.813  0.00  0.00    +0.000 HD
ENDBRANCH  19  23
ENDBRANCH  15  22
ENDBRANCH   1  15
TORSDOF 5
ENDMDL
MODEL 4
REMARK VINA RESULT:    -7.846      2.643      3.285
REMARK INTER + INTRA:         -11.122
REMARK INTER:                 -10.414
REMARK INTRA:                  -0.708
REMARK UNBOUND:                -0.982
REMARK  Name = 
REMARK  6 active torsions:
REMARK  status: ('A' for Active; 'I' for Inactive)
REMARK    1  A    between atoms: C_1  and  C_2
REMARK    2  A    between atoms: C_4  and  C_5
REMARK    3  A    between atoms: C_10  and  O_11
REMARK    4  A    between atoms: O_11  and  C_12
REMARK    5  A    between atoms: C_12  and  C_13
REMARK    6  A    between atoms: C_17  and  C_18
REMARK                            x       y       z     vdW  Elec       q    Type
REMARK                         _______ _______ _______ _____ _____    ______ ____
ROOT
ATOM      1  C   UNL     1      46.335   7.009  11.831  0.00  0.00    +0.000 C 
ENDROOT
BRANCH   1   2
ATOM      2  C   UNL     1      45.404   6.085  11.084  0.00  0.00    +0.000 A 
ATOM      3  N   UNL     1      44.107   6.078  11.447  0.00  0.00    +0.000 NA
ATOM      4  C   UNL     1      43.315   5.201  10.815  0.00  0.00    +0.000 A 
ATOM      5  C   UNL     1      43.767   4.334   9.852  0.00  0.00    +0.000 A 
ATOM      6  C   UNL     1      45.115   4.388   9.552  0.00  0.00    +0.000 A 
ATOM      7  N   UNL     1      45.942   5.264  10.160  0.00  0.00    +0.000 NA
BRANCH   6   8
ATOM      8  C   UNL     1      45.741   3.508   8.547  0.00  0.00    +0.000 A 
ATOM      9  C   UNL     1      46.273   4.037   7.354  0.00  0.00    +0.000 A 
ATOM     10  C   UNL     1      46.838   3.210   6.378  0.00  0.00    +0.000 A 
ATOM     11  C   UNL     1      46.888   1.835   6.582  0.00  0.00    +0.000 A 
ATOM     12  C   UNL     1      46.387   1.303   7.761  0.00  0.00    +0.000 A 
ATOM     13  F   UNL     1      46.440  -0.018   7.968  0.00  0.00    +0.000 F 
ATOM     14  C   UNL     1      45.824   2.119   8.735  0.00  0.00    +0.000 A 
ENDBRANCH   6   8
ENDBRANCH   1   2
BRANCH   1  15
ATOM     15  O   UNL     1      47.517   6.346  12.265  0.00  0.00    +0.000 OA
BRANCH  15  22
ATOM     16  C   UNL     1      46.205   3.601  13.199  0.00  0.00    +0.000 C 
ATOM     17  C   UNL     1      46.991   4.602  14.000  0.00  0.00    +0.000 A 
ATOM     18  C   UNL     1      47.175   4.271  15.361  0.00  0.00    +0.000 A 
ATOM     19  C   UNL     1      47.885   5.091  16.247  0.00  0.00    +0.000 A 
ATOM     20  C   UNL     1      48.432   6.276  15.765  0.00  0.00    +0.000 A 
ATOM     21  C   UNL     1      48.261   6.621  14.419  0.00  0.00    +0.000 A 
ATOM     22  C   UNL     1      47.548   5.802  13.523  0.00  0.00    +0.000 A 
BRANCH  19  23
ATOM     23  C   UNL     1      48.010   4.627  17.662  0.00  0.00    +0.000 C 
ATOM     24  N   UNL     1      47.457   3.437  18.017  0.00  0.00    +0.000 N 
ATOM     25  O   UNL     1      48.598   5.300  18.505  0.00  0.00    +0.000 OA
ATOM     26  H   UNL     1      46.956   2.818  17.400  0.00  0.00    +0.000 HD
ATOM     27  H   UNL     1      47.561   3.158  18.984  0.00  0.00    +0.000 HD
ENDBRANCH  19  23
ENDBRANCH  15  22
ENDBRANCH   1  15
TORSDOF 5
ENDMDL
MODEL 5
REMARK VINA RESULT:    -7.825      2.274      3.306
REMARK INTER + INTRA:         -11.094
REMARK INTER:                 -10.778
REMARK INTRA:                  -0.316
REMARK UNBOUND:                -0.982
REMARK  Name = 
REMARK  6 active torsions:
REMARK  status: ('A' for Active; 'I' for Inactive)
REMARK    1  A    between atoms: C_1  and  C_2
REMARK    2  A    between atoms: C_4  and  C_5
REMARK    3  A    between atoms: C_10  and  O_11
REMARK    4  A    between atoms: O_11  and  C_12
REMARK    5  A    between atoms: C_12  and  C_13
REMARK    6  A    between atoms: C_17  and  C_18
REMARK                            x       y       z     vdW  Elec       q    Type
REMARK                         _______ _______ _______ _____ _____    ______ ____
ROOT
ATOM      1  C   UNL     1      45.888   7.057  11.603  0.00  0.00    +0.000 C 
ENDROOT
BRANCH   1   2
ATOM      2  C   UNL     1      45.101   5.927  10.984  0.00  0.00    +0.000 A 
ATOM      3  N   UNL     1      43.864   5.690  11.464  0.00  0.00    +0.000 NA
ATOM      4  C   UNL     1      43.213   4.641  10.945  0.00  0.00    +0.000 A 
ATOM      5  C   UNL     1      43.748   3.822   9.983  0.00  0.00    +0.000 A 
ATOM      6  C   UNL     1      45.030   4.118   9.559  0.00  0.00    +0.000 A 
ATOM      7  N   UNL     1      45.714   5.172  10.051  0.00  0.00    +0.000 NA
BRANCH   6   8
ATOM      8  C   UNL     1      45.734   3.317   8.540  0.00  0.00    +0.000 A 
ATOM      9  C   UNL     1      46.293   3.928   7.399  0.00  0.00    +0.000 A 
ATOM     10  C   UNL     1      46.933   3.176   6.409  0.00  0.00    +0.000 A 
ATOM     11  C   UNL     1      47.032   1.795   6.545  0.00  0.00    +0.000 A 
ATOM     12  C   UNL     1      46.505   1.183   7.673  0.00  0.00    +0.000 A 
ATOM     13  F   UNL     1      46.605  -0.144   7.815  0.00  0.00    +0.000 F 
ATOM     14  C   UNL     1      45.868   1.925   8.661  0.00  0.00    +0.000 A 
ENDBRANCH   6   8
ENDBRANCH   1   2
BRANCH   1  15
ATOM     15  O   UNL     1      47.196   6.651  11.991  0.00  0.00    +0.000 OA
BRANCH  15  22
ATOM     16  C   UNL     1      48.775   7.945  14.432  0.00  0.00    +0.000 C 
ATOM     17  C   UNL     1      48.063   6.623  14.352  0.00  0.00    +0.000 A 
ATOM     18  C   UNL     1      48.099   5.848  15.533  0.00  0.00    +0.000 A 
ATOM     19  C   UNL     1      47.484   4.594  15.632  0.00  0.00    +0.000 A 
ATOM     20  C   UNL     1      46.810   4.094  14.522  0.00  0.00    +0.000 A 
ATOM     21  C   UNL     1      46.763   4.847  13.342  0.00  0.00    +0.000 A 
ATOM     22  C   UNL     1      47.379   6.108  13.236  0.00  0.00    +0.000 A 
BRANCH  19  23
ATOM     23  C   UNL     1      47.593   3.876  16.937  0.00  0.00    +0.000 C 
ATOM     24  N   UNL     1      48.724   4.022  17.678  0.00  0.00    +0.000 N 
ATOM     25  O   UNL     1      46.685   3.159  17.349  0.00  0.00    +0.000 OA
ATOM     26  H   UNL     1      49.520   4.585  17.424  0.00  0.00    +0.000 HD
ATOM     27  H   UNL     1      48.761   3.519  18.555  0.00  0.00    +0.000 HD
ENDBRANCH  19  23
ENDBRANCH  15  22
ENDBRANCH   1  15
TORSDOF 5
ENDMDL
MODEL 6
REMARK VINA RESULT:    -7.770      3.246      6.586
REMARK INTER + INTRA:         -11.024
REMARK INTER:                 -10.486
REMARK INTRA:                  -0.537
REMARK UNBOUND:                -0.982
REMARK  Name = 
REMARK  6 active torsions:
REMARK  status: ('A' for Active; 'I' for Inactive)
REMARK    1  A    between atoms: C_1  and  C_2
REMARK    2  A    between atoms: C_4  and  C_5
REMARK    3  A    between atoms: C_10  and  O_11
REMARK    4  A    between atoms: O_11  and  C_12
REMARK    5  A    between atoms: C_12  and  C_13
REMARK    6  A    between atoms: C_17  and  C_18
REMARK                            x       y       z     vdW  Elec       q    Type
REMARK                         _______ _______ _______ _____ _____    ______ ____
ROOT
ATOM      1  C   UNL     1      43.672   4.837  11.370  0.00  0.00    +0.000 C 
ENDROOT
BRANCH   1   2
ATOM      2  C   UNL     1      44.967   5.050  12.118  0.00  0.00    +0.000 A 
ATOM      3  N   UNL     1      45.281   4.167  13.086  0.00  0.00    +0.000 NA
ATOM      4  C   UNL     1      46.400   4.416  13.779  0.00  0.00    +0.000 A 
ATOM      5  C   UNL     1      47.202   5.506  13.552  0.00  0.00    +0.000 A 
ATOM      6  C   UNL     1      46.800   6.375  12.556  0.00  0.00    +0.000 A 
ATOM      7  N   UNL     1      45.684   6.154  11.830  0.00  0.00    +0.000 NA
BRANCH   6   8
ATOM      8  C   UNL     1      47.557   7.592  12.210  0.00  0.00    +0.000 A 
ATOM      9  C   UNL     1      46.949   8.862  12.260  0.00  0.00    +0.000 A 
ATOM     10  C   UNL     1      47.646  10.020  11.903  0.00  0.00    +0.000 A 
ATOM     11  C   UNL     1      48.972   9.929  11.492  0.00  0.00    +0.000 A 
ATOM     12  C   UNL     1      49.591   8.688  11.458  0.00  0.00    +0.000 A 
ATOM     13  F   UNL     1      50.869   8.594  11.074  0.00  0.00    +0.000 F 
ATOM     14  C   UNL     1      48.903   7.534  11.813  0.00  0.00    +0.000 A 
ENDBRANCH   6   8
ENDBRANCH   1   2
BRANCH   1  15
ATOM     15  O   UNL     1      43.848   4.907   9.960  0.00  0.00    +0.000 OA
BRANCH  15  22
ATOM     16  C   UNL     1      43.799   1.763  10.445  0.00  0.00    +0.000 C 
ATOM     17  C   UNL     1      44.657   2.569   9.510  0.00  0.00    +0.000 A 
ATOM     18  C   UNL     1      45.570   1.818   8.735  0.00  0.00    +0.000 A 
ATOM     19  C   UNL     1      46.441   2.410   7.812  0.00  0.00    +0.000 A 
ATOM     20  C   UNL     1      46.404   3.792   7.653  0.00  0.00    +0.000 A 
ATOM     21  C   UNL     1      45.506   4.553   8.412  0.00  0.00    +0.000 A 
ATOM     22  C   UNL     1      44.628   3.964   9.342  0.00  0.00    +0.000 A 
BRANCH  19  23
ATOM     23  C   UNL     1      47.355   1.506   7.053  0.00  0.00    +0.000 C 
ATOM     24  N   UNL     1      48.387   2.047   6.351  0.00  0.00    +0.000 N 
ATOM     25  O   UNL     1      47.191   0.288   7.049  0.00  0.00    +0.000 OA
ATOM     26  H   UNL     1      48.601   3.030   6.292  0.00  0.00    +0.000 HD
ATOM     27  H   UNL     1      48.983   1.402   5.849  0.00  0.00    +0.000 HD
ENDBRANCH  19  23
ENDBRANCH  15  22
ENDBRANCH   1  15
TORSDOF 5
ENDMDL
MODEL 7
REMARK VINA RESULT:    -7.664      1.668      2.237
REMARK INTER + INTRA:         -10.887
REMARK INTER:                 -10.454
REMARK INTRA:                  -0.433
REMARK UNBOUND:                -0.982
REMARK  Name = 
REMARK  6 active torsions:
REMARK  status: ('A' for Active; 'I' for Inactive)
REMARK    1  A    between atoms: C_1  and  C_2
REMARK    2  A    between atoms: C_4  and  C_5
REMARK    3  A    between atoms: C_10  and  O_11
REMARK    4  A    between atoms: O_11  and  C_12
REMARK    5  A    between atoms: C_12  and  C_13
REMARK    6  A    between atoms: C_17  and  C_18
REMARK                            x       y       z     vdW  Elec       q    Type
REMARK                         _______ _______ _______ _____ _____    ______ ____
ROOT
ATOM      1  C   UNL     1      44.399   6.606  11.436  0.00  0.00    +0.000 C 
ENDROOT
BRANCH   1   2
ATOM      2  C   UNL     1      44.211   5.153  11.072  0.00  0.00    +0.000 A 
ATOM      3  N   UNL     1      43.407   4.411  11.858  0.00  0.00    +0.000 NA
ATOM      4  C   UNL     1      43.310   3.110  11.553  0.00  0.00    +0.000 A 
ATOM      5  C   UNL     1      43.986   2.526  10.512  0.00  0.00    +0.000 A 
ATOM      6  C   UNL     1      44.809   3.351   9.766  0.00  0.00    +0.000 A 
ATOM      7  N   UNL     1      44.925   4.668  10.037  0.00  0.00    +0.000 NA
BRANCH   6   8
ATOM      8  C   UNL     1      45.604   2.858   8.626  0.00  0.00    +0.000 A 
ATOM      9  C   UNL     1      46.054   3.740   7.624  0.00  0.00    +0.000 A 
ATOM     10  C   UNL     1      46.780   3.281   6.521  0.00  0.00    +0.000 A 
ATOM     11  C   UNL     1      47.075   1.927   6.402  0.00  0.00    +0.000 A 
ATOM     12  C   UNL     1      46.657   1.050   7.393  0.00  0.00    +0.000 A 
ATOM     13  F   UNL     1      46.946  -0.253   7.291  0.00  0.00    +0.000 F 
ATOM     14  C   UNL     1      45.935   1.500   8.492  0.00  0.00    +0.000 A 
ENDBRANCH   6   8
ENDBRANCH   1   2
BRANCH   1  15
ATOM     15  O   UNL     1      45.747   7.031  11.272  0.00  0.00    +0.000 OA
BRANCH  15  22
ATOM     16  C   UNL     1      47.264   9.587  12.409  0.00  0.00    +0.000 C 
ATOM     17  C   UNL     1      47.260   8.175  12.925  0.00  0.00    +0.000 A 
ATOM     18  C   UNL     1      48.040   7.955  14.082  0.00  0.00    +0.000 A 
ATOM     19  C   UNL     1      48.144   6.700  14.695  0.00  0.00    +0.000 A 
ATOM     20  C   UNL     1      47.451   5.629  14.141  0.00  0.00    +0.000 A 
ATOM     21  C   UNL     1      46.672   5.827  12.994  0.00  0.00    +0.000 A 
ATOM     22  C   UNL     1      46.563   7.085  12.373  0.00  0.00    +0.000 A 
BRANCH  19  23
ATOM     23  C   UNL     1      49.000   6.601  15.915  0.00  0.00    +0.000 C 
ATOM     24  N   UNL     1      48.467   6.927  17.123  0.00  0.00    +0.000 N 
ATOM     25  O   UNL     1      50.170   6.234  15.846  0.00  0.00    +0.000 OA
ATOM     26  H   UNL     1      47.522   7.239  17.280  0.00  0.00    +0.000 HD
ATOM     27  H   UNL     1      49.078   6.848  17.925  0.00  0.00    +0.000 HD
ENDBRANCH  19  23
ENDBRANCH  15  22
ENDBRANCH   1  15
TORSDOF 5
ENDMDL
MODEL 8
REMARK VINA RESULT:    -7.279      3.345      4.193
REMARK INTER + INTRA:         -10.389
REMARK INTER:                  -9.788
REMARK INTRA:                  -0.601
REMARK UNBOUND:                -0.982
REMARK  Name = 
REMARK  6 active torsions:
REMARK  status: ('A' for Active; 'I' for Inactive)
REMARK    1  A    between atoms: C_1  and  C_2
REMARK    2  A    between atoms: C_4  and  C_5
REMARK    3  A    between atoms: C_10  and  O_11
REMARK    4  A    between atoms: O_11  and  C_12
REMARK    5  A    between atoms: C_12  and  C_13
REMARK    6  A    between atoms: C_17  and  C_18
REMARK                            x       y       z     vdW  Elec       q    Type
REMARK                         _______ _______ _______ _____ _____    ______ ____
ROOT
ATOM      1  C   UNL     1      46.129   6.389  13.199  0.00  0.00    +0.000 C 
ENDROOT
BRANCH   1   2
ATOM      2  C   UNL     1      45.130   5.751  12.264  0.00  0.00    +0.000 A 
ATOM      3  N   UNL     1      43.823   5.871  12.569  0.00  0.00    +0.000 NA
ATOM      4  C   UNL     1      42.962   5.239  11.761  0.00  0.00    +0.000 A 
ATOM      5  C   UNL     1      43.351   4.492  10.678  0.00  0.00    +0.000 A 
ATOM      6  C   UNL     1      44.711   4.401  10.444  0.00  0.00    +0.000 A 
ATOM      7  N   UNL     1      45.609   5.030  11.231  0.00  0.00    +0.000 NA
BRANCH   6   8
ATOM      8  C   UNL     1      45.274   3.624   9.324  0.00  0.00    +0.000 A 
ATOM      9  C   UNL     1      45.334   2.217   9.378  0.00  0.00    +0.000 A 
ATOM     10  C   UNL     1      45.895   1.470   8.338  0.00  0.00    +0.000 A 
ATOM     11  C   UNL     1      46.404   2.120   7.218  0.00  0.00    +0.000 A 
ATOM     12  C   UNL     1      46.333   3.503   7.142  0.00  0.00    +0.000 A 
ATOM     13  F   UNL     1      46.812   4.134   6.063  0.00  0.00    +0.000 F 
ATOM     14  C   UNL     1      45.775   4.250   8.172  0.00  0.00    +0.000 A 
ENDBRANCH   6   8
ENDBRANCH   1   2
BRANCH   1  15
ATOM     15  O   UNL     1      47.247   5.545  13.449  0.00  0.00    +0.000 OA
BRANCH  15  22
ATOM     16  C   UNL     1      49.125   7.507  15.107  0.00  0.00    +0.000 C 
ATOM     17  C   UNL     1      48.504   6.204  15.526  0.00  0.00    +0.000 A 
ATOM     18  C   UNL     1      48.795   5.797  16.847  0.00  0.00    +0.000 A 
ATOM     19  C   UNL     1      48.295   4.611  17.399  0.00  0.00    +0.000 A 
ATOM     20  C   UNL     1      47.478   3.804  16.613  0.00  0.00    +0.000 A 
ATOM     21  C   UNL     1      47.178   4.190  15.301  0.00  0.00    +0.000 A 
ATOM     22  C   UNL     1      47.677   5.381  14.740  0.00  0.00    +0.000 A 
BRANCH  19  23
ATOM     23  C   UNL     1      48.675   4.295  18.808  0.00  0.00    +0.000 C 
ATOM     24  N   UNL     1      48.226   3.141  19.371  0.00  0.00    +0.000 N 
ATOM     25  O   UNL     1      49.379   5.057  19.466  0.00  0.00    +0.000 OA
ATOM     26  H   UNL     1      47.645   2.457  18.914  0.00  0.00    +0.000 HD
ATOM     27  H   UNL     1      48.504   2.964  20.327  0.00  0.00    +0.000 HD
ENDBRANCH  19  23
ENDBRANCH  15  22
ENDBRANCH   1  15
TORSDOF 5
ENDMDL
MODEL 9
REMARK VINA RESULT:    -6.761      5.212      6.710
REMARK INTER + INTRA:          -9.719
REMARK INTER:                  -9.108
REMARK INTRA:                  -0.611
REMARK UNBOUND:                -0.982
REMARK  Name = 
REMARK  6 active torsions:
REMARK  status: ('A' for Active; 'I' for Inactive)
REMARK    1  A    between atoms: C_1  and  C_2
REMARK    2  A    between atoms: C_4  and  C_5
REMARK    3  A    between atoms: C_10  and  O_11
REMARK    4  A    between atoms: O_11  and  C_12
REMARK    5  A    between atoms: C_12  and  C_13
REMARK    6  A    between atoms: C_17  and  C_18
REMARK                            x       y       z     vdW  Elec       q    Type
REMARK                         _______ _______ _______ _____ _____    ______ ____
ROOT
ATOM      1  C   UNL     1      47.600   3.958  16.570  0.00  0.00    +0.000 C 
ENDROOT
BRANCH   1   2
ATOM      2  C   UNL     1      47.527   4.759  15.292  0.00  0.00    +0.000 A 
ATOM      3  N   UNL     1      48.267   5.882  15.215  0.00  0.00    +0.000 NA
ATOM      4  C   UNL     1      48.133   6.610  14.099  0.00  0.00    +0.000 A 
ATOM      5  C   UNL     1      47.289   6.269  13.072  0.00  0.00    +0.000 A 
ATOM      6  C   UNL     1      46.547   5.114  13.237  0.00  0.00    +0.000 A 
ATOM      7  N   UNL     1      46.661   4.350  14.344  0.00  0.00    +0.000 NA
BRANCH   6   8
ATOM      8  C   UNL     1      45.592   4.632  12.222  0.00  0.00    +0.000 A 
ATOM      9  C   UNL     1      45.503   5.253  10.961  0.00  0.00    +0.000 A 
ATOM     10  C   UNL     1      44.578   4.828  10.001  0.00  0.00    +0.000 A 
ATOM     11  C   UNL     1      43.727   3.766  10.286  0.00  0.00    +0.000 A 
ATOM     12  C   UNL     1      43.818   3.131  11.516  0.00  0.00    +0.000 A 
ATOM     13  F   UNL     1      43.009   2.101  11.793  0.00  0.00    +0.000 F 
ATOM     14  C   UNL     1      44.735   3.548  12.473  0.00  0.00    +0.000 A 
ENDBRANCH   6   8
ENDBRANCH   1   2
BRANCH   1  15
ATOM     15  O   UNL     1      48.577   4.470  17.469  0.00  0.00    +0.000 OA
BRANCH  15  22
ATOM     16  C   UNL     1      51.369   5.722  18.344  0.00  0.00    +0.000 C 
ATOM     17  C   UNL     1      51.037   4.305  17.967  0.00  0.00    +0.000 A 
ATOM     18  C   UNL     1      52.123   3.402  18.012  0.00  0.00    +0.000 A 
ATOM     19  C   UNL     1      51.989   2.044  17.695  0.00  0.00    +0.000 A 
ATOM     20  C   UNL     1      50.735   1.569  17.322  0.00  0.00    +0.000 A 
ATOM     21  C   UNL     1      49.647   2.448  17.271  0.00  0.00    +0.000 A 
ATOM     22  C   UNL     1      49.775   3.814  17.589  0.00  0.00    +0.000 A 
BRANCH  19  23
ATOM     23  C   UNL     1      53.213   1.194  17.784  0.00  0.00    +0.000 C 
ATOM     24  N   UNL     1      53.079  -0.129  18.070  0.00  0.00    +0.000 N 
ATOM     25  O   UNL     1      54.333   1.666  17.606  0.00  0.00    +0.000 OA
ATOM     26  H   UNL     1      52.207  -0.606  18.232  0.00  0.00    +0.000 HD
ATOM     27  H   UNL     1      53.932  -0.671  18.122  0.00  0.00    +0.000 HD
ENDBRANCH  19  23
ENDBRANCH  15  22
ENDBRANCH   1  15
TORSDOF 5
ENDMDL
