MODEL 1
REMARK VINA RESULT:    -7.879      0.000      0.000
REMARK INTER + INTRA:         -10.645
REMARK INTER:                  -9.951
REMARK INTRA:                  -0.693
REMARK UNBOUND:                -0.693
REMARK  Name = 
REMARK  6 active torsions:
REMARK  status: ('A' for Active; 'I' for Inactive)
REMARK    1  A    between atoms: C_1  and  O_2
REMARK    2  A    between atoms: O_2  and  C_3
REMARK    3  A    between atoms: C_5  and  C_6
REMARK    4  A    between atoms: C_6  and  N_7
REMARK    5  A    between atoms: C_12  and  C_13
REMARK    6  A    between atoms: C_21  and  N_22
REMARK                            x       y       z     vdW  Elec       q    Type
REMARK                         _______ _______ _______ _____ _____    ______ ____
ROOT
ATOM      1  N   UNL     1      44.002   4.416  10.515  0.00  0.00    +0.000 N 
ATOM      2  C   UNL     1      43.446   3.346  11.173  0.00  0.00    +0.000 A 
ATOM      3  C   UNL     1      43.977   2.196  10.638  0.00  0.00    +0.000 A 
ATOM      4  C   UNL     1      44.874   2.574   9.603  0.00  0.00    +0.000 A 
ATOM      5  C   UNL     1      45.681   1.841   8.705  0.00  0.00    +0.000 A 
ATOM      6  C   UNL     1      46.469   2.520   7.763  0.00  0.00    +0.000 A 
ATOM      7  C   UNL     1      46.456   3.920   7.733  0.00  0.00    +0.000 A 
ATOM      8  C   UNL     1      45.669   4.667   8.618  0.00  0.00    +0.000 A 
ATOM      9  C   UNL     1      44.878   3.970   9.543  0.00  0.00    +0.000 A 
ENDROOT
BRANCH   6  10
ATOM     10  C   UNL     1      47.331   1.816   6.769  0.00  0.00    +0.000 C 
ATOM     11  N   UNL     1      48.355   2.503   6.179  0.00  0.00    +0.000 N 
ATOM     12  O   UNL     1      47.143   0.640   6.477  0.00  0.00    +0.000 OA
ATOM     13  H   UNL     1      48.590   3.466   6.350  0.00  0.00    +0.000 HD
ATOM     14  H   UNL     1      48.918   1.990   5.511  0.00  0.00    +0.000 HD
ENDBRANCH   6  10
BRANCH   1  15
ATOM     15  C   UNL     1      43.628   5.806  10.758  0.00  0.00    +0.000 C 
BRANCH  15  18
ATOM     16  C   UNL     1      46.431   6.910  13.154  0.00  0.00    +0.000 A 
ATOM     17  C   UNL     1      45.592   6.066  12.416  0.00  0.00    +0.000 A 
ATOM     18  C   UNL     1      44.610   6.601  11.578  0.00  0.00    +0.000 A 
ATOM     19  C   UNL     1      44.543   7.990  11.513  0.00  0.00    +0.000 A 
ATOM     20  N   UNL     1      45.355   8.835  12.186  0.00  0.00    +0.000 NA
ATOM     21  C   UNL     1      46.296   8.291  12.981  0.00  0.00    +0.000 A 
BRANCH  21  22
ATOM     22  N   UNL     1      47.129   9.223  13.597  0.00  0.00    +0.000 N 
ATOM     23  H   UNL     1      47.251   9.981  12.930  0.00  0.00    +0.000 HD
ATOM     24  H   UNL     1      48.017   8.790  13.834  0.00  0.00    +0.000 HD
ENDBRANCH  21  22
BRANCH  16  26
ATOM     25  C   UNL     1      47.037   4.920  14.266  0.00  0.00    +0.000 C 
ATOM     26  O   UNL     1      47.355   6.270  13.938  0.00  0.00    +0.000 OA
ENDBRANCH  16  26
ENDBRANCH  15  18
ENDBRANCH   1  15
TORSDOF 5
ENDMDL
MODEL 2
REMARK VINA RESULT:    -7.727      1.328      2.070
REMARK INTER + INTRA:         -10.453
REMARK INTER:                  -9.935
REMARK INTRA:                  -0.518
REMARK UNBOUND:                -0.693
REMARK  Name = 
REMARK  6 active torsions:
REMARK  status: ('A' for Active; 'I' for Inactive)
REMARK    1  A    between atoms: C_1  and  O_2
REMARK    2  A    between atoms: O_2  and  C_3
REMARK    3  A    between atoms: C_5  and  C_6
REMARK    4  A    between atoms: C_6  and  N_7
REMARK    5  A    between atoms: C_12  and  C_13
REMARK    6  A    between atoms: C_21  and  N_22
REMARK                            x       y       z     vdW  Elec       q    Type
REMARK                         _______ _______ _______ _____ _____    ______ ____
ROOT
ATOM      1  N   UNL     1      43.921   4.439  10.472  0.00  0.00    +0.000 N 
ATOM      2  C   UNL     1      43.421   3.378  11.187  0.00  0.00    +0.000 A 
ATOM      3  C   UNL     1      44.003   2.229  10.707  0.00  0.00    +0.000 A 
ATOM      4  C   UNL     1      44.874   2.596   9.646  0.00  0.00    +0.000 A 
ATOM      5  C   UNL     1      45.710   1.857   8.780  0.00  0.00    +0.000 A 
ATOM      6  C   UNL     1      46.459   2.524   7.798  0.00  0.00    +0.000 A 
ATOM      7  C   UNL     1      46.378   3.918   7.697  0.00  0.00    +0.000 A 
ATOM      8  C   UNL     1      45.562   4.671   8.550  0.00  0.00    +0.000 A 
ATOM      9  C   UNL     1      44.811   3.986   9.515  0.00  0.00    +0.000 A 
ENDROOT
BRANCH   6  10
ATOM     10  C   UNL     1      47.347   1.811   6.833  0.00  0.00    +0.000 C 
ATOM     11  N   UNL     1      48.387   2.494   6.265  0.00  0.00    +0.000 N 
ATOM     12  O   UNL     1      47.168   0.633   6.547  0.00  0.00    +0.000 OA
ATOM     13  H   UNL     1      48.616   3.459   6.434  0.00  0.00    +0.000 HD
ATOM     14  H   UNL     1      48.967   1.976   5.617  0.00  0.00    +0.000 HD
ENDBRANCH   6  10
BRANCH   1  15
ATOM     15  C   UNL     1      43.482   5.820  10.646  0.00  0.00    +0.000 C 
BRANCH  15  18
ATOM     16  C   UNL     1      45.463   8.759  12.146  0.00  0.00    +0.000 A 
ATOM     17  C   UNL     1      44.556   8.065  11.336  0.00  0.00    +0.000 A 
ATOM     18  C   UNL     1      44.398   6.684  11.472  0.00  0.00    +0.000 A 
ATOM     19  C   UNL     1      45.166   6.070  12.457  0.00  0.00    +0.000 A 
ATOM     20  N   UNL     1      46.027   6.710  13.278  0.00  0.00    +0.000 NA
ATOM     21  C   UNL     1      46.155   8.042  13.128  0.00  0.00    +0.000 A 
BRANCH  21  22
ATOM     22  N   UNL     1      47.017   8.639  14.044  0.00  0.00    +0.000 N 
ATOM     23  H   UNL     1      47.667   7.913  14.339  0.00  0.00    +0.000 HD
ATOM     24  H   UNL     1      46.487   9.005  14.830  0.00  0.00    +0.000 HD
ENDBRANCH  21  22
BRANCH  16  26
ATOM     25  C   UNL     1      44.298  10.719  11.538  0.00  0.00    +0.000 C 
ATOM     26  O   UNL     1      45.529  10.109  11.921  0.00  0.00    +0.000 OA
ENDBRANCH  16  26
ENDBRANCH  15  18
ENDBRANCH   1  15
TORSDOF 5
ENDMDL
MODEL 3
REMARK VINA RESULT:    -7.437      1.471      6.584
REMARK INTER + INTRA:         -10.086
REMARK INTER:                  -9.377
REMARK INTRA:                  -0.710
REMARK UNBOUND:                -0.693
REMARK  Name = 
REMARK  6 active torsions:
REMARK  status: ('A' for Active; 'I' for Inactive)
REMARK    1  A    between atoms: C_1  and  O_2
REMARK    2  A    between atoms: O_2  and  C_3
REMARK    3  A    between atoms: C_5  and  C_6
REMARK    4  A    between atoms: C_6  and  N_7
REMARK    5  A    between atoms: C_12  and  C_13
REMARK    6  A    between atoms: C_21  and  N_22
REMARK                            x       y       z     vdW  Elec       q    Type
REMARK                         _______ _______ _______ _____ _____    ______ ____
ROOT
ATOM      1  N   UNL     1      44.325   4.007  10.669  0.00  0.00    +0.000 N 
ATOM      2  C   UNL     1      43.733   3.158  11.572  0.00  0.00    +0.000 A 
ATOM      3  C   UNL     1      44.225   3.456  12.821  0.00  0.00    +0.000 A 
ATOM      4  C   UNL     1      45.166   4.511  12.675  0.00  0.00    +0.000 A 
ATOM      5  C   UNL     1      45.989   5.208  13.588  0.00  0.00    +0.000 A 
ATOM      6  C   UNL     1      46.845   6.218  13.123  0.00  0.00    +0.000 A 
ATOM      7  C   UNL     1      46.863   6.532  11.759  0.00  0.00    +0.000 A 
ATOM      8  C   UNL     1      46.052   5.860  10.838  0.00  0.00    +0.000 A 
ATOM      9  C   UNL     1      45.213   4.844  11.319  0.00  0.00    +0.000 A 
ENDROOT
BRANCH   6  10
ATOM     10  C   UNL     1      47.758   6.984  14.022  0.00  0.00    +0.000 C 
ATOM     11  N   UNL     1      47.446   8.278  14.332  0.00  0.00    +0.000 N 
ATOM     12  O   UNL     1      48.772   6.476  14.488  0.00  0.00    +0.000 OA
ATOM     13  H   UNL     1      46.641   8.783  14.002  0.00  0.00    +0.000 HD
ATOM     14  H   UNL     1      48.089   8.764  14.946  0.00  0.00    +0.000 HD
ENDBRANCH   6  10
BRANCH   1  15
ATOM     15  C   UNL     1      44.108   3.945   9.227  0.00  0.00    +0.000 C 
BRANCH  15  18
ATOM     16  C   UNL     1      46.789   1.595   7.778  0.00  0.00    +0.000 A 
ATOM     17  C   UNL     1      45.709   2.033   8.554  0.00  0.00    +0.000 A 
ATOM     18  C   UNL     1      45.237   3.343   8.434  0.00  0.00    +0.000 A 
ATOM     19  C   UNL     1      45.883   4.148   7.500  0.00  0.00    +0.000 A 
ATOM     20  N   UNL     1      46.907   3.751   6.712  0.00  0.00    +0.000 NA
ATOM     21  C   UNL     1      47.337   2.481   6.846  0.00  0.00    +0.000 A 
BRANCH  21  22
ATOM     22  N   UNL     1      48.356   2.129   5.963  0.00  0.00    +0.000 N 
ATOM     23  H   UNL     1      48.268   1.127   5.811  0.00  0.00    +0.000 HD
ATOM     24  H   UNL     1      49.258   2.366   6.366  0.00  0.00    +0.000 HD
ENDBRANCH  21  22
BRANCH  16  26
ATOM     25  C   UNL     1      46.399  -0.674   7.260  0.00  0.00    +0.000 C 
ATOM     26  O   UNL     1      47.160   0.291   7.982  0.00  0.00    +0.000 OA
ENDBRANCH  16  26
ENDBRANCH  15  18
ENDBRANCH   1  15
TORSDOF 5
ENDMDL
MODEL 4
REMARK VINA RESULT:    -6.378      4.414      6.757
REMARK INTER + INTRA:          -8.748
REMARK INTER:                  -8.131
REMARK INTRA:                  -0.617
REMARK UNBOUND:                -0.693
REMARK  Name = 
REMARK  6 active torsions:
REMARK  status: ('A' for Active; 'I' for Inactive)
REMARK    1  A    between atoms: C_1  and  O_2
REMARK    2  A    between atoms: O_2  and  C_3
REMARK    3  A    between atoms: C_5  and  C_6
REMARK    4  A    between atoms: C_6  and  N_7
REMARK    5  A    between atoms: C_12  and  C_13
REMARK    6  A    between atoms: C_21  and  N_22
REMARK                            x       y       z     vdW  Elec       q    Type
REMARK                         _______ _______ _______ _____ _____    ______ ____
ROOT
ATOM      1  N   UNL     1      47.549   5.532  15.138  0.00  0.00    +0.000 N 
ATOM      2  C   UNL     1      48.473   6.531  14.949  0.00  0.00    +0.000 A 
ATOM      3  C   UNL     1      48.356   6.980  13.655  0.00  0.00    +0.000 A 
ATOM      4  C   UNL     1      47.338   6.216  13.023  0.00  0.00    +0.000 A 
ATOM      5  C   UNL     1      46.800   6.212  11.716  0.00  0.00    +0.000 A 
ATOM      6  C   UNL     1      45.783   5.304  11.384  0.00  0.00    +0.000 A 
ATOM      7  C   UNL     1      45.305   4.419  12.358  0.00  0.00    +0.000 A 
ATOM      8  C   UNL     1      45.818   4.409  13.661  0.00  0.00    +0.000 A 
ATOM      9  C   UNL     1      46.843   5.315  13.969  0.00  0.00    +0.000 A 
ENDROOT
BRANCH   6  10
ATOM     10  C   UNL     1      45.180   5.226  10.022  0.00  0.00    +0.000 C 
ATOM     11  N   UNL     1      43.839   4.984   9.906  0.00  0.00    +0.000 N 
ATOM     12  O   UNL     1      45.857   5.378   9.011  0.00  0.00    +0.000 OA
ATOM     13  H   UNL     1      43.201   4.845  10.672  0.00  0.00    +0.000 HD
ATOM     14  H   UNL     1      43.467   4.939   8.966  0.00  0.00    +0.000 HD
ENDBRANCH   6  10
BRANCH   1  15
ATOM     15  C   UNL     1      47.423   4.760  16.370  0.00  0.00    +0.000 C 
BRANCH  15  18
ATOM     16  C   UNL     1      50.707   3.215  17.649  0.00  0.00    +0.000 A 
ATOM     17  C   UNL     1      49.680   4.149  17.466  0.00  0.00    +0.000 A 
ATOM     18  C   UNL     1      48.575   3.838  16.670  0.00  0.00    +0.000 A 
ATOM     19  C   UNL     1      48.557   2.564  16.109  0.00  0.00    +0.000 A 
ATOM     20  N   UNL     1      49.513   1.626  16.289  0.00  0.00    +0.000 NA
ATOM     21  C   UNL     1      50.564   1.952  17.066  0.00  0.00    +0.000 A 
BRANCH  21  22
ATOM     22  N   UNL     1      51.479   0.917  17.249  0.00  0.00    +0.000 N 
ATOM     23  H   UNL     1      51.029   0.073  16.901  0.00  0.00    +0.000 HD
ATOM     24  H   UNL     1      51.714   0.834  18.234  0.00  0.00    +0.000 HD
ENDBRANCH  21  22
BRANCH  16  26
ATOM     25  C   UNL     1      52.717   4.439  17.804  0.00  0.00    +0.000 C 
ATOM     26  O   UNL     1      51.737   3.632  18.452  0.00  0.00    +0.000 OA
ENDBRANCH  16  26
ENDBRANCH  15  18
ENDBRANCH   1  15
TORSDOF 5
ENDMDL
MODEL 5
REMARK VINA RESULT:    -6.171      1.897      6.819
REMARK INTER + INTRA:          -8.488
REMARK INTER:                  -8.375
REMARK INTRA:                  -0.113
REMARK UNBOUND:                -0.693
REMARK  Name = 
REMARK  6 active torsions:
REMARK  status: ('A' for Active; 'I' for Inactive)
REMARK    1  A    between atoms: C_1  and  O_2
REMARK    2  A    between atoms: O_2  and  C_3
REMARK    3  A    between atoms: C_5  and  C_6
REMARK    4  A    between atoms: C_6  and  N_7
REMARK    5  A    between atoms: C_12  and  C_13
REMARK    6  A    between atoms: C_21  and  N_22
REMARK                            x       y       z     vdW  Elec       q    Type
REMARK                         _______ _______ _______ _____ _____    ______ ____
ROOT
ATOM      1  N   UNL     1      44.627   6.810  11.600  0.00  0.00    +0.000 N 
ATOM      2  C   UNL     1      44.475   8.150  11.341  0.00  0.00    +0.000 A 
ATOM      3  C   UNL     1      45.472   8.827  12.003  0.00  0.00    +0.000 A 
ATOM      4  C   UNL     1      46.250   7.870  12.709  0.00  0.00    +0.000 A 
ATOM      5  C   UNL     1      47.372   7.972  13.561  0.00  0.00    +0.000 A 
ATOM      6  C   UNL     1      47.921   6.813  14.131  0.00  0.00    +0.000 A 
ATOM      7  C   UNL     1      47.356   5.566  13.838  0.00  0.00    +0.000 A 
ATOM      8  C   UNL     1      46.248   5.440  12.991  0.00  0.00    +0.000 A 
ATOM      9  C   UNL     1      45.706   6.610  12.442  0.00  0.00    +0.000 A 
ENDROOT
BRANCH   6  10
ATOM     10  C   UNL     1      49.092   6.842  15.056  0.00  0.00    +0.000 C 
ATOM     11  N   UNL     1      49.957   7.899  14.994  0.00  0.00    +0.000 N 
ATOM     12  O   UNL     1      49.289   5.945  15.868  0.00  0.00    +0.000 OA
ATOM     13  H   UNL     1      49.882   8.681  14.365  0.00  0.00    +0.000 HD
ATOM     14  H   UNL     1      50.737   7.884  15.638  0.00  0.00    +0.000 HD
ENDBRANCH   6  10
BRANCH   1  15
ATOM     15  C   UNL     1      43.709   5.779  11.127  0.00  0.00    +0.000 C 
BRANCH  15  18
ATOM     16  C   UNL     1      45.740   3.800   8.524  0.00  0.00    +0.000 A 
ATOM     17  C   UNL     1      45.244   4.891   9.249  0.00  0.00    +0.000 A 
ATOM     18  C   UNL     1      44.337   4.694  10.294  0.00  0.00    +0.000 A 
ATOM     19  C   UNL     1      43.992   3.374  10.569  0.00  0.00    +0.000 A 
ATOM     20  N   UNL     1      44.473   2.295   9.913  0.00  0.00    +0.000 NA
ATOM     21  C   UNL     1      45.350   2.515   8.915  0.00  0.00    +0.000 A 
BRANCH  21  22
ATOM     22  N   UNL     1      45.843   1.354   8.323  0.00  0.00    +0.000 N 
ATOM     23  H   UNL     1      46.649   1.637   7.769  0.00  0.00    +0.000 HD
ATOM     24  H   UNL     1      45.125   0.930   7.744  0.00  0.00    +0.000 HD
ENDBRANCH  21  22
BRANCH  16  26
ATOM     25  C   UNL     1      46.441   3.401   6.308  0.00  0.00    +0.000 C 
ATOM     26  O   UNL     1      46.622   4.119   7.526  0.00  0.00    +0.000 OA
ENDBRANCH  16  26
ENDBRANCH  15  18
ENDBRANCH   1  15
TORSDOF 5
ENDMDL
MODEL 6
REMARK VINA RESULT:    -5.855      2.661      6.696
REMARK INTER + INTRA:          -8.088
REMARK INTER:                  -7.687
REMARK INTRA:                  -0.402
REMARK UNBOUND:                -0.693
REMARK  Name = 
REMARK  6 active torsions:
REMARK  status: ('A' for Active; 'I' for Inactive)
REMARK    1  A    between atoms: C_1  and  O_2
REMARK    2  A    between atoms: O_2  and  C_3
REMARK    3  A    between atoms: C_5  and  C_6
REMARK    4  A    between atoms: C_6  and  N_7
REMARK    5  A    between atoms: C_12  and  C_13
REMARK    6  A    between atoms: C_21  and  N_22
REMARK                            x       y       z     vdW  Elec       q    Type
REMARK                         _______ _______ _______ _____ _____    ______ ____
ROOT
ATOM      1  N   UNL     1      45.471   7.334  12.333  0.00  0.00    +0.000 N 
ATOM      2  C   UNL     1      44.900   8.538  12.000  0.00  0.00    +0.000 A 
ATOM      3  C   UNL     1      45.912   9.446  11.793  0.00  0.00    +0.000 A 
ATOM      4  C   UNL     1      47.145   8.780  12.027  0.00  0.00    +0.000 A 
ATOM      5  C   UNL     1      48.494   9.198  11.987  0.00  0.00    +0.000 A 
ATOM      6  C   UNL     1      49.515   8.284  12.290  0.00  0.00    +0.000 A 
ATOM      7  C   UNL     1      49.185   6.963  12.616  0.00  0.00    +0.000 A 
ATOM      8  C   UNL     1      47.855   6.526  12.655  0.00  0.00    +0.000 A 
ATOM      9  C   UNL     1      46.848   7.457  12.363  0.00  0.00    +0.000 A 
ENDROOT
BRANCH   6  10
ATOM     10  C   UNL     1      50.961   8.655  12.290  0.00  0.00    +0.000 C 
ATOM     11  N   UNL     1      51.798   8.051  13.186  0.00  0.00    +0.000 N 
ATOM     12  O   UNL     1      51.410   9.482  11.504  0.00  0.00    +0.000 OA
ATOM     13  H   UNL     1      51.527   7.363  13.869  0.00  0.00    +0.000 HD
ATOM     14  H   UNL     1      52.771   8.327  13.154  0.00  0.00    +0.000 HD
ENDBRANCH   6  10
BRANCH   1  15
ATOM     15  C   UNL     1      44.710   6.144  12.699  0.00  0.00    +0.000 C 
BRANCH  15  18
ATOM     16  C   UNL     1      44.894   4.139   9.418  0.00  0.00    +0.000 A 
ATOM     17  C   UNL     1      44.994   5.220  10.304  0.00  0.00    +0.000 A 
ATOM     18  C   UNL     1      44.674   5.060  11.654  0.00  0.00    +0.000 A 
ATOM     19  C   UNL     1      44.285   3.783  12.049  0.00  0.00    +0.000 A 
ATOM     20  N   UNL     1      44.206   2.710  11.231  0.00  0.00    +0.000 NA
ATOM     21  C   UNL     1      44.526   2.893   9.936  0.00  0.00    +0.000 A 
BRANCH  21  22
ATOM     22  N   UNL     1      44.475   1.732   9.167  0.00  0.00    +0.000 N 
ATOM     23  H   UNL     1      43.521   1.659   8.823  0.00  0.00    +0.000 HD
ATOM     24  H   UNL     1      44.727   0.929   9.737  0.00  0.00    +0.000 HD
ENDBRANCH  21  22
BRANCH  16  26
ATOM     25  C   UNL     1      46.366   3.703   7.627  0.00  0.00    +0.000 C 
ATOM     26  O   UNL     1      45.235   4.417   8.121  0.00  0.00    +0.000 OA
ENDBRANCH  16  26
ENDBRANCH  15  18
ENDBRANCH   1  15
TORSDOF 5
ENDMDL
MODEL 7
REMARK VINA RESULT:    -5.823      2.731      6.732
REMARK INTER + INTRA:          -8.048
REMARK INTER:                  -7.508
REMARK INTRA:                  -0.540
REMARK UNBOUND:                -0.693
REMARK  Name = 
REMARK  6 active torsions:
REMARK  status: ('A' for Active; 'I' for Inactive)
REMARK    1  A    between atoms: C_1  and  O_2
REMARK    2  A    between atoms: O_2  and  C_3
REMARK    3  A    between atoms: C_5  and  C_6
REMARK    4  A    between atoms: C_6  and  N_7
REMARK    5  A    between atoms: C_12  and  C_13
REMARK    6  A    between atoms: C_21  and  N_22
REMARK                            x       y       z     vdW  Elec       q    Type
REMARK                         _______ _______ _______ _____ _____    ______ ____
ROOT
ATOM      1  N   UNL     1      46.051   6.057  12.778  0.00  0.00    +0.000 N 
ATOM      2  C   UNL     1      46.165   5.260  13.892  0.00  0.00    +0.000 A 
ATOM      3  C   UNL     1      47.400   5.487  14.452  0.00  0.00    +0.000 A 
ATOM      4  C   UNL     1      48.074   6.439  13.642  0.00  0.00    +0.000 A 
ATOM      5  C   UNL     1      49.355   7.032  13.707  0.00  0.00    +0.000 A 
ATOM      6  C   UNL     1      49.747   7.954  12.724  0.00  0.00    +0.000 A 
ATOM      7  C   UNL     1      48.856   8.286  11.695  0.00  0.00    +0.000 A 
ATOM      8  C   UNL     1      47.580   7.716  11.615  0.00  0.00    +0.000 A 
ATOM      9  C   UNL     1      47.212   6.786  12.598  0.00  0.00    +0.000 A 
ENDROOT
BRANCH   6  10
ATOM     10  C   UNL     1      51.089   8.607  12.714  0.00  0.00    +0.000 C 
ATOM     11  N   UNL     1      52.072   8.107  13.521  0.00  0.00    +0.000 N 
ATOM     12  O   UNL     1      51.327   9.572  11.996  0.00  0.00    +0.000 OA
ATOM     13  H   UNL     1      51.977   7.322  14.144  0.00  0.00    +0.000 HD
ATOM     14  H   UNL     1      52.969   8.575  13.485  0.00  0.00    +0.000 HD
ENDBRANCH   6  10
BRANCH   1  15
ATOM     15  C   UNL     1      44.904   6.039  11.876  0.00  0.00    +0.000 C 
BRANCH  15  18
ATOM     16  C   UNL     1      45.177   3.815   8.746  0.00  0.00    +0.000 A 
ATOM     17  C   UNL     1      45.283   4.945   9.567  0.00  0.00    +0.000 A 
ATOM     18  C   UNL     1      44.872   4.892  10.901  0.00  0.00    +0.000 A 
ATOM     19  C   UNL     1      44.388   3.666  11.349  0.00  0.00    +0.000 A 
ATOM     20  N   UNL     1      44.301   2.547  10.596  0.00  0.00    +0.000 NA
ATOM     21  C   UNL     1      44.710   2.627   9.316  0.00  0.00    +0.000 A 
BRANCH  21  22
ATOM     22  N   UNL     1      44.642   1.421   8.620  0.00  0.00    +0.000 N 
ATOM     23  H   UNL     1      44.524   1.664   7.639  0.00  0.00    +0.000 HD
ATOM     24  H   UNL     1      43.861   0.869   8.962  0.00  0.00    +0.000 HD
ENDBRANCH  21  22
BRANCH  16  26
ATOM     25  C   UNL     1      46.949   3.559   7.210  0.00  0.00    +0.000 C 
ATOM     26  O   UNL     1      45.613   3.989   7.459  0.00  0.00    +0.000 OA
ENDBRANCH  16  26
ENDBRANCH  15  18
ENDBRANCH   1  15
TORSDOF 5
ENDMDL
MODEL 8
REMARK VINA RESULT:    -5.792      3.713      5.995
REMARK INTER + INTRA:          -8.009
REMARK INTER:                  -7.377
REMARK INTRA:                  -0.632
REMARK UNBOUND:                -0.693
REMARK  Name = 
REMARK  6 active torsions:
REMARK  status: ('A' for Active; 'I' for Inactive)
REMARK    1  A    between atoms: C_1  and  O_2
REMARK    2  A    between atoms: O_2  and  C_3
REMARK    3  A    between atoms: C_5  and  C_6
REMARK    4  A    between atoms: C_6  and  N_7
REMARK    5  A    between atoms: C_12  and  C_13
REMARK    6  A    between atoms: C_21  and  N_22
REMARK                            x       y       z     vdW  Elec       q    Type
REMARK                         _______ _______ _______ _____ _____    ______ ____
ROOT
ATOM      1  N   UNL     1      47.602   7.137  13.774  0.00  0.00    +0.000 N 
ATOM      2  C   UNL     1      47.066   8.331  13.356  0.00  0.00    +0.000 A 
ATOM      3  C   UNL     1      45.879   8.062  12.715  0.00  0.00    +0.000 A 
ATOM      4  C   UNL     1      45.692   6.654  12.724  0.00  0.00    +0.000 A 
ATOM      5  C   UNL     1      44.684   5.808  12.209  0.00  0.00    +0.000 A 
ATOM      6  C   UNL     1      44.792   4.418  12.370  0.00  0.00    +0.000 A 
ATOM      7  C   UNL     1      45.894   3.886  13.053  0.00  0.00    +0.000 A 
ATOM      8  C   UNL     1      46.900   4.706  13.577  0.00  0.00    +0.000 A 
ATOM      9  C   UNL     1      46.781   6.091  13.394  0.00  0.00    +0.000 A 
ENDROOT
BRANCH   6  10
ATOM     10  C   UNL     1      43.780   3.459  11.837  0.00  0.00    +0.000 C 
ATOM     11  N   UNL     1      43.705   2.208  12.383  0.00  0.00    +0.000 N 
ATOM     12  O   UNL     1      43.018   3.771  10.929  0.00  0.00    +0.000 OA
ATOM     13  H   UNL     1      44.284   1.857  13.127  0.00  0.00    +0.000 HD
ATOM     14  H   UNL     1      43.006   1.587  11.995  0.00  0.00    +0.000 HD
ENDBRANCH   6  10
BRANCH   1  15
ATOM     15  C   UNL     1      48.899   7.011  14.430  0.00  0.00    +0.000 C 
BRANCH  15  18
ATOM     16  C   UNL     1      48.553   5.376  17.897  0.00  0.00    +0.000 A 
ATOM     17  C   UNL     1      48.608   5.498  16.503  0.00  0.00    +0.000 A 
ATOM     18  C   UNL     1      48.846   6.741  15.910  0.00  0.00    +0.000 A 
ATOM     19  C   UNL     1      49.043   7.811  16.778  0.00  0.00    +0.000 A 
ATOM     20  N   UNL     1      49.028   7.726  18.127  0.00  0.00    +0.000 NA
ATOM     21  C   UNL     1      48.802   6.514  18.670  0.00  0.00    +0.000 A 
BRANCH  21  22
ATOM     22  N   UNL     1      48.857   6.495  20.063  0.00  0.00    +0.000 N 
ATOM     23  H   UNL     1      48.877   7.468  20.361  0.00  0.00    +0.000 HD
ATOM     24  H   UNL     1      49.686   5.995  20.369  0.00  0.00    +0.000 HD
ENDBRANCH  21  22
BRANCH  16  26
ATOM     25  C   UNL     1      47.508   3.297  17.511  0.00  0.00    +0.000 C 
ATOM     26  O   UNL     1      48.314   4.109  18.361  0.00  0.00    +0.000 OA
ENDBRANCH  16  26
ENDBRANCH  15  18
ENDBRANCH   1  15
TORSDOF 5
ENDMDL
MODEL 9
REMARK VINA RESULT:    -5.674      3.936      8.102
REMARK INTER + INTRA:          -7.860
REMARK INTER:                  -7.135
REMARK INTRA:                  -0.724
REMARK UNBOUND:                -0.693
REMARK  Name = 
REMARK  6 active torsions:
REMARK  status: ('A' for Active; 'I' for Inactive)
REMARK    1  A    between atoms: C_1  and  O_2
REMARK    2  A    between atoms: O_2  and  C_3
REMARK    3  A    between atoms: C_5  and  C_6
REMARK    4  A    between atoms: C_6  and  N_7
REMARK    5  A    between atoms: C_12  and  C_13
REMARK    6  A    between atoms: C_21  and  N_22
REMARK                            x       y       z     vdW  Elec       q    Type
REMARK                         _______ _______ _______ _____ _____    ______ ____
ROOT
ATOM      1  N   UNL     1      48.426   6.695  14.290  0.00  0.00    +0.000 N 
ATOM      2  C   UNL     1      48.823   8.005  14.400  0.00  0.00    +0.000 A 
ATOM      3  C   UNL     1      48.959   8.297  15.737  0.00  0.00    +0.000 A 
ATOM      4  C   UNL     1      48.613   7.131  16.472  0.00  0.00    +0.000 A 
ATOM      5  C   UNL     1      48.547   6.841  17.853  0.00  0.00    +0.000 A 
ATOM      6  C   UNL     1      48.147   5.564  18.278  0.00  0.00    +0.000 A 
ATOM      7  C   UNL     1      47.830   4.588  17.325  0.00  0.00    +0.000 A 
ATOM      8  C   UNL     1      47.896   4.851  15.952  0.00  0.00    +0.000 A 
ATOM      9  C   UNL     1      48.284   6.136  15.547  0.00  0.00    +0.000 A 
ENDROOT
BRANCH   6  10
ATOM     10  C   UNL     1      48.033   5.188  19.718  0.00  0.00    +0.000 C 
ATOM     11  N   UNL     1      48.553   3.994  20.132  0.00  0.00    +0.000 N 
ATOM     12  O   UNL     1      47.490   5.927  20.531  0.00  0.00    +0.000 OA
ATOM     13  H   UNL     1      49.016   3.321  19.543  0.00  0.00    +0.000 HD
ATOM     14  H   UNL     1      48.457   3.775  21.115  0.00  0.00    +0.000 HD
ENDBRANCH   6  10
BRANCH   1  15
ATOM     15  C   UNL     1      48.108   6.043  13.024  0.00  0.00    +0.000 C 
BRANCH  15  18
ATOM     16  C   UNL     1      44.364   5.300  12.531  0.00  0.00    +0.000 A 
ATOM     17  C   UNL     1      45.679   5.164  12.991  0.00  0.00    +0.000 A 
ATOM     18  C   UNL     1      46.657   6.092  12.624  0.00  0.00    +0.000 A 
ATOM     19  C   UNL     1      46.237   7.142  11.812  0.00  0.00    +0.000 A 
ATOM     20  N   UNL     1      44.971   7.324  11.375  0.00  0.00    +0.000 NA
ATOM     21  C   UNL     1      44.049   6.416  11.750  0.00  0.00    +0.000 A 
BRANCH  21  22
ATOM     22  N   UNL     1      42.758   6.700  11.307  0.00  0.00    +0.000 N 
ATOM     23  H   UNL     1      42.139   6.070  11.811  0.00  0.00    +0.000 HD
ATOM     24  H   UNL     1      42.698   6.555  10.303  0.00  0.00    +0.000 HD
ENDBRANCH  21  22
BRANCH  16  26
ATOM     25  C   UNL     1      43.409   3.182  12.118  0.00  0.00    +0.000 C 
ATOM     26  O   UNL     1      43.495   4.330  12.959  0.00  0.00    +0.000 OA
ENDBRANCH  16  26
ENDBRANCH  15  18
ENDBRANCH   1  15
TORSDOF 5
ENDMDL
