MODEL 1
REMARK VINA RESULT:    -7.693      0.000      0.000
REMARK INTER + INTRA:         -10.639
REMARK INTER:                  -9.941
REMARK INTRA:                  -0.698
REMARK UNBOUND:                -0.698
REMARK  Name = 
REMARK  6 active torsions:
REMARK  status: ('A' for Active; 'I' for Inactive)
REMARK    1  A    between atoms: C_1  and  C_2
REMARK    2  A    between atoms: C_4  and  C_5
REMARK    3  A    between atoms: C_10  and  N_11
REMARK    4  A    between atoms: N_11  and  C_12
REMARK    5  A    between atoms: C_12  and  C_13
REMARK    6  A    between atoms: C_17  and  C_18
REMARK                            x       y       z     vdW  Elec       q    Type
REMARK                         _______ _______ _______ _____ _____    ______ ____
ROOT
ATOM      1  N   UNL     1      44.511   5.024  10.312  0.00  0.00    +0.000 N 
ATOM      2  H   UNL     1      43.718   5.583  10.007  0.00  0.00    +0.000 HD
ENDROOT
BRANCH   1   9
ATOM      3  C   UNL     1      44.134   2.131  10.003  0.00  0.00    +0.000 C 
ATOM      4  C   UNL     1      45.065   2.946   9.147  0.00  0.00    +0.000 A 
ATOM      5  C   UNL     1      45.854   2.261   8.207  0.00  0.00    +0.000 A 
ATOM      6  C   UNL     1      46.713   2.982   7.389  0.00  0.00    +0.000 A 
ATOM      7  N   UNL     1      46.834   4.333   7.436  0.00  0.00    +0.000 NA
ATOM      8  C   UNL     1      46.065   4.964   8.371  0.00  0.00    +0.000 A 
ATOM      9  C   UNL     1      45.170   4.347   9.259  0.00  0.00    +0.000 A 
BRANCH   6  10
ATOM     10  C   UNL     1      47.574   2.226   6.420  0.00  0.00    +0.000 C 
ATOM     11  N   UNL     1      47.977   2.907   5.306  0.00  0.00    +0.000 N 
ATOM     12  O   UNL     1      47.906   1.061   6.608  0.00  0.00    +0.000 OA
ATOM     13  H   UNL     1      47.705   3.871   5.170  0.00  0.00    +0.000 HD
ATOM     14  H   UNL     1      48.566   2.433   4.636  0.00  0.00    +0.000 HD
ENDBRANCH   6  10
ENDBRANCH   1   9
BRANCH   1  15
ATOM     15  C   UNL     1      45.056   5.314  11.651  0.00  0.00    +0.000 C 
ATOM     16  C   UNL     1      45.485   4.186  12.573  0.00  0.00    +0.000 C 
ATOM     17  C   UNL     1      44.211   4.902  12.858  0.00  0.00    +0.000 C 
BRANCH  15  18
ATOM     18  C   UNL     1      45.701   6.696  11.780  0.00  0.00    +0.000 A 
ATOM     19  C   UNL     1      47.083   6.850  11.969  0.00  0.00    +0.000 A 
ATOM     20  C   UNL     1      47.666   8.111  12.137  0.00  0.00    +0.000 A 
ATOM     21  C   UNL     1      46.874   9.257  12.108  0.00  0.00    +0.000 A 
ATOM     22  C   UNL     1      45.498   9.144  11.913  0.00  0.00    +0.000 A 
ATOM     23  C   UNL     1      44.922   7.875  11.750  0.00  0.00    +0.000 A 
BRANCH  22  24
ATOM     24  C   UNL     1      44.676  10.319  11.889  0.00  0.00    +0.000 C 
ATOM     25  N   UNL     1      44.008  11.269  11.872  0.00  0.00    +0.000 NA
ENDBRANCH  22  24
ENDBRANCH  15  18
ENDBRANCH   1  15
TORSDOF 5
ENDMDL
MODEL 2
REMARK VINA RESULT:    -7.692      2.117      3.292
REMARK INTER + INTRA:         -10.639
REMARK INTER:                 -10.529
REMARK INTRA:                  -0.110
REMARK UNBOUND:                -0.698
REMARK  Name = 
REMARK  6 active torsions:
REMARK  status: ('A' for Active; 'I' for Inactive)
REMARK    1  A    between atoms: C_1  and  C_2
REMARK    2  A    between atoms: C_4  and  C_5
REMARK    3  A    between atoms: C_10  and  N_11
REMARK    4  A    between atoms: N_11  and  C_12
REMARK    5  A    between atoms: C_12  and  C_13
REMARK    6  A    between atoms: C_17  and  C_18
REMARK                            x       y       z     vdW  Elec       q    Type
REMARK                         _______ _______ _______ _____ _____    ______ ____
ROOT
ATOM      1  N   UNL     1      43.832   5.095   9.763  0.00  0.00    +0.000 N 
ATOM      2  H   UNL     1      43.572   5.863   9.149  0.00  0.00    +0.000 HD
ENDROOT
BRANCH   1   9
ATOM      3  C   UNL     1      43.614   2.342  10.751  0.00  0.00    +0.000 C 
ATOM      4  C   UNL     1      44.525   2.753   9.627  0.00  0.00    +0.000 A 
ATOM      5  C   UNL     1      45.374   1.774   9.085  0.00  0.00    +0.000 A 
ATOM      6  C   UNL     1      46.217   2.114   8.035  0.00  0.00    +0.000 A 
ATOM      7  N   UNL     1      46.267   3.353   7.486  0.00  0.00    +0.000 NA
ATOM      8  C   UNL     1      45.440   4.284   8.048  0.00  0.00    +0.000 A 
ATOM      9  C   UNL     1      44.554   4.066   9.114  0.00  0.00    +0.000 A 
BRANCH   6  10
ATOM     10  C   UNL     1      47.142   1.062   7.497  0.00  0.00    +0.000 C 
ATOM     11  N   UNL     1      46.769  -0.237   7.700  0.00  0.00    +0.000 N 
ATOM     12  O   UNL     1      48.178   1.340   6.903  0.00  0.00    +0.000 OA
ATOM     13  H   UNL     1      45.906  -0.452   8.181  0.00  0.00    +0.000 HD
ATOM     14  H   UNL     1      47.362  -0.973   7.342  0.00  0.00    +0.000 HD
ENDBRANCH   6  10
ENDBRANCH   1   9
BRANCH   1  15
ATOM     15  C   UNL     1      43.775   5.352  11.214  0.00  0.00    +0.000 C 
ATOM     16  C   UNL     1      42.601   4.857  12.042  0.00  0.00    +0.000 C 
ATOM     17  C   UNL     1      42.690   6.308  11.715  0.00  0.00    +0.000 C 
BRANCH  15  18
ATOM     18  C   UNL     1      45.143   5.555  11.870  0.00  0.00    +0.000 A 
ATOM     19  C   UNL     1      46.043   6.529  11.410  0.00  0.00    +0.000 A 
ATOM     20  C   UNL     1      47.313   6.681  11.976  0.00  0.00    +0.000 A 
ATOM     21  C   UNL     1      47.711   5.862  13.031  0.00  0.00    +0.000 A 
ATOM     22  C   UNL     1      46.840   4.889  13.520  0.00  0.00    +0.000 A 
ATOM     23  C   UNL     1      45.570   4.742  12.943  0.00  0.00    +0.000 A 
BRANCH  22  24
ATOM     24  C   UNL     1      47.246   4.039  14.602  0.00  0.00    +0.000 C 
ATOM     25  N   UNL     1      47.579   3.348  15.474  0.00  0.00    +0.000 NA
ENDBRANCH  22  24
ENDBRANCH  15  18
ENDBRANCH   1  15
TORSDOF 5
ENDMDL
MODEL 3
REMARK VINA RESULT:    -7.453      1.460      2.166
REMARK INTER + INTRA:         -10.329
REMARK INTER:                  -9.702
REMARK INTRA:                  -0.627
REMARK UNBOUND:                -0.698
REMARK  Name = 
REMARK  6 active torsions:
REMARK  status: ('A' for Active; 'I' for Inactive)
REMARK    1  A    between atoms: C_1  and  C_2
REMARK    2  A    between atoms: C_4  and  C_5
REMARK    3  A    between atoms: C_10  and  N_11
REMARK    4  A    between atoms: N_11  and  C_12
REMARK    5  A    between atoms: C_12  and  C_13
REMARK    6  A    between atoms: C_17  and  C_18
REMARK                            x       y       z     vdW  Elec       q    Type
REMARK                         _______ _______ _______ _____ _____    ______ ____
ROOT
ATOM      1  N   UNL     1      44.426   5.025  10.289  0.00  0.00    +0.000 N 
ATOM      2  H   UNL     1      43.663   5.612   9.961  0.00  0.00    +0.000 HD
ENDROOT
BRANCH   1   9
ATOM      3  C   UNL     1      44.103   2.132   9.926  0.00  0.00    +0.000 C 
ATOM      4  C   UNL     1      45.050   2.972   9.113  0.00  0.00    +0.000 A 
ATOM      5  C   UNL     1      45.880   2.313   8.191  0.00  0.00    +0.000 A 
ATOM      6  C   UNL     1      46.755   3.058   7.412  0.00  0.00    +0.000 A 
ATOM      7  N   UNL     1      46.854   4.410   7.482  0.00  0.00    +0.000 NA
ATOM      8  C   UNL     1      46.044   5.016   8.400  0.00  0.00    +0.000 A 
ATOM      9  C   UNL     1      45.131   4.373   9.249  0.00  0.00    +0.000 A 
BRANCH   6  10
ATOM     10  C   UNL     1      47.658   2.329   6.462  0.00  0.00    +0.000 C 
ATOM     11  N   UNL     1      47.868   2.921   5.248  0.00  0.00    +0.000 N 
ATOM     12  O   UNL     1      48.188   1.261   6.748  0.00  0.00    +0.000 OA
ATOM     13  H   UNL     1      47.434   3.808   5.030  0.00  0.00    +0.000 HD
ATOM     14  H   UNL     1      48.479   2.464   4.586  0.00  0.00    +0.000 HD
ENDBRANCH   6  10
ENDBRANCH   1   9
BRANCH   1  15
ATOM     15  C   UNL     1      44.901   5.254  11.666  0.00  0.00    +0.000 C 
ATOM     16  C   UNL     1      45.149   4.084  12.603  0.00  0.00    +0.000 C 
ATOM     17  C   UNL     1      43.935   4.922  12.805  0.00  0.00    +0.000 C 
BRANCH  15  18
ATOM     18  C   UNL     1      45.670   6.563  11.855  0.00  0.00    +0.000 A 
ATOM     19  C   UNL     1      45.010   7.780  12.079  0.00  0.00    +0.000 A 
ATOM     20  C   UNL     1      45.710   8.985  12.202  0.00  0.00    +0.000 A 
ATOM     21  C   UNL     1      47.101   8.998  12.113  0.00  0.00    +0.000 A 
ATOM     22  C   UNL     1      47.792   7.806  11.900  0.00  0.00    +0.000 A 
ATOM     23  C   UNL     1      47.080   6.603  11.774  0.00  0.00    +0.000 A 
BRANCH  22  24
ATOM     24  C   UNL     1      49.223   7.813  11.801  0.00  0.00    +0.000 C 
ATOM     25  N   UNL     1      50.382   7.816  11.724  0.00  0.00    +0.000 NA
ENDBRANCH  22  24
ENDBRANCH  15  18
ENDBRANCH   1  15
TORSDOF 5
ENDMDL
MODEL 4
REMARK VINA RESULT:    -7.192      2.184      2.969
REMARK INTER + INTRA:          -9.991
REMARK INTER:                  -9.189
REMARK INTRA:                  -0.803
REMARK UNBOUND:                -0.698
REMARK  Name = 
REMARK  6 active torsions:
REMARK  status: ('A' for Active; 'I' for Inactive)
REMARK    1  A    between atoms: C_1  and  C_2
REMARK    2  A    between atoms: C_4  and  C_5
REMARK    3  A    between atoms: C_10  and  N_11
REMARK    4  A    between atoms: N_11  and  C_12
REMARK    5  A    between atoms: C_12  and  C_13
REMARK    6  A    between atoms: C_17  and  C_18
REMARK                            x       y       z     vdW  Elec       q    Type
REMARK                         _______ _______ _______ _____ _____    ______ ____
ROOT
ATOM      1  N   UNL     1      43.826   4.755   9.799  0.00  0.00    +0.000 N 
ATOM      2  H   UNL     1      43.469   5.378   9.078  0.00  0.00    +0.000 HD
ENDROOT
BRANCH   1   9
ATOM      3  C   UNL     1      46.298   5.508   8.411  0.00  0.00    +0.000 C 
ATOM      4  C   UNL     1      45.829   4.087   8.562  0.00  0.00    +0.000 A 
ATOM      5  C   UNL     1      46.578   3.081   7.930  0.00  0.00    +0.000 A 
ATOM      6  C   UNL     1      46.183   1.757   8.061  0.00  0.00    +0.000 A 
ATOM      7  N   UNL     1      45.103   1.366   8.783  0.00  0.00    +0.000 NA
ATOM      8  C   UNL     1      44.389   2.370   9.371  0.00  0.00    +0.000 A 
ATOM      9  C   UNL     1      44.680   3.741   9.303  0.00  0.00    +0.000 A 
BRANCH   6  10
ATOM     10  C   UNL     1      46.977   0.704   7.345  0.00  0.00    +0.000 C 
ATOM     11  N   UNL     1      46.679  -0.594   7.651  0.00  0.00    +0.000 N 
ATOM     12  O   UNL     1      47.846   0.980   6.526  0.00  0.00    +0.000 OA
ATOM     13  H   UNL     1      45.951  -0.808   8.319  0.00  0.00    +0.000 HD
ATOM     14  H   UNL     1      47.186  -1.331   7.181  0.00  0.00    +0.000 HD
ENDBRANCH   6  10
ENDBRANCH   1   9
BRANCH   1  15
ATOM     15  C   UNL     1      43.732   5.225  11.193  0.00  0.00    +0.000 C 
ATOM     16  C   UNL     1      42.466   5.002  12.001  0.00  0.00    +0.000 C 
ATOM     17  C   UNL     1      42.758   6.368  11.485  0.00  0.00    +0.000 C 
BRANCH  15  18
ATOM     18  C   UNL     1      45.082   5.353  11.904  0.00  0.00    +0.000 A 
ATOM     19  C   UNL     1      45.483   4.445  12.895  0.00  0.00    +0.000 A 
ATOM     20  C   UNL     1      46.694   4.592  13.580  0.00  0.00    +0.000 A 
ATOM     21  C   UNL     1      47.544   5.654  13.278  0.00  0.00    +0.000 A 
ATOM     22  C   UNL     1      47.183   6.571  12.293  0.00  0.00    +0.000 A 
ATOM     23  C   UNL     1      45.964   6.419  11.615  0.00  0.00    +0.000 A 
BRANCH  22  24
ATOM     24  C   UNL     1      48.050   7.671  11.982  0.00  0.00    +0.000 C 
ATOM     25  N   UNL     1      48.755   8.561  11.736  0.00  0.00    +0.000 NA
ENDBRANCH  22  24
ENDBRANCH  15  18
ENDBRANCH   1  15
TORSDOF 5
ENDMDL
MODEL 5
REMARK VINA RESULT:    -6.219      3.908      7.244
REMARK INTER + INTRA:          -8.734
REMARK INTER:                  -8.596
REMARK INTRA:                  -0.138
REMARK UNBOUND:                -0.698
REMARK  Name = 
REMARK  6 active torsions:
REMARK  status: ('A' for Active; 'I' for Inactive)
REMARK    1  A    between atoms: C_1  and  C_2
REMARK    2  A    between atoms: C_4  and  C_5
REMARK    3  A    between atoms: C_10  and  N_11
REMARK    4  A    between atoms: N_11  and  C_12
REMARK    5  A    between atoms: C_12  and  C_13
REMARK    6  A    between atoms: C_17  and  C_18
REMARK                            x       y       z     vdW  Elec       q    Type
REMARK                         _______ _______ _______ _____ _____    ______ ____
ROOT
ATOM      1  N   UNL     1      46.871   5.985  12.202  0.00  0.00    +0.000 N 
ATOM      2  H   UNL     1      47.630   6.569  11.860  0.00  0.00    +0.000 HD
ENDROOT
BRANCH   1   9
ATOM      3  C   UNL     1      48.130   7.662  14.254  0.00  0.00    +0.000 C 
ATOM      4  C   UNL     1      47.781   6.213  14.462  0.00  0.00    +0.000 A 
ATOM      5  C   UNL     1      48.158   5.619  15.677  0.00  0.00    +0.000 A 
ATOM      6  C   UNL     1      47.839   4.289  15.910  0.00  0.00    +0.000 A 
ATOM      7  N   UNL     1      47.165   3.514  15.023  0.00  0.00    +0.000 NA
ATOM      8  C   UNL     1      46.827   4.119  13.846  0.00  0.00    +0.000 A 
ATOM      9  C   UNL     1      47.103   5.448  13.491  0.00  0.00    +0.000 A 
BRANCH   6  10
ATOM     10  C   UNL     1      48.286   3.665  17.200  0.00  0.00    +0.000 C 
ATOM     11  N   UNL     1      47.312   3.084  17.963  0.00  0.00    +0.000 N 
ATOM     12  O   UNL     1      49.458   3.667  17.559  0.00  0.00    +0.000 OA
ATOM     13  H   UNL     1      46.351   3.079  17.649  0.00  0.00    +0.000 HD
ATOM     14  H   UNL     1      47.577   2.645  18.834  0.00  0.00    +0.000 HD
ENDBRANCH   6  10
ENDBRANCH   1   9
BRANCH   1  15
ATOM     15  C   UNL     1      45.569   6.116  11.523  0.00  0.00    +0.000 C 
ATOM     16  C   UNL     1      44.964   7.485  11.268  0.00  0.00    +0.000 C 
ATOM     17  C   UNL     1      44.394   6.639  12.353  0.00  0.00    +0.000 C 
BRANCH  15  18
ATOM     18  C   UNL     1      45.217   4.940  10.608  0.00  0.00    +0.000 A 
ATOM     19  C   UNL     1      44.384   3.896  11.037  0.00  0.00    +0.000 A 
ATOM     20  C   UNL     1      44.103   2.796  10.219  0.00  0.00    +0.000 A 
ATOM     21  C   UNL     1      44.646   2.721   8.938  0.00  0.00    +0.000 A 
ATOM     22  C   UNL     1      45.471   3.745   8.474  0.00  0.00    +0.000 A 
ATOM     23  C   UNL     1      45.751   4.841   9.304  0.00  0.00    +0.000 A 
BRANCH  22  24
ATOM     24  C   UNL     1      46.038   3.670   7.159  0.00  0.00    +0.000 C 
ATOM     25  N   UNL     1      46.501   3.606   6.095  0.00  0.00    +0.000 NA
ENDBRANCH  22  24
ENDBRANCH  15  18
ENDBRANCH   1  15
TORSDOF 5
ENDMDL
MODEL 6
REMARK VINA RESULT:    -6.146      5.193      7.823
REMARK INTER + INTRA:          -8.641
REMARK INTER:                  -7.970
REMARK INTRA:                  -0.670
REMARK UNBOUND:                -0.698
REMARK  Name = 
REMARK  6 active torsions:
REMARK  status: ('A' for Active; 'I' for Inactive)
REMARK    1  A    between atoms: C_1  and  C_2
REMARK    2  A    between atoms: C_4  and  C_5
REMARK    3  A    between atoms: C_10  and  N_11
REMARK    4  A    between atoms: N_11  and  C_12
REMARK    5  A    between atoms: C_12  and  C_13
REMARK    6  A    between atoms: C_17  and  C_18
REMARK                            x       y       z     vdW  Elec       q    Type
REMARK                         _______ _______ _______ _____ _____    ______ ____
ROOT
ATOM      1  N   UNL     1      46.529   4.787  15.188  0.00  0.00    +0.000 N 
ATOM      2  H   UNL     1      45.609   4.671  15.604  0.00  0.00    +0.000 HD
ENDROOT
BRANCH   1   9
ATOM      3  C   UNL     1      48.151   6.191  17.189  0.00  0.00    +0.000 C 
ATOM      4  C   UNL     1      48.395   4.767  16.771  0.00  0.00    +0.000 A 
ATOM      5  C   UNL     1      49.513   4.110  17.312  0.00  0.00    +0.000 A 
ATOM      6  C   UNL     1      49.760   2.790  16.961  0.00  0.00    +0.000 A 
ATOM      7  N   UNL     1      48.969   2.079  16.118  0.00  0.00    +0.000 NA
ATOM      8  C   UNL     1      47.901   2.752  15.599  0.00  0.00    +0.000 A 
ATOM      9  C   UNL     1      47.554   4.085  15.867  0.00  0.00    +0.000 A 
BRANCH   6  10
ATOM     10  C   UNL     1      50.981   2.121  17.521  0.00  0.00    +0.000 C 
ATOM     11  N   UNL     1      51.741   2.866  18.379  0.00  0.00    +0.000 N 
ATOM     12  O   UNL     1      51.288   0.969  17.235  0.00  0.00    +0.000 OA
ATOM     13  H   UNL     1      51.469   3.810  18.615  0.00  0.00    +0.000 HD
ATOM     14  H   UNL     1      52.565   2.445  18.784  0.00  0.00    +0.000 HD
ENDBRANCH   6  10
ENDBRANCH   1   9
BRANCH   1  15
ATOM     15  C   UNL     1      46.578   5.298  13.806  0.00  0.00    +0.000 C 
ATOM     16  C   UNL     1      47.908   5.615  13.145  0.00  0.00    +0.000 C 
ATOM     17  C   UNL     1      47.048   6.740  13.607  0.00  0.00    +0.000 C 
BRANCH  15  18
ATOM     18  C   UNL     1      45.371   4.906  12.949  0.00  0.00    +0.000 A 
ATOM     19  C   UNL     1      44.083   5.385  13.229  0.00  0.00    +0.000 A 
ATOM     20  C   UNL     1      42.971   4.988  12.478  0.00  0.00    +0.000 A 
ATOM     21  C   UNL     1      43.128   4.103  11.413  0.00  0.00    +0.000 A 
ATOM     22  C   UNL     1      44.395   3.612  11.100  0.00  0.00    +0.000 A 
ATOM     23  C   UNL     1      45.502   4.013  11.863  0.00  0.00    +0.000 A 
BRANCH  22  24
ATOM     24  C   UNL     1      44.561   2.695  10.010  0.00  0.00    +0.000 C 
ATOM     25  N   UNL     1      44.691   1.951   9.127  0.00  0.00    +0.000 NA
ENDBRANCH  22  24
ENDBRANCH  15  18
ENDBRANCH   1  15
TORSDOF 5
ENDMDL
MODEL 7
REMARK VINA RESULT:    -6.077      3.376      6.859
REMARK INTER + INTRA:          -8.550
REMARK INTER:                  -8.621
REMARK INTRA:                   0.070
REMARK UNBOUND:                -0.698
REMARK  Name = 
REMARK  6 active torsions:
REMARK  status: ('A' for Active; 'I' for Inactive)
REMARK    1  A    between atoms: C_1  and  C_2
REMARK    2  A    between atoms: C_4  and  C_5
REMARK    3  A    between atoms: C_10  and  N_11
REMARK    4  A    between atoms: N_11  and  C_12
REMARK    5  A    between atoms: C_12  and  C_13
REMARK    6  A    between atoms: C_17  and  C_18
REMARK                            x       y       z     vdW  Elec       q    Type
REMARK                         _______ _______ _______ _____ _____    ______ ____
ROOT
ATOM      1  N   UNL     1      45.049   6.562  11.275  0.00  0.00    +0.000 N 
ATOM      2  H   UNL     1      44.873   7.408  10.739  0.00  0.00    +0.000 HD
ENDROOT
BRANCH   1   9
ATOM      3  C   UNL     1      45.368   9.108  12.696  0.00  0.00    +0.000 C 
ATOM      4  C   UNL     1      46.302   7.940  12.861  0.00  0.00    +0.000 A 
ATOM      5  C   UNL     1      47.431   8.117  13.678  0.00  0.00    +0.000 A 
ATOM      6  C   UNL     1      48.306   7.056  13.866  0.00  0.00    +0.000 A 
ATOM      7  N   UNL     1      48.130   5.832  13.306  0.00  0.00    +0.000 NA
ATOM      8  C   UNL     1      47.031   5.700  12.506  0.00  0.00    +0.000 A 
ATOM      9  C   UNL     1      46.084   6.698  12.230  0.00  0.00    +0.000 A 
BRANCH   6  10
ATOM     10  C   UNL     1      49.525   7.280  14.712  0.00  0.00    +0.000 C 
ATOM     11  N   UNL     1      50.691   7.527  14.043  0.00  0.00    +0.000 N 
ATOM     12  O   UNL     1      49.489   7.249  15.937  0.00  0.00    +0.000 OA
ATOM     13  H   UNL     1      50.704   7.562  13.033  0.00  0.00    +0.000 HD
ATOM     14  H   UNL     1      51.530   7.693  14.580  0.00  0.00    +0.000 HD
ENDBRANCH   6  10
ENDBRANCH   1   9
BRANCH   1  15
ATOM     15  C   UNL     1      43.996   5.528  11.257  0.00  0.00    +0.000 C 
ATOM     16  C   UNL     1      42.553   5.889  11.563  0.00  0.00    +0.000 C 
ATOM     17  C   UNL     1      43.347   5.164  12.593  0.00  0.00    +0.000 C 
BRANCH  15  18
ATOM     18  C   UNL     1      44.313   4.326  10.364  0.00  0.00    +0.000 A 
ATOM     19  C   UNL     1      43.930   3.024  10.717  0.00  0.00    +0.000 A 
ATOM     20  C   UNL     1      44.263   1.919   9.927  0.00  0.00    +0.000 A 
ATOM     21  C   UNL     1      44.986   2.095   8.748  0.00  0.00    +0.000 A 
ATOM     22  C   UNL     1      45.377   3.376   8.360  0.00  0.00    +0.000 A 
ATOM     23  C   UNL     1      45.041   4.477   9.162  0.00  0.00    +0.000 A 
BRANCH  22  24
ATOM     24  C   UNL     1      46.127   3.563   7.152  0.00  0.00    +0.000 C 
ATOM     25  N   UNL     1      46.737   3.711   6.175  0.00  0.00    +0.000 NA
ENDBRANCH  22  24
ENDBRANCH  15  18
ENDBRANCH   1  15
TORSDOF 5
ENDMDL
MODEL 8
REMARK VINA RESULT:    -5.885      4.247      6.124
REMARK INTER + INTRA:          -8.303
REMARK INTER:                  -8.072
REMARK INTRA:                  -0.231
REMARK UNBOUND:                -0.698
REMARK  Name = 
REMARK  6 active torsions:
REMARK  status: ('A' for Active; 'I' for Inactive)
REMARK    1  A    between atoms: C_1  and  C_2
REMARK    2  A    between atoms: C_4  and  C_5
REMARK    3  A    between atoms: C_10  and  N_11
REMARK    4  A    between atoms: N_11  and  C_12
REMARK    5  A    between atoms: C_12  and  C_13
REMARK    6  A    between atoms: C_17  and  C_18
REMARK                            x       y       z     vdW  Elec       q    Type
REMARK                         _______ _______ _______ _____ _____    ______ ____
ROOT
ATOM      1  N   UNL     1      46.871   6.739  13.934  0.00  0.00    +0.000 N 
ATOM      2  H   UNL     1      46.210   7.382  14.364  0.00  0.00    +0.000 HD
ENDROOT
BRANCH   1   9
ATOM      3  C   UNL     1      45.219   7.498  11.633  0.00  0.00    +0.000 C 
ATOM      4  C   UNL     1      45.396   6.079  12.098  0.00  0.00    +0.000 A 
ATOM      5  C   UNL     1      44.661   5.080  11.439  0.00  0.00    +0.000 A 
ATOM      6  C   UNL     1      44.812   3.757  11.830  0.00  0.00    +0.000 A 
ATOM      7  N   UNL     1      45.647   3.360  12.823  0.00  0.00    +0.000 NA
ATOM      8  C   UNL     1      46.335   4.359  13.452  0.00  0.00    +0.000 A 
ATOM      9  C   UNL     1      46.259   5.728  13.156  0.00  0.00    +0.000 A 
BRANCH   6  10
ATOM     10  C   UNL     1      43.987   2.711  11.138  0.00  0.00    +0.000 C 
ATOM     11  N   UNL     1      44.456   2.268   9.933  0.00  0.00    +0.000 N 
ATOM     12  O   UNL     1      42.949   2.269  11.618  0.00  0.00    +0.000 OA
ATOM     13  H   UNL     1      45.320   2.632   9.555  0.00  0.00    +0.000 HD
ATOM     14  H   UNL     1      43.933   1.556   9.443  0.00  0.00    +0.000 HD
ENDBRANCH   6  10
ENDBRANCH   1   9
BRANCH   1  15
ATOM     15  C   UNL     1      48.278   7.178  13.862  0.00  0.00    +0.000 C 
ATOM     16  C   UNL     1      48.668   8.386  13.029  0.00  0.00    +0.000 C 
ATOM     17  C   UNL     1      48.991   7.026  12.517  0.00  0.00    +0.000 C 
BRANCH  15  18
ATOM     18  C   UNL     1      49.124   6.774  15.071  0.00  0.00    +0.000 A 
ATOM     19  C   UNL     1      50.414   7.288  15.273  0.00  0.00    +0.000 A 
ATOM     20  C   UNL     1      51.207   6.880  16.351  0.00  0.00    +0.000 A 
ATOM     21  C   UNL     1      50.719   5.949  17.266  0.00  0.00    +0.000 A 
ATOM     22  C   UNL     1      49.438   5.423  17.103  0.00  0.00    +0.000 A 
ATOM     23  C   UNL     1      48.652   5.835  16.016  0.00  0.00    +0.000 A 
BRANCH  22  24
ATOM     24  C   UNL     1      48.932   4.460  18.037  0.00  0.00    +0.000 C 
ATOM     25  N   UNL     1      48.524   3.682  18.797  0.00  0.00    +0.000 NA
ENDBRANCH  22  24
ENDBRANCH  15  18
ENDBRANCH   1  15
TORSDOF 5
ENDMDL
MODEL 9
REMARK VINA RESULT:    -5.637      5.195      7.703
REMARK INTER + INTRA:          -7.983
REMARK INTER:                  -7.325
REMARK INTRA:                  -0.658
REMARK UNBOUND:                -0.698
REMARK  Name = 
REMARK  6 active torsions:
REMARK  status: ('A' for Active; 'I' for Inactive)
REMARK    1  A    between atoms: C_1  and  C_2
REMARK    2  A    between atoms: C_4  and  C_5
REMARK    3  A    between atoms: C_10  and  N_11
REMARK    4  A    between atoms: N_11  and  C_12
REMARK    5  A    between atoms: C_12  and  C_13
REMARK    6  A    between atoms: C_17  and  C_18
REMARK                            x       y       z     vdW  Elec       q    Type
REMARK                         _______ _______ _______ _____ _____    ______ ____
ROOT
ATOM      1  N   UNL     1      48.687   6.641  14.442  0.00  0.00    +0.000 N 
ATOM      2  H   UNL     1      49.498   6.435  13.865  0.00  0.00    +0.000 HD
ENDROOT
BRANCH   1   9
ATOM      3  C   UNL     1      46.841   8.295  12.872  0.00  0.00    +0.000 C 
ATOM      4  C   UNL     1      46.550   6.875  13.274  0.00  0.00    +0.000 A 
ATOM      5  C   UNL     1      45.289   6.350  12.947  0.00  0.00    +0.000 A 
ATOM      6  C   UNL     1      44.990   5.038  13.288  0.00  0.00    +0.000 A 
ATOM      7  N   UNL     1      45.861   4.213  13.923  0.00  0.00    +0.000 NA
ATOM      8  C   UNL     1      47.072   4.760  14.239  0.00  0.00    +0.000 A 
ATOM      9  C   UNL     1      47.485   6.072  13.959  0.00  0.00    +0.000 A 
BRANCH   6  10
ATOM     10  C   UNL     1      43.624   4.511  12.962  0.00  0.00    +0.000 C 
ATOM     11  N   UNL     1      42.621   5.436  12.874  0.00  0.00    +0.000 N 
ATOM     12  O   UNL     1      43.406   3.318  12.780  0.00  0.00    +0.000 OA
ATOM     13  H   UNL     1      42.817   6.418  13.015  0.00  0.00    +0.000 HD
ATOM     14  H   UNL     1      41.689   5.119  12.647  0.00  0.00    +0.000 HD
ENDBRANCH   6  10
ENDBRANCH   1   9
BRANCH   1  15
ATOM     15  C   UNL     1      48.946   7.123  15.811  0.00  0.00    +0.000 C 
ATOM     16  C   UNL     1      48.655   8.564  16.192  0.00  0.00    +0.000 C 
ATOM     17  C   UNL     1      50.070   8.144  15.995  0.00  0.00    +0.000 C 
BRANCH  15  18
ATOM     18  C   UNL     1      48.914   6.026  16.878  0.00  0.00    +0.000 A 
ATOM     19  C   UNL     1      48.261   6.212  18.106  0.00  0.00    +0.000 A 
ATOM     20  C   UNL     1      48.275   5.228  19.102  0.00  0.00    +0.000 A 
ATOM     21  C   UNL     1      48.937   4.022  18.884  0.00  0.00    +0.000 A 
ATOM     22  C   UNL     1      49.589   3.799  17.672  0.00  0.00    +0.000 A 
ATOM     23  C   UNL     1      49.575   4.793  16.682  0.00  0.00    +0.000 A 
BRANCH  22  24
ATOM     24  C   UNL     1      50.280   2.562  17.445  0.00  0.00    +0.000 C 
ATOM     25  N   UNL     1      50.841   1.561  17.266  0.00  0.00    +0.000 NA
ENDBRANCH  22  24
ENDBRANCH  15  18
ENDBRANCH   1  15
TORSDOF 5
ENDMDL
