MODEL 1
REMARK VINA RESULT:    -7.470      0.000      0.000
REMARK INTER + INTRA:         -11.277
REMARK INTER:                 -10.309
REMARK INTRA:                  -0.968
REMARK UNBOUND:                -0.968
REMARK  Name = 
REMARK  7 active torsions:
REMARK  status: ('A' for Active; 'I' for Inactive)
REMARK    1  A    between atoms: C_2  and  C_19
REMARK    2  A    between atoms: N_3  and  C_4
REMARK    3  A    between atoms: C_4  and  C_5
REMARK    4  A    between atoms: C_8  and  C_9
REMARK    5  A    between atoms: C_9  and  N_10
REMARK    6  A    between atoms: N_10  and  C_11
REMARK    7  A    between atoms: C_14  and  O_15
REMARK                            x       y       z     vdW  Elec       q    Type
REMARK                         _______ _______ _______ _____ _____    ______ ____
ROOT
ATOM      1  C   UNL     1      47.175   3.390  16.837  0.00  0.00    +0.000 C 
ENDROOT
BRANCH   1   2
ATOM      2  C   UNL     1      48.648   3.454  17.149  0.00  0.00    +0.000 A 
ATOM      3  C   UNL     1      49.235   4.665  17.532  0.00  0.00    +0.000 A 
ATOM      4  C   UNL     1      50.591   4.724  17.866  0.00  0.00    +0.000 A 
ATOM      5  C   UNL     1      51.394   3.576  17.816  0.00  0.00    +0.000 A 
ATOM      6  C   UNL     1      50.813   2.372  17.392  0.00  0.00    +0.000 A 
ATOM      7  C   UNL     1      49.457   2.312  17.055  0.00  0.00    +0.000 A 
BRANCH   5   8
ATOM      8  C   UNL     1      52.862   3.643  18.182  0.00  0.00    +0.000 C 
BRANCH   8   9
ATOM      9  N   UNL     1      53.262   2.493  19.009  0.00  0.00    +0.000 NA
ATOM     10  H   UNL     1      52.537   1.780  18.891  0.00  0.00    +0.000 HD
BRANCH   9  11
ATOM     11  C   UNL     1      54.553   1.914  18.598  0.00  0.00    +0.000 C 
ATOM     12  C   UNL     1      55.162   0.965  19.652  0.00  0.00    +0.000 C 
ATOM     13  C   UNL     1      55.082  -0.453  19.081  0.00  0.00    +0.000 C 
ATOM     14  C   UNL     1      54.070  -0.367  17.950  0.00  0.00    +0.000 C 
ATOM     15  C   UNL     1      54.328   1.016  17.366  0.00  0.00    +0.000 C 
BRANCH  14  16
ATOM     16  O   UNL     1      52.745  -0.469  18.458  0.00  0.00    +0.000 OA
ATOM     17  H   UNL     1      52.679   0.132  19.229  0.00  0.00    +0.000 HD
ENDBRANCH  14  16
ENDBRANCH   9  11
ENDBRANCH   8   9
ENDBRANCH   5   8
ENDBRANCH   1   2
BRANCH   1  20
ATOM     18  O   UNL     1      47.290   3.085  14.039  0.00  0.00    +0.000 OA
ATOM     19  C   UNL     1      46.847   4.130  14.507  0.00  0.00    +0.000 C 
ATOM     20  N   UNL     1      46.790   4.369  15.854  0.00  0.00    +0.000 N 
ATOM     21  H   UNL     1      46.268   5.166  16.199  0.00  0.00    +0.000 HD
BRANCH  19  22
ATOM     22  C   UNL     1      46.403   5.227  13.636  0.00  0.00    +0.000 A 
ATOM     23  C   UNL     1      47.251   6.299  13.391  0.00  0.00    +0.000 A 
ATOM     24  S   UNL     1      46.576   7.485  12.368  0.00  0.00    +0.000 S 
ATOM     25  C   UNL     1      45.142   6.589  12.184  0.00  0.00    +0.000 A 
ATOM     26  N   UNL     1      44.132   7.035  11.388  0.00  0.00    +0.000 NA
ATOM     27  C   UNL     1      43.118   6.241  11.310  0.00  0.00    +0.000 A 
ATOM     28  N   UNL     1      43.018   5.043  11.965  0.00  0.00    +0.000 N 
ATOM     29  C   UNL     1      43.974   4.593  12.845  0.00  0.00    +0.000 A 
ATOM     30  O   UNL     1      43.777   3.592  13.530  0.00  0.00    +0.000 OA
ATOM     31  C   UNL     1      45.162   5.418  12.923  0.00  0.00    +0.000 A 
ATOM     32  H   UNL     1      42.182   4.483  11.897  0.00  0.00    +0.000 HD
ENDBRANCH  19  22
ENDBRANCH   1  20
TORSDOF 7
ENDMDL
MODEL 2
REMARK VINA RESULT:    -7.288      1.743      2.393
REMARK INTER + INTRA:         -11.026
REMARK INTER:                 -10.080
REMARK INTRA:                  -0.945
REMARK UNBOUND:                -0.968
REMARK  Name = 
REMARK  7 active torsions:
REMARK  status: ('A' for Active; 'I' for Inactive)
REMARK    1  A    between atoms: C_2  and  C_19
REMARK    2  A    between atoms: N_3  and  C_4
REMARK    3  A    between atoms: C_4  and  C_5
REMARK    4  A    between atoms: C_8  and  C_9
REMARK    5  A    between atoms: C_9  and  N_10
REMARK    6  A    between atoms: N_10  and  C_11
REMARK    7  A    between atoms: C_14  and  O_15
REMARK                            x       y       z     vdW  Elec       q    Type
REMARK                         _______ _______ _______ _____ _____    ______ ____
ROOT
ATOM      1  C   UNL     1      48.895   6.120  16.806  0.00  0.00    +0.000 C 
ENDROOT
BRANCH   1   2
ATOM      2  C   UNL     1      49.541   4.778  17.034  0.00  0.00    +0.000 A 
ATOM      3  C   UNL     1      50.904   4.695  17.336  0.00  0.00    +0.000 A 
ATOM      4  C   UNL     1      51.502   3.458  17.592  0.00  0.00    +0.000 A 
ATOM      5  C   UNL     1      50.753   2.275  17.546  0.00  0.00    +0.000 A 
ATOM      6  C   UNL     1      49.395   2.355  17.203  0.00  0.00    +0.000 A 
ATOM      7  C   UNL     1      48.797   3.593  16.943  0.00  0.00    +0.000 A 
BRANCH   5   8
ATOM      8  C   UNL     1      51.403   0.936  17.828  0.00  0.00    +0.000 C 
BRANCH   8   9
ATOM      9  N   UNL     1      52.488   0.655  16.877  0.00  0.00    +0.000 NA
ATOM     10  H   UNL     1      52.482   1.414  16.191  0.00  0.00    +0.000 HD
BRANCH   9  11
ATOM     11  C   UNL     1      53.816   0.619  17.515  0.00  0.00    +0.000 C 
ATOM     12  C   UNL     1      54.059  -0.652  18.355  0.00  0.00    +0.000 C 
ATOM     13  C   UNL     1      55.109  -1.486  17.618  0.00  0.00    +0.000 C 
ATOM     14  C   UNL     1      55.132  -0.930  16.203  0.00  0.00    +0.000 C 
ATOM     15  C   UNL     1      54.896   0.559  16.417  0.00  0.00    +0.000 C 
BRANCH  14  16
ATOM     16  O   UNL     1      54.090  -1.506  15.424  0.00  0.00    +0.000 OA
ATOM     17  H   UNL     1      54.430  -2.347  15.054  0.00  0.00    +0.000 HD
ENDBRANCH  14  16
ENDBRANCH   9  11
ENDBRANCH   8   9
ENDBRANCH   5   8
ENDBRANCH   1   2
BRANCH   1  20
ATOM     18  O   UNL     1      49.286   6.699  14.077  0.00  0.00    +0.000 OA
ATOM     19  C   UNL     1      48.177   6.335  14.456  0.00  0.00    +0.000 C 
ATOM     20  N   UNL     1      47.897   6.068  15.770  0.00  0.00    +0.000 N 
ATOM     21  H   UNL     1      47.025   5.613  16.013  0.00  0.00    +0.000 HD
BRANCH  19  22
ATOM     22  C   UNL     1      47.050   6.223  13.519  0.00  0.00    +0.000 A 
ATOM     23  C   UNL     1      46.522   7.366  12.935  0.00  0.00    +0.000 A 
ATOM     24  S   UNL     1      45.217   7.055  11.882  0.00  0.00    +0.000 S 
ATOM     25  C   UNL     1      45.338   5.378  12.138  0.00  0.00    +0.000 A 
ATOM     26  N   UNL     1      44.512   4.509  11.494  0.00  0.00    +0.000 NA
ATOM     27  C   UNL     1      44.736   3.264  11.752  0.00  0.00    +0.000 A 
ATOM     28  N   UNL     1      45.706   2.810  12.605  0.00  0.00    +0.000 N 
ATOM     29  C   UNL     1      46.504   3.653  13.341  0.00  0.00    +0.000 A 
ATOM     30  O   UNL     1      47.254   3.212  14.210  0.00  0.00    +0.000 OA
ATOM     31  C   UNL     1      46.336   5.062  13.043  0.00  0.00    +0.000 A 
ATOM     32  H   UNL     1      45.807   1.825  12.798  0.00  0.00    +0.000 HD
ENDBRANCH  19  22
ENDBRANCH   1  20
TORSDOF 7
ENDMDL
MODEL 3
REMARK VINA RESULT:    -6.990      3.135      9.508
REMARK INTER + INTRA:         -10.614
REMARK INTER:                  -9.447
REMARK INTRA:                  -1.167
REMARK UNBOUND:                -0.968
REMARK  Name = 
REMARK  7 active torsions:
REMARK  status: ('A' for Active; 'I' for Inactive)
REMARK    1  A    between atoms: C_2  and  C_19
REMARK    2  A    between atoms: N_3  and  C_4
REMARK    3  A    between atoms: C_4  and  C_5
REMARK    4  A    between atoms: C_8  and  C_9
REMARK    5  A    between atoms: C_9  and  N_10
REMARK    6  A    between atoms: N_10  and  C_11
REMARK    7  A    between atoms: C_14  and  O_15
REMARK                            x       y       z     vdW  Elec       q    Type
REMARK                         _______ _______ _______ _____ _____    ______ ____
ROOT
ATOM      1  C   UNL     1      49.359   6.227  17.718  0.00  0.00    +0.000 C 
ENDROOT
BRANCH   1   2
ATOM      2  C   UNL     1      48.609   5.855  16.465  0.00  0.00    +0.000 A 
ATOM      3  C   UNL     1      47.820   4.701  16.434  0.00  0.00    +0.000 A 
ATOM      4  C   UNL     1      47.086   4.372  15.291  0.00  0.00    +0.000 A 
ATOM      5  C   UNL     1      47.131   5.185  14.150  0.00  0.00    +0.000 A 
ATOM      6  C   UNL     1      47.956   6.319  14.168  0.00  0.00    +0.000 A 
ATOM      7  C   UNL     1      48.693   6.647  15.311  0.00  0.00    +0.000 A 
BRANCH   5   8
ATOM      8  C   UNL     1      46.331   4.828  12.914  0.00  0.00    +0.000 C 
BRANCH   8   9
ATOM      9  N   UNL     1      45.258   3.872  13.226  0.00  0.00    +0.000 NA
ATOM     10  H   UNL     1      45.132   3.894  14.242  0.00  0.00    +0.000 HD
BRANCH   9  11
ATOM     11  C   UNL     1      43.975   4.223  12.594  0.00  0.00    +0.000 C 
ATOM     12  C   UNL     1      44.120   5.221  11.425  0.00  0.00    +0.000 C 
ATOM     13  C   UNL     1      43.802   4.457  10.138  0.00  0.00    +0.000 C 
ATOM     14  C   UNL     1      43.909   2.988  10.515  0.00  0.00    +0.000 C 
ATOM     15  C   UNL     1      43.377   2.961  11.941  0.00  0.00    +0.000 C 
BRANCH  14  16
ATOM     16  O   UNL     1      45.265   2.558  10.467  0.00  0.00    +0.000 OA
ATOM     17  H   UNL     1      45.823   3.313  10.746  0.00  0.00    +0.000 HD
ENDBRANCH  14  16
ENDBRANCH   9  11
ENDBRANCH   8   9
ENDBRANCH   5   8
ENDBRANCH   1   2
BRANCH   1  20
ATOM     18  O   UNL     1      51.952   6.098  16.624  0.00  0.00    +0.000 OA
ATOM     19  C   UNL     1      51.629   5.287  17.487  0.00  0.00    +0.000 C 
ATOM     20  N   UNL     1      50.377   5.262  18.043  0.00  0.00    +0.000 N 
ATOM     21  H   UNL     1      50.206   4.691  18.863  0.00  0.00    +0.000 HD
BRANCH  19  22
ATOM     22  C   UNL     1      52.557   4.241  17.936  0.00  0.00    +0.000 A 
ATOM     23  C   UNL     1      53.773   4.595  18.504  0.00  0.00    +0.000 A 
ATOM     24  S   UNL     1      54.729   3.259  18.962  0.00  0.00    +0.000 S 
ATOM     25  C   UNL     1      53.535   2.160  18.455  0.00  0.00    +0.000 A 
ATOM     26  N   UNL     1      53.709   0.818  18.598  0.00  0.00    +0.000 NA
ATOM     27  C   UNL     1      52.710   0.101  18.205  0.00  0.00    +0.000 A 
ATOM     28  N   UNL     1      51.554   0.605  17.672  0.00  0.00    +0.000 N 
ATOM     29  C   UNL     1      51.369   1.946  17.430  0.00  0.00    +0.000 A 
ATOM     30  O   UNL     1      50.386   2.343  16.808  0.00  0.00    +0.000 OA
ATOM     31  C   UNL     1      52.436   2.802  17.909  0.00  0.00    +0.000 A 
ATOM     32  H   UNL     1      50.823  -0.008  17.345  0.00  0.00    +0.000 HD
ENDBRANCH  19  22
ENDBRANCH   1  20
TORSDOF 7
ENDMDL
MODEL 4
REMARK VINA RESULT:    -6.978      4.092      9.332
REMARK INTER + INTRA:         -10.597
REMARK INTER:                  -9.990
REMARK INTRA:                  -0.608
REMARK UNBOUND:                -0.968
REMARK  Name = 
REMARK  7 active torsions:
REMARK  status: ('A' for Active; 'I' for Inactive)
REMARK    1  A    between atoms: C_2  and  C_19
REMARK    2  A    between atoms: N_3  and  C_4
REMARK    3  A    between atoms: C_4  and  C_5
REMARK    4  A    between atoms: C_8  and  C_9
REMARK    5  A    between atoms: C_9  and  N_10
REMARK    6  A    between atoms: N_10  and  C_11
REMARK    7  A    between atoms: C_14  and  O_15
REMARK                            x       y       z     vdW  Elec       q    Type
REMARK                         _______ _______ _______ _____ _____    ______ ____
ROOT
ATOM      1  C   UNL     1      47.449   8.675  13.645  0.00  0.00    +0.000 C 
ENDROOT
BRANCH   1   2
ATOM      2  C   UNL     1      46.320   7.932  12.980  0.00  0.00    +0.000 A 
ATOM      3  C   UNL     1      46.043   6.608  13.335  0.00  0.00    +0.000 A 
ATOM      4  C   UNL     1      44.970   5.925  12.755  0.00  0.00    +0.000 A 
ATOM      5  C   UNL     1      44.154   6.548  11.800  0.00  0.00    +0.000 A 
ATOM      6  C   UNL     1      44.459   7.861  11.414  0.00  0.00    +0.000 A 
ATOM      7  C   UNL     1      45.535   8.544  11.992  0.00  0.00    +0.000 A 
BRANCH   5   8
ATOM      8  C   UNL     1      42.990   5.807  11.176  0.00  0.00    +0.000 C 
BRANCH   8   9
ATOM      9  N   UNL     1      43.419   5.015  10.013  0.00  0.00    +0.000 NA
ATOM     10  H   UNL     1      43.519   5.670   9.233  0.00  0.00    +0.000 HD
BRANCH   9  11
ATOM     11  C   UNL     1      44.713   4.343  10.222  0.00  0.00    +0.000 C 
ATOM     12  C   UNL     1      44.597   2.809  10.336  0.00  0.00    +0.000 C 
ATOM     13  C   UNL     1      45.228   2.214   9.075  0.00  0.00    +0.000 C 
ATOM     14  C   UNL     1      45.297   3.367   8.087  0.00  0.00    +0.000 C 
ATOM     15  C   UNL     1      45.597   4.564   8.978  0.00  0.00    +0.000 C 
BRANCH  14  16
ATOM     16  O   UNL     1      44.051   3.526   7.419  0.00  0.00    +0.000 OA
ATOM     17  H   UNL     1      44.083   2.985   6.603  0.00  0.00    +0.000 HD
ENDBRANCH  14  16
ENDBRANCH   9  11
ENDBRANCH   8   9
ENDBRANCH   5   8
ENDBRANCH   1   2
BRANCH   1  20
ATOM     18  O   UNL     1      49.467   6.742  14.002  0.00  0.00    +0.000 OA
ATOM     19  C   UNL     1      48.853   7.151  14.983  0.00  0.00    +0.000 C 
ATOM     20  N   UNL     1      47.836   8.064  14.890  0.00  0.00    +0.000 N 
ATOM     21  H   UNL     1      47.474   8.496  15.732  0.00  0.00    +0.000 HD
BRANCH  19  22
ATOM     22  C   UNL     1      49.134   6.632  16.329  0.00  0.00    +0.000 A 
ATOM     23  C   UNL     1      49.854   7.406  17.230  0.00  0.00    +0.000 A 
ATOM     24  S   UNL     1      50.095   6.650  18.740  0.00  0.00    +0.000 S 
ATOM     25  C   UNL     1      49.213   5.279  18.257  0.00  0.00    +0.000 A 
ATOM     26  N   UNL     1      49.007   4.240  19.112  0.00  0.00    +0.000 NA
ATOM     27  C   UNL     1      48.291   3.281  18.629  0.00  0.00    +0.000 A 
ATOM     28  N   UNL     1      47.769   3.262  17.363  0.00  0.00    +0.000 N 
ATOM     29  C   UNL     1      48.022   4.249  16.439  0.00  0.00    +0.000 A 
ATOM     30  O   UNL     1      47.667   4.121  15.269  0.00  0.00    +0.000 OA
ATOM     31  C   UNL     1      48.771   5.380  16.949  0.00  0.00    +0.000 A 
ATOM     32  H   UNL     1      47.250   2.465  17.028  0.00  0.00    +0.000 HD
ENDBRANCH  19  22
ENDBRANCH   1  20
TORSDOF 7
ENDMDL
MODEL 5
REMARK VINA RESULT:    -6.927      1.945      3.035
REMARK INTER + INTRA:         -10.528
REMARK INTER:                  -9.479
REMARK INTRA:                  -1.048
REMARK UNBOUND:                -0.968
REMARK  Name = 
REMARK  7 active torsions:
REMARK  status: ('A' for Active; 'I' for Inactive)
REMARK    1  A    between atoms: C_2  and  C_19
REMARK    2  A    between atoms: N_3  and  C_4
REMARK    3  A    between atoms: C_4  and  C_5
REMARK    4  A    between atoms: C_8  and  C_9
REMARK    5  A    between atoms: C_9  and  N_10
REMARK    6  A    between atoms: N_10  and  C_11
REMARK    7  A    between atoms: C_14  and  O_15
REMARK                            x       y       z     vdW  Elec       q    Type
REMARK                         _______ _______ _______ _____ _____    ______ ____
ROOT
ATOM      1  C   UNL     1      47.218   3.733  16.863  0.00  0.00    +0.000 C 
ENDROOT
BRANCH   1   2
ATOM      2  C   UNL     1      48.651   3.382  17.170  0.00  0.00    +0.000 A 
ATOM      3  C   UNL     1      49.151   2.118  16.843  0.00  0.00    +0.000 A 
ATOM      4  C   UNL     1      50.491   1.799  17.084  0.00  0.00    +0.000 A 
ATOM      5  C   UNL     1      51.359   2.734  17.664  0.00  0.00    +0.000 A 
ATOM      6  C   UNL     1      50.845   3.987  18.029  0.00  0.00    +0.000 A 
ATOM      7  C   UNL     1      49.504   4.306  17.792  0.00  0.00    +0.000 A 
BRANCH   5   8
ATOM      8  C   UNL     1      52.811   2.387  17.920  0.00  0.00    +0.000 C 
BRANCH   8   9
ATOM      9  N   UNL     1      53.001   0.933  18.044  0.00  0.00    +0.000 NA
ATOM     10  H   UNL     1      52.723   0.523  17.149  0.00  0.00    +0.000 HD
BRANCH   9  11
ATOM     11  C   UNL     1      54.401   0.559  18.309  0.00  0.00    +0.000 C 
ATOM     12  C   UNL     1      54.575  -0.919  18.717  0.00  0.00    +0.000 C 
ATOM     13  C   UNL     1      55.285  -1.625  17.561  0.00  0.00    +0.000 C 
ATOM     14  C   UNL     1      55.122  -0.695  16.370  0.00  0.00    +0.000 C 
ATOM     15  C   UNL     1      55.208   0.688  17.002  0.00  0.00    +0.000 C 
BRANCH  14  16
ATOM     16  O   UNL     1      53.858  -0.896  15.750  0.00  0.00    +0.000 OA
ATOM     17  H   UNL     1      53.178  -0.497  16.332  0.00  0.00    +0.000 HD
ENDBRANCH  14  16
ENDBRANCH   9  11
ENDBRANCH   8   9
ENDBRANCH   5   8
ENDBRANCH   1   2
BRANCH   1  20
ATOM     18  O   UNL     1      47.249   3.125  14.112  0.00  0.00    +0.000 OA
ATOM     19  C   UNL     1      47.107   4.293  14.463  0.00  0.00    +0.000 C 
ATOM     20  N   UNL     1      47.115   4.674  15.778  0.00  0.00    +0.000 N 
ATOM     21  H   UNL     1      46.828   5.614  16.028  0.00  0.00    +0.000 HD
BRANCH  19  22
ATOM     22  C   UNL     1      46.979   5.375  13.477  0.00  0.00    +0.000 A 
ATOM     23  C   UNL     1      45.977   5.319  12.517  0.00  0.00    +0.000 A 
ATOM     24  S   UNL     1      45.978   6.650  11.450  0.00  0.00    +0.000 S 
ATOM     25  C   UNL     1      47.291   7.367  12.258  0.00  0.00    +0.000 A 
ATOM     26  N   UNL     1      47.784   8.573  11.863  0.00  0.00    +0.000 NA
ATOM     27  C   UNL     1      48.756   9.019  12.585  0.00  0.00    +0.000 A 
ATOM     28  N   UNL     1      49.288   8.362  13.663  0.00  0.00    +0.000 N 
ATOM     29  C   UNL     1      48.879   7.107  14.045  0.00  0.00    +0.000 A 
ATOM     30  O   UNL     1      49.484   6.486  14.917  0.00  0.00    +0.000 OA
ATOM     31  C   UNL     1      47.747   6.585  13.305  0.00  0.00    +0.000 A 
ATOM     32  H   UNL     1      50.075   8.743  14.165  0.00  0.00    +0.000 HD
ENDBRANCH  19  22
ENDBRANCH   1  20
TORSDOF 7
ENDMDL
MODEL 6
REMARK VINA RESULT:    -6.904      3.145      4.718
REMARK INTER + INTRA:         -10.496
REMARK INTER:                  -9.308
REMARK INTRA:                  -1.188
REMARK UNBOUND:                -0.968
REMARK  Name = 
REMARK  7 active torsions:
REMARK  status: ('A' for Active; 'I' for Inactive)
REMARK    1  A    between atoms: C_2  and  C_19
REMARK    2  A    between atoms: N_3  and  C_4
REMARK    3  A    between atoms: C_4  and  C_5
REMARK    4  A    between atoms: C_8  and  C_9
REMARK    5  A    between atoms: C_9  and  N_10
REMARK    6  A    between atoms: N_10  and  C_11
REMARK    7  A    between atoms: C_14  and  O_15
REMARK                            x       y       z     vdW  Elec       q    Type
REMARK                         _______ _______ _______ _____ _____    ______ ____
ROOT
ATOM      1  C   UNL     1      48.187   8.046  12.137  0.00  0.00    +0.000 C 
ENDROOT
BRANCH   1   2
ATOM      2  C   UNL     1      48.859   7.661  13.430  0.00  0.00    +0.000 A 
ATOM      3  C   UNL     1      48.156   6.940  14.400  0.00  0.00    +0.000 A 
ATOM      4  C   UNL     1      48.784   6.540  15.584  0.00  0.00    +0.000 A 
ATOM      5  C   UNL     1      50.127   6.860  15.827  0.00  0.00    +0.000 A 
ATOM      6  C   UNL     1      50.818   7.620  14.872  0.00  0.00    +0.000 A 
ATOM      7  C   UNL     1      50.189   8.023  13.689  0.00  0.00    +0.000 A 
BRANCH   5   8
ATOM      8  C   UNL     1      50.806   6.423  17.108  0.00  0.00    +0.000 C 
BRANCH   8   9
ATOM      9  N   UNL     1      51.280   5.033  17.018  0.00  0.00    +0.000 NA
ATOM     10  H   UNL     1      52.300   5.075  16.952  0.00  0.00    +0.000 HD
BRANCH   9  11
ATOM     11  C   UNL     1      50.925   4.228  18.199  0.00  0.00    +0.000 C 
ATOM     12  C   UNL     1      49.612   4.674  18.874  0.00  0.00    +0.000 C 
ATOM     13  C   UNL     1      48.579   3.574  18.621  0.00  0.00    +0.000 C 
ATOM     14  C   UNL     1      49.149   2.752  17.477  0.00  0.00    +0.000 C 
ATOM     15  C   UNL     1      50.647   2.780  17.751  0.00  0.00    +0.000 C 
BRANCH  14  16
ATOM     16  O   UNL     1      48.847   3.360  16.226  0.00  0.00    +0.000 OA
ATOM     17  H   UNL     1      49.141   2.746  15.523  0.00  0.00    +0.000 HD
ENDBRANCH  14  16
ENDBRANCH   9  11
ENDBRANCH   8   9
ENDBRANCH   5   8
ENDBRANCH   1   2
BRANCH   1  20
ATOM     18  O   UNL     1      45.398   7.844  11.794  0.00  0.00    +0.000 OA
ATOM     19  C   UNL     1      46.116   6.933  11.391  0.00  0.00    +0.000 C 
ATOM     20  N   UNL     1      47.476   6.941  11.550  0.00  0.00    +0.000 N 
ATOM     21  H   UNL     1      48.040   6.257  11.058  0.00  0.00    +0.000 HD
BRANCH  19  22
ATOM     22  C   UNL     1      45.545   5.735  10.760  0.00  0.00    +0.000 A 
ATOM     23  C   UNL     1      45.767   5.494   9.410  0.00  0.00    +0.000 A 
ATOM     24  S   UNL     1      45.029   4.067   8.840  0.00  0.00    +0.000 S 
ATOM     25  C   UNL     1      44.419   3.699  10.385  0.00  0.00    +0.000 A 
ATOM     26  N   UNL     1      43.702   2.564  10.604  0.00  0.00    +0.000 NA
ATOM     27  C   UNL     1      43.332   2.390  11.828  0.00  0.00    +0.000 A 
ATOM     28  N   UNL     1      43.605   3.257  12.853  0.00  0.00    +0.000 N 
ATOM     29  C   UNL     1      44.251   4.455  12.662  0.00  0.00    +0.000 A 
ATOM     30  O   UNL     1      44.340   5.274  13.574  0.00  0.00    +0.000 OA
ATOM     31  C   UNL     1      44.743   4.671  11.316  0.00  0.00    +0.000 A 
ATOM     32  H   UNL     1      43.254   3.087  13.783  0.00  0.00    +0.000 HD
ENDBRANCH  19  22
ENDBRANCH   1  20
TORSDOF 7
ENDMDL
MODEL 7
REMARK VINA RESULT:    -6.689      6.757      7.525
REMARK INTER + INTRA:         -10.199
REMARK INTER:                  -9.245
REMARK INTRA:                  -0.953
REMARK UNBOUND:                -0.968
REMARK  Name = 
REMARK  7 active torsions:
REMARK  status: ('A' for Active; 'I' for Inactive)
REMARK    1  A    between atoms: C_2  and  C_19
REMARK    2  A    between atoms: N_3  and  C_4
REMARK    3  A    between atoms: C_4  and  C_5
REMARK    4  A    between atoms: C_8  and  C_9
REMARK    5  A    between atoms: C_9  and  N_10
REMARK    6  A    between atoms: N_10  and  C_11
REMARK    7  A    between atoms: C_14  and  O_15
REMARK                            x       y       z     vdW  Elec       q    Type
REMARK                         _______ _______ _______ _____ _____    ______ ____
ROOT
ATOM      1  C   UNL     1      46.147   8.223  12.146  0.00  0.00    +0.000 C 
ENDROOT
BRANCH   1   2
ATOM      2  C   UNL     1      47.636   8.430  12.036  0.00  0.00    +0.000 A 
ATOM      3  C   UNL     1      48.504   7.335  12.089  0.00  0.00    +0.000 A 
ATOM      4  C   UNL     1      49.883   7.514  11.943  0.00  0.00    +0.000 A 
ATOM      5  C   UNL     1      50.425   8.792  11.749  0.00  0.00    +0.000 A 
ATOM      6  C   UNL     1      49.557   9.893  11.737  0.00  0.00    +0.000 A 
ATOM      7  C   UNL     1      48.177   9.715  11.887  0.00  0.00    +0.000 A 
BRANCH   5   8
ATOM      8  C   UNL     1      51.919   8.982  11.587  0.00  0.00    +0.000 C 
BRANCH   8   9
ATOM      9  N   UNL     1      52.580   7.728  11.192  0.00  0.00    +0.000 NA
ATOM     10  H   UNL     1      51.847   7.017  11.130  0.00  0.00    +0.000 HD
BRANCH   9  11
ATOM     11  C   UNL     1      53.249   7.819   9.883  0.00  0.00    +0.000 C 
ATOM     12  C   UNL     1      54.788   7.759   9.974  0.00  0.00    +0.000 C 
ATOM     13  C   UNL     1      55.223   6.420   9.375  0.00  0.00    +0.000 C 
ATOM     14  C   UNL     1      53.963   5.569   9.353  0.00  0.00    +0.000 C 
ATOM     15  C   UNL     1      52.871   6.584   9.042  0.00  0.00    +0.000 C 
BRANCH  14  16
ATOM     16  O   UNL     1      53.750   4.962  10.622  0.00  0.00    +0.000 OA
ATOM     17  H   UNL     1      53.013   4.324  10.522  0.00  0.00    +0.000 HD
ENDBRANCH  14  16
ENDBRANCH   9  11
ENDBRANCH   8   9
ENDBRANCH   5   8
ENDBRANCH   1   2
BRANCH   1  20
ATOM     18  O   UNL     1      43.616   7.323  11.295  0.00  0.00    +0.000 OA
ATOM     19  C   UNL     1      44.524   6.508  11.432  0.00  0.00    +0.000 C 
ATOM     20  N   UNL     1      45.772   6.860  11.874  0.00  0.00    +0.000 N 
ATOM     21  H   UNL     1      46.531   6.192  11.811  0.00  0.00    +0.000 HD
BRANCH  19  22
ATOM     22  C   UNL     1      44.306   5.076  11.185  0.00  0.00    +0.000 A 
ATOM     23  C   UNL     1      43.522   4.336  12.061  0.00  0.00    +0.000 A 
ATOM     24  S   UNL     1      43.380   2.692  11.630  0.00  0.00    +0.000 S 
ATOM     25  C   UNL     1      44.328   2.919  10.236  0.00  0.00    +0.000 A 
ATOM     26  N   UNL     1      44.575   1.889   9.381  0.00  0.00    +0.000 NA
ATOM     27  C   UNL     1      45.277   2.208   8.346  0.00  0.00    +0.000 A 
ATOM     28  N   UNL     1      45.763   3.463   8.093  0.00  0.00    +0.000 N 
ATOM     29  C   UNL     1      45.611   4.510   8.970  0.00  0.00    +0.000 A 
ATOM     30  O   UNL     1      46.193   5.577   8.783  0.00  0.00    +0.000 OA
ATOM     31  C   UNL     1      44.778   4.223  10.120  0.00  0.00    +0.000 A 
ATOM     32  H   UNL     1      46.340   3.642   7.285  0.00  0.00    +0.000 HD
ENDBRANCH  19  22
ENDBRANCH   1  20
TORSDOF 7
ENDMDL
MODEL 8
REMARK VINA RESULT:    -6.612      4.118      8.999
REMARK INTER + INTRA:         -10.093
REMARK INTER:                  -8.363
REMARK INTRA:                  -1.730
REMARK UNBOUND:                -0.968
REMARK  Name = 
REMARK  7 active torsions:
REMARK  status: ('A' for Active; 'I' for Inactive)
REMARK    1  A    between atoms: C_2  and  C_19
REMARK    2  A    between atoms: N_3  and  C_4
REMARK    3  A    between atoms: C_4  and  C_5
REMARK    4  A    between atoms: C_8  and  C_9
REMARK    5  A    between atoms: C_9  and  N_10
REMARK    6  A    between atoms: N_10  and  C_11
REMARK    7  A    between atoms: C_14  and  O_15
REMARK                            x       y       z     vdW  Elec       q    Type
REMARK                         _______ _______ _______ _____ _____    ______ ____
ROOT
ATOM      1  C   UNL     1      49.305   8.061  13.883  0.00  0.00    +0.000 C 
ENDROOT
BRANCH   1   2
ATOM      2  C   UNL     1      48.016   7.878  13.123  0.00  0.00    +0.000 A 
ATOM      3  C   UNL     1      47.953   6.980  12.052  0.00  0.00    +0.000 A 
ATOM      4  C   UNL     1      46.750   6.771  11.370  0.00  0.00    +0.000 A 
ATOM      5  C   UNL     1      45.586   7.461  11.738  0.00  0.00    +0.000 A 
ATOM      6  C   UNL     1      45.662   8.391  12.785  0.00  0.00    +0.000 A 
ATOM      7  C   UNL     1      46.866   8.603  13.466  0.00  0.00    +0.000 A 
BRANCH   5   8
ATOM      8  C   UNL     1      44.285   7.230  10.999  0.00  0.00    +0.000 C 
BRANCH   8   9
ATOM      9  N   UNL     1      43.394   6.331  11.750  0.00  0.00    +0.000 NA
ATOM     10  H   UNL     1      42.509   6.830  11.873  0.00  0.00    +0.000 HD
BRANCH   9  11
ATOM     11  C   UNL     1      43.118   5.070  11.038  0.00  0.00    +0.000 C 
ATOM     12  C   UNL     1      44.264   4.631  10.103  0.00  0.00    +0.000 C 
ATOM     13  C   UNL     1      44.899   3.385  10.724  0.00  0.00    +0.000 C 
ATOM     14  C   UNL     1      44.428   3.380  12.168  0.00  0.00    +0.000 C 
ATOM     15  C   UNL     1      43.011   3.929  12.068  0.00  0.00    +0.000 C 
BRANCH  14  16
ATOM     16  O   UNL     1      45.249   4.227  12.964  0.00  0.00    +0.000 OA
ATOM     17  H   UNL     1      44.663   4.697  13.593  0.00  0.00    +0.000 HD
ENDBRANCH  14  16
ENDBRANCH   9  11
ENDBRANCH   8   9
ENDBRANCH   5   8
ENDBRANCH   1   2
BRANCH   1  20
ATOM     18  O   UNL     1      48.554   8.528  16.558  0.00  0.00    +0.000 OA
ATOM     19  C   UNL     1      49.002   7.428  16.248  0.00  0.00    +0.000 C 
ATOM     20  N   UNL     1      49.420   7.133  14.978  0.00  0.00    +0.000 N 
ATOM     21  H   UNL     1      49.623   6.172  14.728  0.00  0.00    +0.000 HD
BRANCH  19  22
ATOM     22  C   UNL     1      49.176   6.366  17.248  0.00  0.00    +0.000 A 
ATOM     23  C   UNL     1      50.029   6.565  18.326  0.00  0.00    +0.000 A 
ATOM     24  S   UNL     1      50.118   5.231  19.384  0.00  0.00    +0.000 S 
ATOM     25  C   UNL     1      48.990   4.354  18.462  0.00  0.00    +0.000 A 
ATOM     26  N   UNL     1      48.587   3.111  18.843  0.00  0.00    +0.000 NA
ATOM     27  C   UNL     1      47.701   2.574  18.073  0.00  0.00    +0.000 A 
ATOM     28  N   UNL     1      47.187   3.165  16.950  0.00  0.00    +0.000 N 
ATOM     29  C   UNL     1      47.627   4.380  16.481  0.00  0.00    +0.000 A 
ATOM     30  O   UNL     1      47.256   4.805  15.388  0.00  0.00    +0.000 OA
ATOM     31  C   UNL     1      48.578   5.055  17.342  0.00  0.00    +0.000 A 
ATOM     32  H   UNL     1      46.525   2.678  16.365  0.00  0.00    +0.000 HD
ENDBRANCH  19  22
ENDBRANCH   1  20
TORSDOF 7
ENDMDL
MODEL 9
REMARK VINA RESULT:    -6.606      3.978      5.606
REMARK INTER + INTRA:         -10.085
REMARK INTER:                  -8.786
REMARK INTRA:                  -1.299
REMARK UNBOUND:                -0.968
REMARK  Name = 
REMARK  7 active torsions:
REMARK  status: ('A' for Active; 'I' for Inactive)
REMARK    1  A    between atoms: C_2  and  C_19
REMARK    2  A    between atoms: N_3  and  C_4
REMARK    3  A    between atoms: C_4  and  C_5
REMARK    4  A    between atoms: C_8  and  C_9
REMARK    5  A    between atoms: C_9  and  N_10
REMARK    6  A    between atoms: N_10  and  C_11
REMARK    7  A    between atoms: C_14  and  O_15
REMARK                            x       y       z     vdW  Elec       q    Type
REMARK                         _______ _______ _______ _____ _____    ______ ____
ROOT
ATOM      1  C   UNL     1      47.489   7.864  11.974  0.00  0.00    +0.000 C 
ENDROOT
BRANCH   1   2
ATOM      2  C   UNL     1      48.100   7.926  13.350  0.00  0.00    +0.000 A 
ATOM      3  C   UNL     1      47.723   8.934  14.242  0.00  0.00    +0.000 A 
ATOM      4  C   UNL     1      48.252   8.974  15.536  0.00  0.00    +0.000 A 
ATOM      5  C   UNL     1      49.176   8.010  15.963  0.00  0.00    +0.000 A 
ATOM      6  C   UNL     1      49.585   7.024  15.053  0.00  0.00    +0.000 A 
ATOM      7  C   UNL     1      49.058   6.986  13.757  0.00  0.00    +0.000 A 
BRANCH   5   8
ATOM      8  C   UNL     1      49.745   8.053  17.366  0.00  0.00    +0.000 C 
BRANCH   8   9
ATOM      9  N   UNL     1      50.189   6.722  17.807  0.00  0.00    +0.000 NA
ATOM     10  H   UNL     1      51.118   6.844  18.219  0.00  0.00    +0.000 HD
BRANCH   9  11
ATOM     11  C   UNL     1      49.305   6.129  18.826  0.00  0.00    +0.000 C 
ATOM     12  C   UNL     1      47.819   6.108  18.410  0.00  0.00    +0.000 C 
ATOM     13  C   UNL     1      47.440   4.646  18.167  0.00  0.00    +0.000 C 
ATOM     14  C   UNL     1      48.764   3.915  18.016  0.00  0.00    +0.000 C 
ATOM     15  C   UNL     1      49.670   4.642  19.000  0.00  0.00    +0.000 C 
BRANCH  14  16
ATOM     16  O   UNL     1      49.252   4.037  16.686  0.00  0.00    +0.000 OA
ATOM     17  H   UNL     1      48.886   3.290  16.169  0.00  0.00    +0.000 HD
ENDBRANCH  14  16
ENDBRANCH   9  11
ENDBRANCH   8   9
ENDBRANCH   5   8
ENDBRANCH   1   2
BRANCH   1  20
ATOM     18  O   UNL     1      44.713   7.426  12.177  0.00  0.00    +0.000 OA
ATOM     19  C   UNL     1      45.439   6.497  11.835  0.00  0.00    +0.000 C 
ATOM     20  N   UNL     1      46.801   6.620  11.746  0.00  0.00    +0.000 N 
ATOM     21  H   UNL     1      47.341   5.886  11.302  0.00  0.00    +0.000 HD
BRANCH  19  22
ATOM     22  C   UNL     1      44.891   5.163  11.558  0.00  0.00    +0.000 A 
ATOM     23  C   UNL     1      44.187   4.487  12.545  0.00  0.00    +0.000 A 
ATOM     24  S   UNL     1      43.628   2.951  12.058  0.00  0.00    +0.000 S 
ATOM     25  C   UNL     1      44.273   3.151  10.497  0.00  0.00    +0.000 A 
ATOM     26  N   UNL     1      44.117   2.191   9.545  0.00  0.00    +0.000 NA
ATOM     27  C   UNL     1      44.624   2.487   8.396  0.00  0.00    +0.000 A 
ATOM     28  N   UNL     1      45.284   3.653   8.114  0.00  0.00    +0.000 N 
ATOM     29  C   UNL     1      45.540   4.611   9.066  0.00  0.00    +0.000 A 
ATOM     30  O   UNL     1      46.268   5.570   8.815  0.00  0.00    +0.000 OA
ATOM     31  C   UNL     1      44.938   4.357  10.360  0.00  0.00    +0.000 A 
ATOM     32  H   UNL     1      45.694   3.811   7.207  0.00  0.00    +0.000 HD
ENDBRANCH  19  22
ENDBRANCH   1  20
TORSDOF 7
ENDMDL
