MODEL 1
REMARK VINA RESULT:    -7.512      0.000      0.000
REMARK INTER + INTRA:         -12.573
REMARK INTER:                 -11.464
REMARK INTRA:                  -1.109
REMARK UNBOUND:                -1.109
REMARK  Name = 
REMARK  10 active torsions:
REMARK  status: ('A' for Active; 'I' for Inactive)
REMARK    1  A    between atoms: C_1  and  C_2
REMARK    2  A    between atoms: C_2  and  C_3
REMARK    3  A    between atoms: C_3  and  N_4
REMARK    4  A    between atoms: C_3  and  C_20
REMARK    5  A    between atoms: N_4  and  C_5
REMARK    6  A    between atoms: C_5  and  C_6
REMARK    7  A    between atoms: C_9  and  C_10
REMARK    8  A    between atoms: C_10  and  O_11
REMARK    9  A    between atoms: O_11  and  C_12
REMARK   10  A    between atoms: C_12  and  C_13
REMARK                            x       y       z     vdW  Elec       q    Type
REMARK                         _______ _______ _______ _____ _____    ______ ____
ROOT
ATOM      1  N   UNL     1      48.997   5.104  15.780  0.00  0.00    +0.000 NA
ATOM      2  H   UNL     1      48.712   4.252  15.302  0.00  0.00    +0.000 HD
ENDROOT
BRANCH   1   3
ATOM      3  C   UNL     1      48.781   4.939  17.224  0.00  0.00    +0.000 C 
BRANCH   3   4
ATOM      4  C   UNL     1      50.086   4.483  17.865  0.00  0.00    +0.000 A 
ATOM      5  C   UNL     1      50.862   5.268  18.707  0.00  0.00    +0.000 A 
ATOM      6  S   UNL     1      52.306   4.517  19.209  0.00  0.00    +0.000 S 
ATOM      7  C   UNL     1      51.933   3.105  18.343  0.00  0.00    +0.000 A 
ATOM      8  N   UNL     1      52.779   2.038  18.356  0.00  0.00    +0.000 NA
ATOM      9  C   UNL     1      52.378   1.041  17.641  0.00  0.00    +0.000 A 
ATOM     10  N   UNL     1      51.216   1.010  16.916  0.00  0.00    +0.000 N 
ATOM     11  C   UNL     1      50.308   2.050  16.892  0.00  0.00    +0.000 A 
ATOM     12  O   UNL     1      49.246   1.952  16.287  0.00  0.00    +0.000 OA
ATOM     13  C   UNL     1      50.723   3.199  17.672  0.00  0.00    +0.000 A 
ATOM     14  H   UNL     1      50.952   0.190  16.393  0.00  0.00    +0.000 HD
ENDBRANCH   3   4
BRANCH   3  16
ATOM     15  C   UNL     1      47.135   5.837  19.014  0.00  0.00    +0.000 C 
ATOM     16  C   UNL     1      48.168   6.164  17.945  0.00  0.00    +0.000 C 
ENDBRANCH   3  16
ENDBRANCH   1   3
BRANCH   1  17
ATOM     17  C   UNL     1      48.319   6.249  15.181  0.00  0.00    +0.000 C 
BRANCH  17  18
ATOM     18  C   UNL     1      47.397   5.850  14.054  0.00  0.00    +0.000 A 
ATOM     19  C   UNL     1      47.287   6.623  12.893  0.00  0.00    +0.000 A 
ATOM     20  C   UNL     1      46.446   6.219  11.855  0.00  0.00    +0.000 A 
ATOM     21  C   UNL     1      45.708   5.031  11.954  0.00  0.00    +0.000 A 
ATOM     22  C   UNL     1      45.838   4.244  13.104  0.00  0.00    +0.000 A 
ATOM     23  C   UNL     1      46.670   4.652  14.144  0.00  0.00    +0.000 A 
BRANCH  21  24
ATOM     24  C   UNL     1      44.773   4.618  10.851  0.00  0.00    +0.000 C 
BRANCH  24  25
ATOM     25  O   UNL     1      45.446   4.782   9.610  0.00  0.00    +0.000 OA
BRANCH  25  26
ATOM     26  C   UNL     1      44.772   4.093   8.562  0.00  0.00    +0.000 C 
BRANCH  26  27
ATOM     27  C   UNL     1      45.774   3.200   7.925  0.00  0.00    +0.000 A 
ATOM     28  C   UNL     1      46.685   3.429   6.910  0.00  0.00    +0.000 A 
ATOM     29  C   UNL     1      47.394   2.226   6.692  0.00  0.00    +0.000 A 
ATOM     30  C   UNL     1      46.904   1.292   7.576  0.00  0.00    +0.000 A 
ATOM     31  N   UNL     1      45.923   1.890   8.316  0.00  0.00    +0.000 N 
ATOM     32  H   UNL     1      45.369   1.462   9.050  0.00  0.00    +0.000 HD
ENDBRANCH  26  27
ENDBRANCH  25  26
ENDBRANCH  24  25
ENDBRANCH  21  24
ENDBRANCH  17  18
ENDBRANCH   1  17
TORSDOF 9
ENDMDL
MODEL 2
REMARK VINA RESULT:    -7.108      1.719      2.216
REMARK INTER + INTRA:         -11.957
REMARK INTER:                 -10.805
REMARK INTRA:                  -1.152
REMARK UNBOUND:                -1.109
REMARK  Name = 
REMARK  10 active torsions:
REMARK  status: ('A' for Active; 'I' for Inactive)
REMARK    1  A    between atoms: C_1  and  C_2
REMARK    2  A    between atoms: C_2  and  C_3
REMARK    3  A    between atoms: C_3  and  N_4
REMARK    4  A    between atoms: C_3  and  C_20
REMARK    5  A    between atoms: N_4  and  C_5
REMARK    6  A    between atoms: C_5  and  C_6
REMARK    7  A    between atoms: C_9  and  C_10
REMARK    8  A    between atoms: C_10  and  O_11
REMARK    9  A    between atoms: O_11  and  C_12
REMARK   10  A    between atoms: C_12  and  C_13
REMARK                            x       y       z     vdW  Elec       q    Type
REMARK                         _______ _______ _______ _____ _____    ______ ____
ROOT
ATOM      1  N   UNL     1      48.602   6.066  14.988  0.00  0.00    +0.000 NA
ATOM      2  H   UNL     1      47.838   5.495  15.344  0.00  0.00    +0.000 HD
ENDROOT
BRANCH   1   3
ATOM      3  C   UNL     1      49.076   6.955  16.057  0.00  0.00    +0.000 C 
BRANCH   3   4
ATOM      4  C   UNL     1      50.492   6.545  16.443  0.00  0.00    +0.000 A 
ATOM      5  C   UNL     1      51.627   7.298  16.175  0.00  0.00    +0.000 A 
ATOM      6  S   UNL     1      53.079   6.549  16.655  0.00  0.00    +0.000 S 
ATOM      7  C   UNL     1      52.243   5.202  17.264  0.00  0.00    +0.000 A 
ATOM      8  N   UNL     1      52.916   4.166  17.835  0.00  0.00    +0.000 NA
ATOM      9  C   UNL     1      52.156   3.203  18.237  0.00  0.00    +0.000 A 
ATOM     10  N   UNL     1      50.791   3.179  18.122  0.00  0.00    +0.000 N 
ATOM     11  C   UNL     1      50.056   4.214  17.580  0.00  0.00    +0.000 A 
ATOM     12  O   UNL     1      48.830   4.182  17.563  0.00  0.00    +0.000 OA
ATOM     13  C   UNL     1      50.870   5.314  17.102  0.00  0.00    +0.000 A 
ATOM     14  H   UNL     1      50.254   2.402  18.476  0.00  0.00    +0.000 HD
ENDBRANCH   3   4
BRANCH   3  16
ATOM     15  C   UNL     1      48.135   9.267  16.755  0.00  0.00    +0.000 C 
ATOM     16  C   UNL     1      48.963   8.469  15.758  0.00  0.00    +0.000 C 
ENDBRANCH   3  16
ENDBRANCH   1   3
BRANCH   1  17
ATOM     17  C   UNL     1      48.176   6.742  13.767  0.00  0.00    +0.000 C 
BRANCH  17  18
ATOM     18  C   UNL     1      47.092   5.987  13.036  0.00  0.00    +0.000 A 
ATOM     19  C   UNL     1      46.477   4.864  13.602  0.00  0.00    +0.000 A 
ATOM     20  C   UNL     1      45.460   4.199  12.915  0.00  0.00    +0.000 A 
ATOM     21  C   UNL     1      45.032   4.649  11.658  0.00  0.00    +0.000 A 
ATOM     22  C   UNL     1      45.629   5.787  11.105  0.00  0.00    +0.000 A 
ATOM     23  C   UNL     1      46.651   6.446  11.785  0.00  0.00    +0.000 A 
BRANCH  21  24
ATOM     24  C   UNL     1      43.963   3.908  10.905  0.00  0.00    +0.000 C 
BRANCH  24  25
ATOM     25  O   UNL     1      44.372   3.789   9.549  0.00  0.00    +0.000 OA
BRANCH  25  26
ATOM     26  C   UNL     1      44.556   2.426   9.182  0.00  0.00    +0.000 C 
BRANCH  26  27
ATOM     27  C   UNL     1      45.698   2.391   8.232  0.00  0.00    +0.000 A 
ATOM     28  C   UNL     1      46.234   3.369   7.414  0.00  0.00    +0.000 A 
ATOM     29  C   UNL     1      47.316   2.792   6.710  0.00  0.00    +0.000 A 
ATOM     30  C   UNL     1      47.418   1.480   7.112  0.00  0.00    +0.000 A 
ATOM     31  N   UNL     1      46.433   1.246   8.031  0.00  0.00    +0.000 N 
ATOM     32  H   UNL     1      46.245   0.372   8.511  0.00  0.00    +0.000 HD
ENDBRANCH  26  27
ENDBRANCH  25  26
ENDBRANCH  24  25
ENDBRANCH  21  24
ENDBRANCH  17  18
ENDBRANCH   1  17
TORSDOF 9
ENDMDL
MODEL 3
REMARK VINA RESULT:    -7.086      2.194      3.246
REMARK INTER + INTRA:         -11.923
REMARK INTER:                 -10.828
REMARK INTRA:                  -1.095
REMARK UNBOUND:                -1.109
REMARK  Name = 
REMARK  10 active torsions:
REMARK  status: ('A' for Active; 'I' for Inactive)
REMARK    1  A    between atoms: C_1  and  C_2
REMARK    2  A    between atoms: C_2  and  C_3
REMARK    3  A    between atoms: C_3  and  N_4
REMARK    4  A    between atoms: C_3  and  C_20
REMARK    5  A    between atoms: N_4  and  C_5
REMARK    6  A    between atoms: C_5  and  C_6
REMARK    7  A    between atoms: C_9  and  C_10
REMARK    8  A    between atoms: C_10  and  O_11
REMARK    9  A    between atoms: O_11  and  C_12
REMARK   10  A    between atoms: C_12  and  C_13
REMARK                            x       y       z     vdW  Elec       q    Type
REMARK                         _______ _______ _______ _____ _____    ______ ____
ROOT
ATOM      1  N   UNL     1      48.590   6.241  14.858  0.00  0.00    +0.000 NA
ATOM      2  H   UNL     1      47.666   6.109  15.263  0.00  0.00    +0.000 HD
ENDROOT
BRANCH   1   3
ATOM      3  C   UNL     1      49.317   7.253  15.636  0.00  0.00    +0.000 C 
BRANCH   3   4
ATOM      4  C   UNL     1      48.807   7.225  17.072  0.00  0.00    +0.000 A 
ATOM      5  C   UNL     1      48.243   8.313  17.725  0.00  0.00    +0.000 A 
ATOM      6  S   UNL     1      47.837   8.004  19.349  0.00  0.00    +0.000 S 
ATOM      7  C   UNL     1      48.373   6.398  19.232  0.00  0.00    +0.000 A 
ATOM      8  N   UNL     1      48.297   5.560  20.303  0.00  0.00    +0.000 NA
ATOM      9  C   UNL     1      48.755   4.375  20.076  0.00  0.00    +0.000 A 
ATOM     10  N   UNL     1      49.281   3.950  18.885  0.00  0.00    +0.000 N 
ATOM     11  C   UNL     1      49.354   4.747  17.760  0.00  0.00    +0.000 A 
ATOM     12  O   UNL     1      49.767   4.303  16.693  0.00  0.00    +0.000 OA
ATOM     13  C   UNL     1      48.861   6.094  17.971  0.00  0.00    +0.000 A 
ATOM     14  H   UNL     1      49.605   3.002  18.769  0.00  0.00    +0.000 HD
ENDBRANCH   3   4
BRANCH   3  16
ATOM     15  C   UNL     1      51.528   8.235  14.707  0.00  0.00    +0.000 C 
ATOM     16  C   UNL     1      50.860   7.165  15.558  0.00  0.00    +0.000 C 
ENDBRANCH   3  16
ENDBRANCH   1   3
BRANCH   1  17
ATOM     17  C   UNL     1      48.460   6.533  13.434  0.00  0.00    +0.000 C 
BRANCH  17  18
ATOM     18  C   UNL     1      47.188   5.976  12.843  0.00  0.00    +0.000 A 
ATOM     19  C   UNL     1      46.448   4.989  13.504  0.00  0.00    +0.000 A 
ATOM     20  C   UNL     1      45.262   4.508  12.947  0.00  0.00    +0.000 A 
ATOM     21  C   UNL     1      44.789   5.011  11.727  0.00  0.00    +0.000 A 
ATOM     22  C   UNL     1      45.515   6.016  11.080  0.00  0.00    +0.000 A 
ATOM     23  C   UNL     1      46.704   6.490  11.630  0.00  0.00    +0.000 A 
BRANCH  21  24
ATOM     24  C   UNL     1      43.531   4.463  11.112  0.00  0.00    +0.000 C 
BRANCH  24  25
ATOM     25  O   UNL     1      43.830   4.033   9.791  0.00  0.00    +0.000 OA
BRANCH  25  26
ATOM     26  C   UNL     1      44.424   2.740   9.789  0.00  0.00    +0.000 C 
BRANCH  26  27
ATOM     27  C   UNL     1      45.424   2.731   8.691  0.00  0.00    +0.000 A 
ATOM     28  C   UNL     1      45.876   3.740   7.861  0.00  0.00    +0.000 A 
ATOM     29  C   UNL     1      46.834   3.178   6.985  0.00  0.00    +0.000 A 
ATOM     30  C   UNL     1      46.946   1.843   7.298  0.00  0.00    +0.000 A 
ATOM     31  N   UNL     1      46.088   1.581   8.330  0.00  0.00    +0.000 N 
ATOM     32  H   UNL     1      45.938   0.686   8.783  0.00  0.00    +0.000 HD
ENDBRANCH  26  27
ENDBRANCH  25  26
ENDBRANCH  24  25
ENDBRANCH  21  24
ENDBRANCH  17  18
ENDBRANCH   1  17
TORSDOF 9
ENDMDL
MODEL 4
REMARK VINA RESULT:    -6.979      2.862      3.870
REMARK INTER + INTRA:         -11.760
REMARK INTER:                 -10.722
REMARK INTRA:                  -1.037
REMARK UNBOUND:                -1.109
REMARK  Name = 
REMARK  10 active torsions:
REMARK  status: ('A' for Active; 'I' for Inactive)
REMARK    1  A    between atoms: C_1  and  C_2
REMARK    2  A    between atoms: C_2  and  C_3
REMARK    3  A    between atoms: C_3  and  N_4
REMARK    4  A    between atoms: C_3  and  C_20
REMARK    5  A    between atoms: N_4  and  C_5
REMARK    6  A    between atoms: C_5  and  C_6
REMARK    7  A    between atoms: C_9  and  C_10
REMARK    8  A    between atoms: C_10  and  O_11
REMARK    9  A    between atoms: O_11  and  C_12
REMARK   10  A    between atoms: C_12  and  C_13
REMARK                            x       y       z     vdW  Elec       q    Type
REMARK                         _______ _______ _______ _____ _____    ______ ____
ROOT
ATOM      1  N   UNL     1      48.594   6.190  14.459  0.00  0.00    +0.000 NA
ATOM      2  H   UNL     1      48.103   5.356  14.775  0.00  0.00    +0.000 HD
ENDROOT
BRANCH   1   3
ATOM      3  C   UNL     1      49.140   6.897  15.625  0.00  0.00    +0.000 C 
BRANCH   3   4
ATOM      4  C   UNL     1      48.835   6.085  16.878  0.00  0.00    +0.000 A 
ATOM      5  C   UNL     1      48.905   4.700  16.950  0.00  0.00    +0.000 A 
ATOM      6  S   UNL     1      48.432   4.067  18.459  0.00  0.00    +0.000 S 
ATOM      7  C   UNL     1      48.145   5.621  19.079  0.00  0.00    +0.000 A 
ATOM      8  N   UNL     1      47.713   5.789  20.359  0.00  0.00    +0.000 NA
ATOM      9  C   UNL     1      47.519   7.021  20.691  0.00  0.00    +0.000 A 
ATOM     10  N   UNL     1      47.715   8.098  19.866  0.00  0.00    +0.000 N 
ATOM     11  C   UNL     1      48.180   7.987  18.571  0.00  0.00    +0.000 A 
ATOM     12  O   UNL     1      48.410   8.982  17.892  0.00  0.00    +0.000 OA
ATOM     13  C   UNL     1      48.400   6.617  18.150  0.00  0.00    +0.000 A 
ATOM     14  H   UNL     1      47.563   9.038  20.196  0.00  0.00    +0.000 HD
ENDBRANCH   3   4
BRANCH   3  16
ATOM     15  C   UNL     1      50.935   8.493  14.649  0.00  0.00    +0.000 C 
ATOM     16  C   UNL     1      50.636   7.284  15.524  0.00  0.00    +0.000 C 
ENDBRANCH   3  16
ENDBRANCH   1   3
BRANCH   1  17
ATOM     17  C   UNL     1      47.710   6.985  13.613  0.00  0.00    +0.000 C 
BRANCH  17  18
ATOM     18  C   UNL     1      46.700   6.138  12.876  0.00  0.00    +0.000 A 
ATOM     19  C   UNL     1      46.404   6.366  11.527  0.00  0.00    +0.000 A 
ATOM     20  C   UNL     1      45.484   5.553  10.863  0.00  0.00    +0.000 A 
ATOM     21  C   UNL     1      44.853   4.494  11.529  0.00  0.00    +0.000 A 
ATOM     22  C   UNL     1      45.170   4.250  12.870  0.00  0.00    +0.000 A 
ATOM     23  C   UNL     1      46.080   5.067  13.537  0.00  0.00    +0.000 A 
BRANCH  21  24
ATOM     24  C   UNL     1      43.834   3.644  10.821  0.00  0.00    +0.000 C 
BRANCH  24  25
ATOM     25  O   UNL     1      44.223   3.521   9.460  0.00  0.00    +0.000 OA
BRANCH  25  26
ATOM     26  C   UNL     1      44.595   2.183   9.147  0.00  0.00    +0.000 C 
BRANCH  26  27
ATOM     27  C   UNL     1      45.731   2.268   8.194  0.00  0.00    +0.000 A 
ATOM     28  C   UNL     1      46.170   3.303   7.389  0.00  0.00    +0.000 A 
ATOM     29  C   UNL     1      47.299   2.840   6.674  0.00  0.00    +0.000 A 
ATOM     30  C   UNL     1      47.525   1.538   7.057  0.00  0.00    +0.000 A 
ATOM     31  N   UNL     1      46.570   1.200   7.975  0.00  0.00    +0.000 N 
ATOM     32  H   UNL     1      46.466   0.306   8.444  0.00  0.00    +0.000 HD
ENDBRANCH  26  27
ENDBRANCH  25  26
ENDBRANCH  24  25
ENDBRANCH  21  24
ENDBRANCH  17  18
ENDBRANCH   1  17
TORSDOF 9
ENDMDL
MODEL 5
REMARK VINA RESULT:    -6.636      1.968      2.486
REMARK INTER + INTRA:         -11.236
REMARK INTER:                 -10.335
REMARK INTRA:                  -0.901
REMARK UNBOUND:                -1.109
REMARK  Name = 
REMARK  10 active torsions:
REMARK  status: ('A' for Active; 'I' for Inactive)
REMARK    1  A    between atoms: C_1  and  C_2
REMARK    2  A    between atoms: C_2  and  C_3
REMARK    3  A    between atoms: C_3  and  N_4
REMARK    4  A    between atoms: C_3  and  C_20
REMARK    5  A    between atoms: N_4  and  C_5
REMARK    6  A    between atoms: C_5  and  C_6
REMARK    7  A    between atoms: C_9  and  C_10
REMARK    8  A    between atoms: C_10  and  O_11
REMARK    9  A    between atoms: O_11  and  C_12
REMARK   10  A    between atoms: C_12  and  C_13
REMARK                            x       y       z     vdW  Elec       q    Type
REMARK                         _______ _______ _______ _____ _____    ______ ____
ROOT
ATOM      1  N   UNL     1      49.307   6.829  14.522  0.00  0.00    +0.000 NA
ATOM      2  H   UNL     1      49.347   5.823  14.377  0.00  0.00    +0.000 HD
ENDROOT
BRANCH   1   3
ATOM      3  C   UNL     1      48.826   7.101  15.883  0.00  0.00    +0.000 C 
BRANCH   3   4
ATOM      4  C   UNL     1      49.220   5.935  16.783  0.00  0.00    +0.000 A 
ATOM      5  C   UNL     1      48.316   5.128  17.460  0.00  0.00    +0.000 A 
ATOM      6  S   UNL     1      49.051   3.954  18.451  0.00  0.00    +0.000 S 
ATOM      7  C   UNL     1      50.604   4.463  17.989  0.00  0.00    +0.000 A 
ATOM      8  N   UNL     1      51.712   3.850  18.487  0.00  0.00    +0.000 NA
ATOM      9  C   UNL     1      52.825   4.350  18.064  0.00  0.00    +0.000 A 
ATOM     10  N   UNL     1      52.933   5.403  17.193  0.00  0.00    +0.000 N 
ATOM     11  C   UNL     1      51.843   6.040  16.635  0.00  0.00    +0.000 A 
ATOM     12  O   UNL     1      51.986   6.931  15.804  0.00  0.00    +0.000 OA
ATOM     13  C   UNL     1      50.570   5.519  17.092  0.00  0.00    +0.000 A 
ATOM     14  H   UNL     1      53.834   5.732  16.887  0.00  0.00    +0.000 HD
ENDBRANCH   3   4
BRANCH   3  16
ATOM     15  C   UNL     1      48.100   9.400  16.832  0.00  0.00    +0.000 C 
ATOM     16  C   UNL     1      49.248   8.468  16.473  0.00  0.00    +0.000 C 
ENDBRANCH   3  16
ENDBRANCH   1   3
BRANCH   1  17
ATOM     17  C   UNL     1      48.522   7.444  13.456  0.00  0.00    +0.000 C 
BRANCH  17  18
ATOM     18  C   UNL     1      47.453   6.523  12.920  0.00  0.00    +0.000 A 
ATOM     19  C   UNL     1      46.835   6.761  11.687  0.00  0.00    +0.000 A 
ATOM     20  C   UNL     1      45.867   5.880  11.204  0.00  0.00    +0.000 A 
ATOM     21  C   UNL     1      45.506   4.741  11.937  0.00  0.00    +0.000 A 
ATOM     22  C   UNL     1      46.143   4.489  13.157  0.00  0.00    +0.000 A 
ATOM     23  C   UNL     1      47.102   5.373  13.645  0.00  0.00    +0.000 A 
BRANCH  21  24
ATOM     24  C   UNL     1      44.435   3.815  11.431  0.00  0.00    +0.000 C 
BRANCH  24  25
ATOM     25  O   UNL     1      45.037   2.870  10.557  0.00  0.00    +0.000 OA
BRANCH  25  26
ATOM     26  C   UNL     1      44.509   2.975   9.240  0.00  0.00    +0.000 C 
BRANCH  26  27
ATOM     27  C   UNL     1      45.624   2.666   8.307  0.00  0.00    +0.000 A 
ATOM     28  C   UNL     1      46.306   3.463   7.407  0.00  0.00    +0.000 A 
ATOM     29  C   UNL     1      47.277   2.656   6.770  0.00  0.00    +0.000 A 
ATOM     30  C   UNL     1      47.168   1.388   7.294  0.00  0.00    +0.000 A 
ATOM     31  N   UNL     1      46.164   1.404   8.222  0.00  0.00    +0.000 N 
ATOM     32  H   UNL     1      45.840   0.622   8.781  0.00  0.00    +0.000 HD
ENDBRANCH  26  27
ENDBRANCH  25  26
ENDBRANCH  24  25
ENDBRANCH  21  24
ENDBRANCH  17  18
ENDBRANCH   1  17
TORSDOF 9
ENDMDL
MODEL 6
REMARK VINA RESULT:    -6.634      3.013      8.621
REMARK INTER + INTRA:         -11.234
REMARK INTER:                  -9.589
REMARK INTRA:                  -1.645
REMARK UNBOUND:                -1.109
REMARK  Name = 
REMARK  10 active torsions:
REMARK  status: ('A' for Active; 'I' for Inactive)
REMARK    1  A    between atoms: C_1  and  C_2
REMARK    2  A    between atoms: C_2  and  C_3
REMARK    3  A    between atoms: C_3  and  N_4
REMARK    4  A    between atoms: C_3  and  C_20
REMARK    5  A    between atoms: N_4  and  C_5
REMARK    6  A    between atoms: C_5  and  C_6
REMARK    7  A    between atoms: C_9  and  C_10
REMARK    8  A    between atoms: C_10  and  O_11
REMARK    9  A    between atoms: O_11  and  C_12
REMARK   10  A    between atoms: C_12  and  C_13
REMARK                            x       y       z     vdW  Elec       q    Type
REMARK                         _______ _______ _______ _____ _____    ______ ____
ROOT
ATOM      1  N   UNL     1      47.291   6.797  11.584  0.00  0.00    +0.000 NA
ATOM      2  H   UNL     1      47.640   6.449  10.694  0.00  0.00    +0.000 HD
ENDROOT
BRANCH   1   3
ATOM      3  C   UNL     1      45.876   7.162  11.436  0.00  0.00    +0.000 C 
BRANCH   3   4
ATOM      4  C   UNL     1      45.025   5.914  11.636  0.00  0.00    +0.000 A 
ATOM      5  C   UNL     1      44.279   5.649  12.777  0.00  0.00    +0.000 A 
ATOM      6  S   UNL     1      43.491   4.140  12.746  0.00  0.00    +0.000 S 
ATOM      7  C   UNL     1      44.095   3.798  11.197  0.00  0.00    +0.000 A 
ATOM      8  N   UNL     1      43.783   2.629  10.573  0.00  0.00    +0.000 NA
ATOM      9  C   UNL     1      44.324   2.494   9.408  0.00  0.00    +0.000 A 
ATOM     10  N   UNL     1      45.146   3.415   8.812  0.00  0.00    +0.000 N 
ATOM     11  C   UNL     1      45.470   4.628   9.387  0.00  0.00    +0.000 A 
ATOM     12  O   UNL     1      46.150   5.453   8.786  0.00  0.00    +0.000 OA
ATOM     13  C   UNL     1      44.893   4.818  10.703  0.00  0.00    +0.000 A 
ATOM     14  H   UNL     1      45.521   3.255   7.890  0.00  0.00    +0.000 HD
ENDBRANCH   3   4
BRANCH   3  16
ATOM     15  C   UNL     1      44.579   9.401  11.592  0.00  0.00    +0.000 C 
ATOM     16  C   UNL     1      45.403   8.345  12.315  0.00  0.00    +0.000 C 
ENDBRANCH   3  16
ENDBRANCH   1   3
BRANCH   1  17
ATOM     17  C   UNL     1      48.159   7.869  12.062  0.00  0.00    +0.000 C 
BRANCH  17  18
ATOM     18  C   UNL     1      48.862   7.513  13.350  0.00  0.00    +0.000 A 
ATOM     19  C   UNL     1      50.166   7.947  13.613  0.00  0.00    +0.000 A 
ATOM     20  C   UNL     1      50.784   7.624  14.822  0.00  0.00    +0.000 A 
ATOM     21  C   UNL     1      50.107   6.873  15.793  0.00  0.00    +0.000 A 
ATOM     22  C   UNL     1      48.794   6.461  15.541  0.00  0.00    +0.000 A 
ATOM     23  C   UNL     1      48.180   6.774  14.330  0.00  0.00    +0.000 A 
BRANCH  21  24
ATOM     24  C   UNL     1      50.790   6.494  17.078  0.00  0.00    +0.000 C 
BRANCH  24  25
ATOM     25  O   UNL     1      51.319   5.183  16.935  0.00  0.00    +0.000 OA
BRANCH  25  26
ATOM     26  C   UNL     1      50.986   4.366  18.052  0.00  0.00    +0.000 C 
BRANCH  26  27
ATOM     27  C   UNL     1      49.670   3.745  17.749  0.00  0.00    +0.000 A 
ATOM     28  C   UNL     1      48.407   3.995  18.253  0.00  0.00    +0.000 A 
ATOM     29  C   UNL     1      47.509   3.106  17.617  0.00  0.00    +0.000 A 
ATOM     30  C   UNL     1      48.241   2.336  16.741  0.00  0.00    +0.000 A 
ATOM     31  N   UNL     1      49.548   2.729  16.830  0.00  0.00    +0.000 N 
ATOM     32  H   UNL     1      50.333   2.350  16.312  0.00  0.00    +0.000 HD
ENDBRANCH  26  27
ENDBRANCH  25  26
ENDBRANCH  24  25
ENDBRANCH  21  24
ENDBRANCH  17  18
ENDBRANCH   1  17
TORSDOF 9
ENDMDL
MODEL 7
REMARK VINA RESULT:    -6.414      3.242      9.290
REMARK INTER + INTRA:         -10.898
REMARK INTER:                  -9.456
REMARK INTRA:                  -1.443
REMARK UNBOUND:                -1.109
REMARK  Name = 
REMARK  10 active torsions:
REMARK  status: ('A' for Active; 'I' for Inactive)
REMARK    1  A    between atoms: C_1  and  C_2
REMARK    2  A    between atoms: C_2  and  C_3
REMARK    3  A    between atoms: C_3  and  N_4
REMARK    4  A    between atoms: C_3  and  C_20
REMARK    5  A    between atoms: N_4  and  C_5
REMARK    6  A    between atoms: C_5  and  C_6
REMARK    7  A    between atoms: C_9  and  C_10
REMARK    8  A    between atoms: C_10  and  O_11
REMARK    9  A    between atoms: O_11  and  C_12
REMARK   10  A    between atoms: C_12  and  C_13
REMARK                            x       y       z     vdW  Elec       q    Type
REMARK                         _______ _______ _______ _____ _____    ______ ____
ROOT
ATOM      1  N   UNL     1      46.379   7.466  12.647  0.00  0.00    +0.000 NA
ATOM      2  H   UNL     1      45.844   7.371  13.507  0.00  0.00    +0.000 HD
ENDROOT
BRANCH   1   3
ATOM      3  C   UNL     1      45.476   7.309  11.499  0.00  0.00    +0.000 C 
BRANCH   3   4
ATOM      4  C   UNL     1      44.727   5.990  11.642  0.00  0.00    +0.000 A 
ATOM      5  C   UNL     1      43.924   5.658  12.725  0.00  0.00    +0.000 A 
ATOM      6  S   UNL     1      43.279   4.084  12.645  0.00  0.00    +0.000 S 
ATOM      7  C   UNL     1      44.026   3.798  11.147  0.00  0.00    +0.000 A 
ATOM      8  N   UNL     1      43.869   2.606  10.509  0.00  0.00    +0.000 NA
ATOM      9  C   UNL     1      44.506   2.522   9.389  0.00  0.00    +0.000 A 
ATOM     10  N   UNL     1      45.285   3.512   8.851  0.00  0.00    +0.000 N 
ATOM     11  C   UNL     1      45.455   4.749   9.441  0.00  0.00    +0.000 A 
ATOM     12  O   UNL     1      46.102   5.632   8.888  0.00  0.00    +0.000 OA
ATOM     13  C   UNL     1      44.765   4.886  10.709  0.00  0.00    +0.000 A 
ATOM     14  H   UNL     1      45.742   3.388   7.961  0.00  0.00    +0.000 HD
ENDBRANCH   3   4
BRANCH   3  16
ATOM     15  C   UNL     1      44.871   9.783  11.981  0.00  0.00    +0.000 C 
ATOM     16  C   UNL     1      44.524   8.501  11.238  0.00  0.00    +0.000 C 
ENDBRANCH   3  16
ENDBRANCH   1   3
BRANCH   1  17
ATOM     17  C   UNL     1      47.511   6.546  12.672  0.00  0.00    +0.000 C 
BRANCH  17  18
ATOM     18  C   UNL     1      47.701   5.899  14.023  0.00  0.00    +0.000 A 
ATOM     19  C   UNL     1      48.498   6.491  15.010  0.00  0.00    +0.000 A 
ATOM     20  C   UNL     1      48.637   5.884  16.259  0.00  0.00    +0.000 A 
ATOM     21  C   UNL     1      47.973   4.684  16.549  0.00  0.00    +0.000 A 
ATOM     22  C   UNL     1      47.155   4.107  15.572  0.00  0.00    +0.000 A 
ATOM     23  C   UNL     1      47.024   4.706  14.321  0.00  0.00    +0.000 A 
BRANCH  21  24
ATOM     24  C   UNL     1      48.156   4.013  17.882  0.00  0.00    +0.000 C 
BRANCH  24  25
ATOM     25  O   UNL     1      48.006   4.993  18.900  0.00  0.00    +0.000 OA
BRANCH  25  26
ATOM     26  C   UNL     1      48.774   4.663  20.053  0.00  0.00    +0.000 C 
BRANCH  26  27
ATOM     27  C   UNL     1      50.159   5.133  19.792  0.00  0.00    +0.000 A 
ATOM     28  C   UNL     1      50.646   6.373  19.423  0.00  0.00    +0.000 A 
ATOM     29  C   UNL     1      52.051   6.264  19.306  0.00  0.00    +0.000 A 
ATOM     30  C   UNL     1      52.390   4.964  19.606  0.00  0.00    +0.000 A 
ATOM     31  N   UNL     1      51.239   4.288  19.897  0.00  0.00    +0.000 N 
ATOM     32  H   UNL     1      51.157   3.310  20.155  0.00  0.00    +0.000 HD
ENDBRANCH  26  27
ENDBRANCH  25  26
ENDBRANCH  24  25
ENDBRANCH  21  24
ENDBRANCH  17  18
ENDBRANCH   1  17
TORSDOF 9
ENDMDL
MODEL 8
REMARK VINA RESULT:    -6.361      3.965      8.439
REMARK INTER + INTRA:         -10.816
REMARK INTER:                  -9.277
REMARK INTRA:                  -1.539
REMARK UNBOUND:                -1.109
REMARK  Name = 
REMARK  10 active torsions:
REMARK  status: ('A' for Active; 'I' for Inactive)
REMARK    1  A    between atoms: C_1  and  C_2
REMARK    2  A    between atoms: C_2  and  C_3
REMARK    3  A    between atoms: C_3  and  N_4
REMARK    4  A    between atoms: C_3  and  C_20
REMARK    5  A    between atoms: N_4  and  C_5
REMARK    6  A    between atoms: C_5  and  C_6
REMARK    7  A    between atoms: C_9  and  C_10
REMARK    8  A    between atoms: C_10  and  O_11
REMARK    9  A    between atoms: O_11  and  C_12
REMARK   10  A    between atoms: C_12  and  C_13
REMARK                            x       y       z     vdW  Elec       q    Type
REMARK                         _______ _______ _______ _____ _____    ______ ____
ROOT
ATOM      1  N   UNL     1      47.244   8.418  14.136  0.00  0.00    +0.000 NA
ATOM      2  H   UNL     1      46.479   8.368  14.806  0.00  0.00    +0.000 HD
ENDROOT
BRANCH   1   3
ATOM      3  C   UNL     1      47.483   7.080  13.579  0.00  0.00    +0.000 C 
BRANCH   3   4
ATOM      4  C   UNL     1      46.246   6.644  12.804  0.00  0.00    +0.000 A 
ATOM      5  C   UNL     1      45.370   7.515  12.170  0.00  0.00    +0.000 A 
ATOM      6  S   UNL     1      44.034   6.743  11.449  0.00  0.00    +0.000 S 
ATOM      7  C   UNL     1      44.591   5.214  11.933  0.00  0.00    +0.000 A 
ATOM      8  N   UNL     1      43.891   4.089  11.621  0.00  0.00    +0.000 NA
ATOM      9  C   UNL     1      44.421   3.000  12.066  0.00  0.00    +0.000 A 
ATOM     10  N   UNL     1      45.580   2.929  12.794  0.00  0.00    +0.000 N 
ATOM     11  C   UNL     1      46.345   4.034  13.111  0.00  0.00    +0.000 A 
ATOM     12  O   UNL     1      47.414   3.918  13.702  0.00  0.00    +0.000 OA
ATOM     13  C   UNL     1      45.781   5.284  12.641  0.00  0.00    +0.000 A 
ATOM     14  H   UNL     1      45.951   2.042  13.095  0.00  0.00    +0.000 HD
ENDBRANCH   3   4
BRANCH   3  16
ATOM     15  C   UNL     1      48.832   7.759  11.473  0.00  0.00    +0.000 C 
ATOM     16  C   UNL     1      48.781   6.931  12.749  0.00  0.00    +0.000 C 
ENDBRANCH   3  16
ENDBRANCH   1   3
BRANCH   1  17
ATOM     17  C   UNL     1      48.404   9.042  14.764  0.00  0.00    +0.000 C 
BRANCH  17  18
ATOM     18  C   UNL     1      48.681   8.490  16.142  0.00  0.00    +0.000 A 
ATOM     19  C   UNL     1      47.919   8.879  17.250  0.00  0.00    +0.000 A 
ATOM     20  C   UNL     1      48.180   8.336  18.509  0.00  0.00    +0.000 A 
ATOM     21  C   UNL     1      49.198   7.387  18.681  0.00  0.00    +0.000 A 
ATOM     22  C   UNL     1      49.941   6.979  17.569  0.00  0.00    +0.000 A 
ATOM     23  C   UNL     1      49.688   7.528  16.314  0.00  0.00    +0.000 A 
BRANCH  21  24
ATOM     24  C   UNL     1      49.502   6.833  20.045  0.00  0.00    +0.000 C 
BRANCH  24  25
ATOM     25  O   UNL     1      48.493   5.890  20.380  0.00  0.00    +0.000 OA
BRANCH  25  26
ATOM     26  C   UNL     1      48.984   4.556  20.296  0.00  0.00    +0.000 C 
BRANCH  26  27
ATOM     27  C   UNL     1      48.530   4.016  18.989  0.00  0.00    +0.000 A 
ATOM     28  C   UNL     1      49.154   3.178  18.083  0.00  0.00    +0.000 A 
ATOM     29  C   UNL     1      48.268   2.986  16.997  0.00  0.00    +0.000 A 
ATOM     30  C   UNL     1      47.127   3.707  17.263  0.00  0.00    +0.000 A 
ATOM     31  N   UNL     1      47.295   4.328  18.469  0.00  0.00    +0.000 N 
ATOM     32  H   UNL     1      46.632   4.935  18.938  0.00  0.00    +0.000 HD
ENDBRANCH  26  27
ENDBRANCH  25  26
ENDBRANCH  24  25
ENDBRANCH  21  24
ENDBRANCH  17  18
ENDBRANCH   1  17
TORSDOF 9
ENDMDL
MODEL 9
REMARK VINA RESULT:    -6.253      4.261      4.976
REMARK INTER + INTRA:         -10.651
REMARK INTER:                  -9.386
REMARK INTRA:                  -1.266
REMARK UNBOUND:                -1.109
REMARK  Name = 
REMARK  10 active torsions:
REMARK  status: ('A' for Active; 'I' for Inactive)
REMARK    1  A    between atoms: C_1  and  C_2
REMARK    2  A    between atoms: C_2  and  C_3
REMARK    3  A    between atoms: C_3  and  N_4
REMARK    4  A    between atoms: C_3  and  C_20
REMARK    5  A    between atoms: N_4  and  C_5
REMARK    6  A    between atoms: C_5  and  C_6
REMARK    7  A    between atoms: C_9  and  C_10
REMARK    8  A    between atoms: C_10  and  O_11
REMARK    9  A    between atoms: O_11  and  C_12
REMARK   10  A    between atoms: C_12  and  C_13
REMARK                            x       y       z     vdW  Elec       q    Type
REMARK                         _______ _______ _______ _____ _____    ______ ____
ROOT
ATOM      1  N   UNL     1      48.725   7.340  13.190  0.00  0.00    +0.000 NA
ATOM      2  H   UNL     1      49.568   6.888  12.843  0.00  0.00    +0.000 HD
ENDROOT
BRANCH   1   3
ATOM      3  C   UNL     1      49.101   8.517  13.984  0.00  0.00    +0.000 C 
BRANCH   3   4
ATOM      4  C   UNL     1      50.608   8.492  14.212  0.00  0.00    +0.000 A 
ATOM      5  C   UNL     1      51.214   8.579  15.458  0.00  0.00    +0.000 A 
ATOM      6  S   UNL     1      52.915   8.603  15.395  0.00  0.00    +0.000 S 
ATOM      7  C   UNL     1      52.905   8.470  13.702  0.00  0.00    +0.000 A 
ATOM      8  N   UNL     1      54.072   8.429  13.002  0.00  0.00    +0.000 NA
ATOM      9  C   UNL     1      53.915   8.344  11.723  0.00  0.00    +0.000 A 
ATOM     10  N   UNL     1      52.705   8.297  11.081  0.00  0.00    +0.000 N 
ATOM     11  C   UNL     1      51.494   8.303  11.743  0.00  0.00    +0.000 A 
ATOM     12  O   UNL     1      50.436   8.186  11.133  0.00  0.00    +0.000 OA
ATOM     13  C   UNL     1      51.621   8.411  13.183  0.00  0.00    +0.000 A 
ATOM     14  H   UNL     1      52.653   8.210  10.078  0.00  0.00    +0.000 HD
ENDBRANCH   3   4
BRANCH   3  16
ATOM     15  C   UNL     1      47.552   9.786  12.339  0.00  0.00    +0.000 C 
ATOM     16  C   UNL     1      48.613   9.875  13.426  0.00  0.00    +0.000 C 
ENDBRANCH   3  16
ENDBRANCH   1   3
BRANCH   1  17
ATOM     17  C   UNL     1      47.900   6.361  13.890  0.00  0.00    +0.000 C 
BRANCH  17  18
ATOM     18  C   UNL     1      46.791   5.813  13.024  0.00  0.00    +0.000 A 
ATOM     19  C   UNL     1      46.599   6.265  11.713  0.00  0.00    +0.000 A 
ATOM     20  C   UNL     1      45.581   5.725  10.925  0.00  0.00    +0.000 A 
ATOM     21  C   UNL     1      44.746   4.718  11.428  0.00  0.00    +0.000 A 
ATOM     22  C   UNL     1      44.955   4.247  12.728  0.00  0.00    +0.000 A 
ATOM     23  C   UNL     1      45.964   4.793  13.519  0.00  0.00    +0.000 A 
BRANCH  21  24
ATOM     24  C   UNL     1      43.626   4.165  10.590  0.00  0.00    +0.000 C 
BRANCH  24  25
ATOM     25  O   UNL     1      44.161   3.768   9.335  0.00  0.00    +0.000 OA
BRANCH  25  26
ATOM     26  C   UNL     1      44.757   2.478   9.411  0.00  0.00    +0.000 C 
BRANCH  26  27
ATOM     27  C   UNL     1      45.772   2.412   8.328  0.00  0.00    +0.000 A 
ATOM     28  C   UNL     1      46.232   3.375   7.450  0.00  0.00    +0.000 A 
ATOM     29  C   UNL     1      47.203   2.770   6.620  0.00  0.00    +0.000 A 
ATOM     30  C   UNL     1      47.317   1.454   7.009  0.00  0.00    +0.000 A 
ATOM     31  N   UNL     1      46.446   1.247   8.042  0.00  0.00    +0.000 N 
ATOM     32  H   UNL     1      46.293   0.378   8.543  0.00  0.00    +0.000 HD
ENDBRANCH  26  27
ENDBRANCH  25  26
ENDBRANCH  24  25
ENDBRANCH  21  24
ENDBRANCH  17  18
ENDBRANCH   1  17
TORSDOF 9
ENDMDL
