MODEL 1
REMARK VINA RESULT:    -7.946      0.000      0.000
REMARK INTER + INTRA:         -12.360
REMARK INTER:                 -11.198
REMARK INTRA:                  -1.162
REMARK UNBOUND:                -1.162
REMARK  Name = 
REMARK  7 active torsions:
REMARK  status: ('A' for Active; 'I' for Inactive)
REMARK    1  A    between atoms: C_2  and  C_19
REMARK    2  A    between atoms: N_3  and  C_4
REMARK    3  A    between atoms: C_4  and  C_5
REMARK    4  A    between atoms: C_8  and  C_9
REMARK    5  A    between atoms: C_9  and  N_10
REMARK    6  A    between atoms: N_10  and  C_11
REMARK    7  A    between atoms: C_11  and  C_12
REMARK                            x       y       z     vdW  Elec       q    Type
REMARK                         _______ _______ _______ _____ _____    ______ ____
ROOT
ATOM      1  C   UNL     1      46.417   7.461  12.754  0.00  0.00    +0.000 C 
ENDROOT
BRANCH   1   2
ATOM      2  C   UNL     1      45.844   6.333  11.952  0.00  0.00    +0.000 A 
ATOM      3  C   UNL     1      44.994   5.382  12.521  0.00  0.00    +0.000 A 
ATOM      4  C   UNL     1      44.468   4.355  11.737  0.00  0.00    +0.000 A 
ATOM      5  C   UNL     1      44.808   4.300  10.390  0.00  0.00    +0.000 A 
ATOM      6  N   UNL     1      45.626   5.226   9.818  0.00  0.00    +0.000 NA
ATOM      7  C   UNL     1      46.114   6.211  10.599  0.00  0.00    +0.000 A 
BRANCH   5   8
ATOM      8  C   UNL     1      44.261   3.191   9.497  0.00  0.00    +0.000 C 
BRANCH   8   9
ATOM      9  N   UNL     1      45.211   2.081   9.404  0.00  0.00    +0.000 NA
ATOM     10  H   UNL     1      44.821   1.297   9.923  0.00  0.00    +0.000 HD
BRANCH   9  11
ATOM     11  C   UNL     1      45.603   1.719   8.055  0.00  0.00    +0.000 C 
BRANCH  11  12
ATOM     12  C   UNL     1      46.887   2.487   7.686  0.00  0.00    +0.000 C 
ATOM     13  C   UNL     1      46.645   3.502   6.574  0.00  0.00    +0.000 C 
ATOM     14  C   UNL     1      46.984   2.726   5.321  0.00  0.00    +0.000 C 
ATOM     15  N   UNL     1      48.176   1.965   5.699  0.00  0.00    +0.000 NA
ATOM     16  C   UNL     1      47.979   1.577   7.107  0.00  0.00    +0.000 C 
ATOM     17  H   UNL     1      48.984   2.587   5.654  0.00  0.00    +0.000 HD
ENDBRANCH  11  12
ENDBRANCH   9  11
ENDBRANCH   8   9
ENDBRANCH   5   8
ENDBRANCH   1   2
BRANCH   1  20
ATOM     18  O   UNL     1      49.085   6.676  13.200  0.00  0.00    +0.000 OA
ATOM     19  C   UNL     1      48.300   6.678  14.144  0.00  0.00    +0.000 C 
ATOM     20  N   UNL     1      46.977   7.004  14.001  0.00  0.00    +0.000 N 
ATOM     21  H   UNL     1      46.386   7.075  14.821  0.00  0.00    +0.000 HD
BRANCH  19  22
ATOM     22  C   UNL     1      48.725   6.294  15.495  0.00  0.00    +0.000 A 
ATOM     23  C   UNL     1      49.612   7.100  16.197  0.00  0.00    +0.000 A 
ATOM     24  S   UNL     1      49.991   6.504  17.749  0.00  0.00    +0.000 S 
ATOM     25  C   UNL     1      48.949   5.172  17.555  0.00  0.00    +0.000 A 
ATOM     26  N   UNL     1      48.782   4.262  18.551  0.00  0.00    +0.000 NA
ATOM     27  C   UNL     1      47.928   3.331  18.284  0.00  0.00    +0.000 A 
ATOM     28  N   UNL     1      47.233   3.219  17.108  0.00  0.00    +0.000 N 
ATOM     29  C   UNL     1      47.421   4.075  16.048  0.00  0.00    +0.000 A 
ATOM     30  O   UNL     1      46.867   3.882  14.970  0.00  0.00    +0.000 OA
ATOM     31  C   UNL     1      48.340   5.166  16.311  0.00  0.00    +0.000 A 
ATOM     32  H   UNL     1      46.598   2.451  16.954  0.00  0.00    +0.000 HD
ENDBRANCH  19  22
ENDBRANCH   1  20
TORSDOF 7
ENDMDL
MODEL 2
REMARK VINA RESULT:    -7.145      2.185      2.747
REMARK INTER + INTRA:         -11.231
REMARK INTER:                 -10.398
REMARK INTRA:                  -0.833
REMARK UNBOUND:                -1.162
REMARK  Name = 
REMARK  7 active torsions:
REMARK  status: ('A' for Active; 'I' for Inactive)
REMARK    1  A    between atoms: C_2  and  C_19
REMARK    2  A    between atoms: N_3  and  C_4
REMARK    3  A    between atoms: C_4  and  C_5
REMARK    4  A    between atoms: C_8  and  C_9
REMARK    5  A    between atoms: C_9  and  N_10
REMARK    6  A    between atoms: N_10  and  C_11
REMARK    7  A    between atoms: C_11  and  C_12
REMARK                            x       y       z     vdW  Elec       q    Type
REMARK                         _______ _______ _______ _____ _____    ______ ____
ROOT
ATOM      1  C   UNL     1      47.775   6.880  13.622  0.00  0.00    +0.000 C 
ENDROOT
BRANCH   1   2
ATOM      2  C   UNL     1      46.841   6.144  12.712  0.00  0.00    +0.000 A 
ATOM      3  C   UNL     1      46.605   6.565  11.401  0.00  0.00    +0.000 A 
ATOM      4  C   UNL     1      45.738   5.844  10.579  0.00  0.00    +0.000 A 
ATOM      5  C   UNL     1      45.120   4.709  11.092  0.00  0.00    +0.000 A 
ATOM      6  N   UNL     1      45.349   4.279  12.363  0.00  0.00    +0.000 NA
ATOM      7  C   UNL     1      46.197   4.992  13.132  0.00  0.00    +0.000 A 
BRANCH   5   8
ATOM      8  C   UNL     1      44.161   3.893  10.231  0.00  0.00    +0.000 C 
BRANCH   8   9
ATOM      9  N   UNL     1      44.171   4.369   8.847  0.00  0.00    +0.000 NA
ATOM     10  H   UNL     1      44.747   5.208   8.813  0.00  0.00    +0.000 HD
BRANCH   9  11
ATOM     11  C   UNL     1      44.565   3.381   7.860  0.00  0.00    +0.000 C 
BRANCH  11  12
ATOM     12  C   UNL     1      46.054   3.039   8.066  0.00  0.00    +0.000 C 
ATOM     13  C   UNL     1      46.924   3.566   6.931  0.00  0.00    +0.000 C 
ATOM     14  C   UNL     1      46.989   2.396   5.975  0.00  0.00    +0.000 C 
ATOM     15  N   UNL     1      47.142   1.238   6.859  0.00  0.00    +0.000 NA
ATOM     16  C   UNL     1      46.324   1.527   8.049  0.00  0.00    +0.000 C 
ATOM     17  H   UNL     1      48.117   1.182   7.153  0.00  0.00    +0.000 HD
ENDBRANCH  11  12
ENDBRANCH   9  11
ENDBRANCH   8   9
ENDBRANCH   5   8
ENDBRANCH   1   2
BRANCH   1  20
ATOM     18  O   UNL     1      49.883   7.030  15.484  0.00  0.00    +0.000 OA
ATOM     19  C   UNL     1      48.838   6.475  15.812  0.00  0.00    +0.000 C 
ATOM     20  N   UNL     1      47.784   6.322  14.950  0.00  0.00    +0.000 N 
ATOM     21  H   UNL     1      46.911   5.934  15.289  0.00  0.00    +0.000 HD
BRANCH  19  22
ATOM     22  C   UNL     1      48.662   5.902  17.151  0.00  0.00    +0.000 A 
ATOM     23  C   UNL     1      48.939   4.560  17.373  0.00  0.00    +0.000 A 
ATOM     24  S   UNL     1      48.684   4.068  18.986  0.00  0.00    +0.000 S 
ATOM     25  C   UNL     1      48.239   5.643  19.455  0.00  0.00    +0.000 A 
ATOM     26  N   UNL     1      47.919   5.925  20.746  0.00  0.00    +0.000 NA
ATOM     27  C   UNL     1      47.647   7.168  20.968  0.00  0.00    +0.000 A 
ATOM     28  N   UNL     1      47.654   8.153  20.015  0.00  0.00    +0.000 N 
ATOM     29  C   UNL     1      47.903   7.902  18.687  0.00  0.00    +0.000 A 
ATOM     30  O   UNL     1      47.792   8.786  17.842  0.00  0.00    +0.000 OA
ATOM     31  C   UNL     1      48.257   6.527  18.390  0.00  0.00    +0.000 A 
ATOM     32  H   UNL     1      47.405   9.102  20.252  0.00  0.00    +0.000 HD
ENDBRANCH  19  22
ENDBRANCH   1  20
TORSDOF 7
ENDMDL
MODEL 3
REMARK VINA RESULT:    -6.951      1.654      2.027
REMARK INTER + INTRA:         -10.957
REMARK INTER:                 -10.072
REMARK INTRA:                  -0.886
REMARK UNBOUND:                -1.162
REMARK  Name = 
REMARK  7 active torsions:
REMARK  status: ('A' for Active; 'I' for Inactive)
REMARK    1  A    between atoms: C_2  and  C_19
REMARK    2  A    between atoms: N_3  and  C_4
REMARK    3  A    between atoms: C_4  and  C_5
REMARK    4  A    between atoms: C_8  and  C_9
REMARK    5  A    between atoms: C_9  and  N_10
REMARK    6  A    between atoms: N_10  and  C_11
REMARK    7  A    between atoms: C_11  and  C_12
REMARK                            x       y       z     vdW  Elec       q    Type
REMARK                         _______ _______ _______ _____ _____    ______ ____
ROOT
ATOM      1  C   UNL     1      47.878   7.318  13.431  0.00  0.00    +0.000 C 
ENDROOT
BRANCH   1   2
ATOM      2  C   UNL     1      46.869   6.447  12.747  0.00  0.00    +0.000 A 
ATOM      3  C   UNL     1      46.158   6.885  11.627  0.00  0.00    +0.000 A 
ATOM      4  C   UNL     1      45.237   6.040  11.008  0.00  0.00    +0.000 A 
ATOM      5  C   UNL     1      45.045   4.764  11.529  0.00  0.00    +0.000 A 
ATOM      6  N   UNL     1      45.739   4.319  12.612  0.00  0.00    +0.000 NA
ATOM      7  C   UNL     1      46.627   5.156  13.185  0.00  0.00    +0.000 A 
BRANCH   5   8
ATOM      8  C   UNL     1      44.044   3.808  10.888  0.00  0.00    +0.000 C 
BRANCH   8   9
ATOM      9  N   UNL     1      44.126   3.870   9.428  0.00  0.00    +0.000 NA
ATOM     10  H   UNL     1      44.748   4.639   9.187  0.00  0.00    +0.000 HD
BRANCH   9  11
ATOM     11  C   UNL     1      44.500   2.627   8.780  0.00  0.00    +0.000 C 
BRANCH  11  12
ATOM     12  C   UNL     1      46.020   2.635   8.525  0.00  0.00    +0.000 C 
ATOM     13  C   UNL     1      46.425   3.713   7.526  0.00  0.00    +0.000 C 
ATOM     14  C   UNL     1      46.405   2.980   6.203  0.00  0.00    +0.000 C 
ATOM     15  N   UNL     1      46.997   1.679   6.521  0.00  0.00    +0.000 NA
ATOM     16  C   UNL     1      46.521   1.339   7.873  0.00  0.00    +0.000 C 
ATOM     17  H   UNL     1      48.010   1.786   6.562  0.00  0.00    +0.000 HD
ENDBRANCH  11  12
ENDBRANCH   9  11
ENDBRANCH   8   9
ENDBRANCH   5   8
ENDBRANCH   1   2
BRANCH   1  20
ATOM     18  O   UNL     1      50.025   6.777  15.173  0.00  0.00    +0.000 OA
ATOM     19  C   UNL     1      48.909   6.974  15.647  0.00  0.00    +0.000 C 
ATOM     20  N   UNL     1      47.806   7.199  14.865  0.00  0.00    +0.000 N 
ATOM     21  H   UNL     1      46.924   7.441  15.301  0.00  0.00    +0.000 HD
BRANCH  19  22
ATOM     22  C   UNL     1      48.676   6.945  17.095  0.00  0.00    +0.000 A 
ATOM     23  C   UNL     1      48.284   8.101  17.756  0.00  0.00    +0.000 A 
ATOM     24  S   UNL     1      48.055   7.883  19.432  0.00  0.00    +0.000 S 
ATOM     25  C   UNL     1      48.427   6.226  19.325  0.00  0.00    +0.000 A 
ATOM     26  N   UNL     1      48.387   5.426  20.425  0.00  0.00    +0.000 NA
ATOM     27  C   UNL     1      48.646   4.184  20.189  0.00  0.00    +0.000 A 
ATOM     28  N   UNL     1      48.953   3.668  18.956  0.00  0.00    +0.000 N 
ATOM     29  C   UNL     1      49.072   4.448  17.831  0.00  0.00    +0.000 A 
ATOM     30  O   UNL     1      49.458   3.973  16.767  0.00  0.00    +0.000 OA
ATOM     31  C   UNL     1      48.749   5.849  18.033  0.00  0.00    +0.000 A 
ATOM     32  H   UNL     1      49.172   2.689  18.847  0.00  0.00    +0.000 HD
ENDBRANCH  19  22
ENDBRANCH   1  20
TORSDOF 7
ENDMDL
MODEL 4
REMARK VINA RESULT:    -6.936      3.359      8.144
REMARK INTER + INTRA:         -10.937
REMARK INTER:                  -9.858
REMARK INTRA:                  -1.079
REMARK UNBOUND:                -1.162
REMARK  Name = 
REMARK  7 active torsions:
REMARK  status: ('A' for Active; 'I' for Inactive)
REMARK    1  A    between atoms: C_2  and  C_19
REMARK    2  A    between atoms: N_3  and  C_4
REMARK    3  A    between atoms: C_4  and  C_5
REMARK    4  A    between atoms: C_8  and  C_9
REMARK    5  A    between atoms: C_9  and  N_10
REMARK    6  A    between atoms: N_10  and  C_11
REMARK    7  A    between atoms: C_11  and  C_12
REMARK                            x       y       z     vdW  Elec       q    Type
REMARK                         _______ _______ _______ _____ _____    ______ ____
ROOT
ATOM      1  C   UNL     1      48.275   8.055  12.074  0.00  0.00    +0.000 C 
ENDROOT
BRANCH   1   2
ATOM      2  C   UNL     1      49.020   7.667  13.315  0.00  0.00    +0.000 A 
ATOM      3  C   UNL     1      50.241   8.254  13.655  0.00  0.00    +0.000 A 
ATOM      4  C   UNL     1      50.897   7.877  14.826  0.00  0.00    +0.000 A 
ATOM      5  C   UNL     1      50.313   6.910  15.638  0.00  0.00    +0.000 A 
ATOM      6  N   UNL     1      49.119   6.337  15.327  0.00  0.00    +0.000 NA
ATOM      7  C   UNL     1      48.504   6.727  14.191  0.00  0.00    +0.000 A 
BRANCH   5   8
ATOM      8  C   UNL     1      50.998   6.462  16.926  0.00  0.00    +0.000 C 
BRANCH   8   9
ATOM      9  N   UNL     1      50.045   5.804  17.820  0.00  0.00    +0.000 NA
ATOM     10  H   UNL     1      49.112   6.116  17.560  0.00  0.00    +0.000 HD
BRANCH   9  11
ATOM     11  C   UNL     1      50.155   4.359  17.879  0.00  0.00    +0.000 C 
BRANCH  11  12
ATOM     12  C   UNL     1      48.862   3.786  18.493  0.00  0.00    +0.000 C 
ATOM     13  C   UNL     1      48.034   3.020  17.469  0.00  0.00    +0.000 C 
ATOM     14  C   UNL     1      47.083   4.072  16.940  0.00  0.00    +0.000 C 
ATOM     15  N   UNL     1      46.697   4.820  18.138  0.00  0.00    +0.000 NA
ATOM     16  C   UNL     1      47.902   4.879  18.984  0.00  0.00    +0.000 C 
ATOM     17  H   UNL     1      45.987   4.284  18.639  0.00  0.00    +0.000 HD
ENDBRANCH  11  12
ENDBRANCH   9  11
ENDBRANCH   8   9
ENDBRANCH   5   8
ENDBRANCH   1   2
BRANCH   1  20
ATOM     18  O   UNL     1      45.476   7.899  11.807  0.00  0.00    +0.000 OA
ATOM     19  C   UNL     1      46.165   6.970  11.395  0.00  0.00    +0.000 C 
ATOM     20  N   UNL     1      47.529   6.950  11.527  0.00  0.00    +0.000 N 
ATOM     21  H   UNL     1      48.064   6.205  11.097  0.00  0.00    +0.000 HD
BRANCH  19  22
ATOM     22  C   UNL     1      45.564   5.793  10.758  0.00  0.00    +0.000 A 
ATOM     23  C   UNL     1      45.779   5.550   9.409  0.00  0.00    +0.000 A 
ATOM     24  S   UNL     1      45.009   4.138   8.839  0.00  0.00    +0.000 S 
ATOM     25  C   UNL     1      44.399   3.778  10.386  0.00  0.00    +0.000 A 
ATOM     26  N   UNL     1      43.659   2.658  10.605  0.00  0.00    +0.000 NA
ATOM     27  C   UNL     1      43.302   2.488  11.833  0.00  0.00    +0.000 A 
ATOM     28  N   UNL     1      43.606   3.340  12.863  0.00  0.00    +0.000 N 
ATOM     29  C   UNL     1      44.291   4.517  12.678  0.00  0.00    +0.000 A 
ATOM     30  O   UNL     1      44.450   5.311  13.600  0.00  0.00    +0.000 OA
ATOM     31  C   UNL     1      44.754   4.737  11.320  0.00  0.00    +0.000 A 
ATOM     32  H   UNL     1      43.272   3.160  13.798  0.00  0.00    +0.000 HD
ENDBRANCH  19  22
ENDBRANCH   1  20
TORSDOF 7
ENDMDL
MODEL 5
REMARK VINA RESULT:    -6.887      2.705      3.737
REMARK INTER + INTRA:         -10.867
REMARK INTER:                  -9.221
REMARK INTRA:                  -1.646
REMARK UNBOUND:                -1.162
REMARK  Name = 
REMARK  7 active torsions:
REMARK  status: ('A' for Active; 'I' for Inactive)
REMARK    1  A    between atoms: C_2  and  C_19
REMARK    2  A    between atoms: N_3  and  C_4
REMARK    3  A    between atoms: C_4  and  C_5
REMARK    4  A    between atoms: C_8  and  C_9
REMARK    5  A    between atoms: C_9  and  N_10
REMARK    6  A    between atoms: N_10  and  C_11
REMARK    7  A    between atoms: C_11  and  C_12
REMARK                            x       y       z     vdW  Elec       q    Type
REMARK                         _______ _______ _______ _____ _____    ______ ____
ROOT
ATOM      1  C   UNL     1      49.135   7.996  13.456  0.00  0.00    +0.000 C 
ENDROOT
BRANCH   1   2
ATOM      2  C   UNL     1      47.786   7.831  12.825  0.00  0.00    +0.000 A 
ATOM      3  C   UNL     1      47.521   6.813  11.906  0.00  0.00    +0.000 A 
ATOM      4  C   UNL     1      46.248   6.684  11.352  0.00  0.00    +0.000 A 
ATOM      5  C   UNL     1      45.259   7.585  11.732  0.00  0.00    +0.000 A 
ATOM      6  N   UNL     1      45.497   8.575  12.635  0.00  0.00    +0.000 NA
ATOM      7  C   UNL     1      46.736   8.671  13.159  0.00  0.00    +0.000 A 
BRANCH   5   8
ATOM      8  C   UNL     1      43.853   7.485  11.148  0.00  0.00    +0.000 C 
BRANCH   8   9
ATOM      9  N   UNL     1      43.540   6.103  10.779  0.00  0.00    +0.000 NA
ATOM     10  H   UNL     1      44.418   5.634  10.567  0.00  0.00    +0.000 HD
BRANCH   9  11
ATOM     11  C   UNL     1      42.738   5.376  11.744  0.00  0.00    +0.000 C 
BRANCH  11  12
ATOM     12  C   UNL     1      42.994   3.867  11.569  0.00  0.00    +0.000 C 
ATOM     13  C   UNL     1      43.745   3.273  12.754  0.00  0.00    +0.000 C 
ATOM     14  C   UNL     1      45.194   3.369  12.328  0.00  0.00    +0.000 C 
ATOM     15  N   UNL     1      45.161   2.994  10.913  0.00  0.00    +0.000 NA
ATOM     16  C   UNL     1      43.909   3.554  10.375  0.00  0.00    +0.000 C 
ATOM     17  H   UNL     1      45.104   1.977  10.849  0.00  0.00    +0.000 HD
ENDBRANCH  11  12
ENDBRANCH   9  11
ENDBRANCH   8   9
ENDBRANCH   5   8
ENDBRANCH   1   2
BRANCH   1  20
ATOM     18  O   UNL     1      48.660   8.575  16.171  0.00  0.00    +0.000 OA
ATOM     19  C   UNL     1      49.029   7.446  15.859  0.00  0.00    +0.000 C 
ATOM     20  N   UNL     1      49.323   7.098  14.567  0.00  0.00    +0.000 N 
ATOM     21  H   UNL     1      49.541   6.133  14.344  0.00  0.00    +0.000 HD
BRANCH  19  22
ATOM     22  C   UNL     1      49.214   6.396  16.866  0.00  0.00    +0.000 A 
ATOM     23  C   UNL     1      50.104   6.589  17.913  0.00  0.00    +0.000 A 
ATOM     24  S   UNL     1      50.188   5.268  18.990  0.00  0.00    +0.000 S 
ATOM     25  C   UNL     1      49.003   4.411  18.120  0.00  0.00    +0.000 A 
ATOM     26  N   UNL     1      48.578   3.187  18.534  0.00  0.00    +0.000 NA
ATOM     27  C   UNL     1      47.644   2.673  17.806  0.00  0.00    +0.000 A 
ATOM     28  N   UNL     1      47.102   3.266  16.694  0.00  0.00    +0.000 N 
ATOM     29  C   UNL     1      47.547   4.469  16.201  0.00  0.00    +0.000 A 
ATOM     30  O   UNL     1      47.118   4.918  15.142  0.00  0.00    +0.000 OA
ATOM     31  C   UNL     1      48.569   5.110  17.007  0.00  0.00    +0.000 A 
ATOM     32  H   UNL     1      46.391   2.797  16.155  0.00  0.00    +0.000 HD
ENDBRANCH  19  22
ENDBRANCH   1  20
TORSDOF 7
ENDMDL
MODEL 6
REMARK VINA RESULT:    -6.883      2.196      3.723
REMARK INTER + INTRA:         -10.863
REMARK INTER:                  -9.774
REMARK INTRA:                  -1.088
REMARK UNBOUND:                -1.162
REMARK  Name = 
REMARK  7 active torsions:
REMARK  status: ('A' for Active; 'I' for Inactive)
REMARK    1  A    between atoms: C_2  and  C_19
REMARK    2  A    between atoms: N_3  and  C_4
REMARK    3  A    between atoms: C_4  and  C_5
REMARK    4  A    between atoms: C_8  and  C_9
REMARK    5  A    between atoms: C_9  and  N_10
REMARK    6  A    between atoms: N_10  and  C_11
REMARK    7  A    between atoms: C_11  and  C_12
REMARK                            x       y       z     vdW  Elec       q    Type
REMARK                         _______ _______ _______ _____ _____    ______ ____
ROOT
ATOM      1  C   UNL     1      46.902   4.635  14.739  0.00  0.00    +0.000 C 
ENDROOT
BRANCH   1   2
ATOM      2  C   UNL     1      46.133   4.538  13.457  0.00  0.00    +0.000 A 
ATOM      3  C   UNL     1      45.849   3.307  12.860  0.00  0.00    +0.000 A 
ATOM      4  C   UNL     1      45.117   3.257  11.674  0.00  0.00    +0.000 A 
ATOM      5  C   UNL     1      44.683   4.450  11.105  0.00  0.00    +0.000 A 
ATOM      6  N   UNL     1      44.942   5.655  11.680  0.00  0.00    +0.000 NA
ATOM      7  C   UNL     1      45.646   5.672  12.831  0.00  0.00    +0.000 A 
BRANCH   5   8
ATOM      8  C   UNL     1      43.885   4.443   9.805  0.00  0.00    +0.000 C 
BRANCH   8   9
ATOM      9  N   UNL     1      44.763   4.660   8.654  0.00  0.00    +0.000 NA
ATOM     10  H   UNL     1      45.643   5.033   9.003  0.00  0.00    +0.000 HD
BRANCH   9  11
ATOM     11  C   UNL     1      44.949   3.504   7.797  0.00  0.00    +0.000 C 
BRANCH  11  12
ATOM     12  C   UNL     1      46.342   2.902   8.067  0.00  0.00    +0.000 C 
ATOM     13  C   UNL     1      47.348   3.283   6.987  0.00  0.00    +0.000 C 
ATOM     14  C   UNL     1      47.256   2.132   6.010  0.00  0.00    +0.000 C 
ATOM     15  N   UNL     1      47.159   0.954   6.874  0.00  0.00    +0.000 NA
ATOM     16  C   UNL     1      46.344   1.367   8.030  0.00  0.00    +0.000 C 
ATOM     17  H   UNL     1      48.093   0.724   7.214  0.00  0.00    +0.000 HD
ENDBRANCH  11  12
ENDBRANCH   9  11
ENDBRANCH   8   9
ENDBRANCH   5   8
ENDBRANCH   1   2
BRANCH   1  20
ATOM     18  O   UNL     1      49.108   5.185  16.402  0.00  0.00    +0.000 OA
ATOM     19  C   UNL     1      48.681   6.072  15.667  0.00  0.00    +0.000 C 
ATOM     20  N   UNL     1      47.586   5.897  14.862  0.00  0.00    +0.000 N 
ATOM     21  H   UNL     1      47.321   6.627  14.211  0.00  0.00    +0.000 HD
BRANCH  19  22
ATOM     22  C   UNL     1      49.302   7.400  15.629  0.00  0.00    +0.000 A 
ATOM     23  C   UNL     1      49.525   8.094  16.811  0.00  0.00    +0.000 A 
ATOM     24  S   UNL     1      50.258   9.617  16.579  0.00  0.00    +0.000 S 
ATOM     25  C   UNL     1      50.344   9.382  14.896  0.00  0.00    +0.000 A 
ATOM     26  N   UNL     1      50.904  10.320  14.085  0.00  0.00    +0.000 NA
ATOM     27  C   UNL     1      50.944   9.990  12.838  0.00  0.00    +0.000 A 
ATOM     28  N   UNL     1      50.464   8.813  12.323  0.00  0.00    +0.000 N 
ATOM     29  C   UNL     1      49.829   7.868  13.093  0.00  0.00    +0.000 A 
ATOM     30  O   UNL     1      49.313   6.878  12.584  0.00  0.00    +0.000 OA
ATOM     31  C   UNL     1      49.795   8.171  14.511  0.00  0.00    +0.000 A 
ATOM     32  H   UNL     1      50.503   8.630  11.332  0.00  0.00    +0.000 HD
ENDBRANCH  19  22
ENDBRANCH   1  20
TORSDOF 7
ENDMDL
MODEL 7
REMARK VINA RESULT:    -6.706      2.904      8.595
REMARK INTER + INTRA:         -10.613
REMARK INTER:                  -9.440
REMARK INTRA:                  -1.173
REMARK UNBOUND:                -1.162
REMARK  Name = 
REMARK  7 active torsions:
REMARK  status: ('A' for Active; 'I' for Inactive)
REMARK    1  A    between atoms: C_2  and  C_19
REMARK    2  A    between atoms: N_3  and  C_4
REMARK    3  A    between atoms: C_4  and  C_5
REMARK    4  A    between atoms: C_8  and  C_9
REMARK    5  A    between atoms: C_9  and  N_10
REMARK    6  A    between atoms: N_10  and  C_11
REMARK    7  A    between atoms: C_11  and  C_12
REMARK                            x       y       z     vdW  Elec       q    Type
REMARK                         _______ _______ _______ _____ _____    ______ ____
ROOT
ATOM      1  C   UNL     1      47.405   7.831  11.968  0.00  0.00    +0.000 C 
ENDROOT
BRANCH   1   2
ATOM      2  C   UNL     1      48.130   7.871  13.278  0.00  0.00    +0.000 A 
ATOM      3  C   UNL     1      48.318   9.064  13.980  0.00  0.00    +0.000 A 
ATOM      4  C   UNL     1      48.986   9.058  15.205  0.00  0.00    +0.000 A 
ATOM      5  C   UNL     1      49.457   7.848  15.703  0.00  0.00    +0.000 A 
ATOM      6  N   UNL     1      49.272   6.676  15.037  0.00  0.00    +0.000 NA
ATOM      7  C   UNL     1      48.617   6.712  13.859  0.00  0.00    +0.000 A 
BRANCH   5   8
ATOM      8  C   UNL     1      50.198   7.795  17.036  0.00  0.00    +0.000 C 
BRANCH   8   9
ATOM      9  N   UNL     1      49.469   6.975  18.005  0.00  0.00    +0.000 NA
ATOM     10  H   UNL     1      48.507   6.900  17.683  0.00  0.00    +0.000 HD
BRANCH   9  11
ATOM     11  C   UNL     1      50.066   5.684  18.289  0.00  0.00    +0.000 C 
BRANCH  11  12
ATOM     12  C   UNL     1      48.981   4.750  18.861  0.00  0.00    +0.000 C 
ATOM     13  C   UNL     1      48.537   3.701  17.849  0.00  0.00    +0.000 C 
ATOM     14  C   UNL     1      47.346   4.351  17.180  0.00  0.00    +0.000 C 
ATOM     15  N   UNL     1      46.637   4.992  18.289  0.00  0.00    +0.000 NA
ATOM     16  C   UNL     1      47.680   5.489  19.203  0.00  0.00    +0.000 C 
ATOM     17  H   UNL     1      46.099   4.280  18.783  0.00  0.00    +0.000 HD
ENDBRANCH  11  12
ENDBRANCH   9  11
ENDBRANCH   8   9
ENDBRANCH   5   8
ENDBRANCH   1   2
BRANCH   1  20
ATOM     18  O   UNL     1      44.614   7.451  11.901  0.00  0.00    +0.000 OA
ATOM     19  C   UNL     1      45.351   6.487  11.712  0.00  0.00    +0.000 C 
ATOM     20  N   UNL     1      46.717   6.580  11.772  0.00  0.00    +0.000 N 
ATOM     21  H   UNL     1      47.286   5.778  11.526  0.00  0.00    +0.000 HD
BRANCH  19  22
ATOM     22  C   UNL     1      44.809   5.151  11.441  0.00  0.00    +0.000 A 
ATOM     23  C   UNL     1      44.037   4.509  12.400  0.00  0.00    +0.000 A 
ATOM     24  S   UNL     1      43.487   2.969  11.914  0.00  0.00    +0.000 S 
ATOM     25  C   UNL     1      44.224   3.125  10.388  0.00  0.00    +0.000 A 
ATOM     26  N   UNL     1      44.111   2.145   9.452  0.00  0.00    +0.000 NA
ATOM     27  C   UNL     1      44.680   2.417   8.325  0.00  0.00    +0.000 A 
ATOM     28  N   UNL     1      45.362   3.575   8.051  0.00  0.00    +0.000 N 
ATOM     29  C   UNL     1      45.560   4.561   8.987  0.00  0.00    +0.000 A 
ATOM     30  O   UNL     1      46.269   5.533   8.745  0.00  0.00    +0.000 OA
ATOM     31  C   UNL     1      44.904   4.324  10.260  0.00  0.00    +0.000 A 
ATOM     32  H   UNL     1      45.806   3.712   7.156  0.00  0.00    +0.000 HD
ENDBRANCH  19  22
ENDBRANCH   1  20
TORSDOF 7
ENDMDL
MODEL 8
REMARK VINA RESULT:    -6.691      4.161      9.040
REMARK INTER + INTRA:         -10.592
REMARK INTER:                  -9.638
REMARK INTRA:                  -0.954
REMARK UNBOUND:                -1.162
REMARK  Name = 
REMARK  7 active torsions:
REMARK  status: ('A' for Active; 'I' for Inactive)
REMARK    1  A    between atoms: C_2  and  C_19
REMARK    2  A    between atoms: N_3  and  C_4
REMARK    3  A    between atoms: C_4  and  C_5
REMARK    4  A    between atoms: C_8  and  C_9
REMARK    5  A    between atoms: C_9  and  N_10
REMARK    6  A    between atoms: N_10  and  C_11
REMARK    7  A    between atoms: C_11  and  C_12
REMARK                            x       y       z     vdW  Elec       q    Type
REMARK                         _______ _______ _______ _____ _____    ______ ____
ROOT
ATOM      1  C   UNL     1      47.152   3.402  16.790  0.00  0.00    +0.000 C 
ENDROOT
BRANCH   1   2
ATOM      2  C   UNL     1      48.600   3.477  17.164  0.00  0.00    +0.000 A 
ATOM      3  C   UNL     1      49.164   4.638  17.697  0.00  0.00    +0.000 A 
ATOM      4  C   UNL     1      50.514   4.664  18.048  0.00  0.00    +0.000 A 
ATOM      5  C   UNL     1      51.277   3.517  17.854  0.00  0.00    +0.000 A 
ATOM      6  N   UNL     1      50.740   2.375  17.347  0.00  0.00    +0.000 NA
ATOM      7  C   UNL     1      49.430   2.378  17.024  0.00  0.00    +0.000 A 
BRANCH   5   8
ATOM      8  C   UNL     1      52.759   3.501  18.218  0.00  0.00    +0.000 C 
BRANCH   8   9
ATOM      9  N   UNL     1      53.107   2.269  18.926  0.00  0.00    +0.000 NA
ATOM     10  H   UNL     1      52.669   1.494  18.431  0.00  0.00    +0.000 HD
BRANCH   9  11
ATOM     11  C   UNL     1      54.528   2.063  19.138  0.00  0.00    +0.000 C 
BRANCH  11  12
ATOM     12  C   UNL     1      54.889   0.623  18.726  0.00  0.00    +0.000 C 
ATOM     13  C   UNL     1      55.775   0.589  17.486  0.00  0.00    +0.000 C 
ATOM     14  C   UNL     1      54.779   0.453  16.355  0.00  0.00    +0.000 C 
ATOM     15  N   UNL     1      53.797  -0.502  16.874  0.00  0.00    +0.000 NA
ATOM     16  C   UNL     1      53.663  -0.203  18.311  0.00  0.00    +0.000 C 
ATOM     17  H   UNL     1      54.182  -1.442  16.783  0.00  0.00    +0.000 HD
ENDBRANCH  11  12
ENDBRANCH   9  11
ENDBRANCH   8   9
ENDBRANCH   5   8
ENDBRANCH   1   2
BRANCH   1  20
ATOM     18  O   UNL     1      47.154   3.062  13.994  0.00  0.00    +0.000 OA
ATOM     19  C   UNL     1      46.787   4.136  14.462  0.00  0.00    +0.000 C 
ATOM     20  N   UNL     1      46.798   4.396  15.807  0.00  0.00    +0.000 N 
ATOM     21  H   UNL     1      46.407   5.263  16.154  0.00  0.00    +0.000 HD
BRANCH  19  22
ATOM     22  C   UNL     1      46.339   5.235  13.599  0.00  0.00    +0.000 A 
ATOM     23  C   UNL     1      47.191   6.299  13.335  0.00  0.00    +0.000 A 
ATOM     24  S   UNL     1      46.509   7.481  12.311  0.00  0.00    +0.000 S 
ATOM     25  C   UNL     1      45.069   6.589  12.147  0.00  0.00    +0.000 A 
ATOM     26  N   UNL     1      44.053   7.036  11.361  0.00  0.00    +0.000 NA
ATOM     27  C   UNL     1      43.041   6.237  11.292  0.00  0.00    +0.000 A 
ATOM     28  N   UNL     1      42.946   5.036  11.947  0.00  0.00    +0.000 N 
ATOM     29  C   UNL     1      43.916   4.577  12.806  0.00  0.00    +0.000 A 
ATOM     30  O   UNL     1      43.751   3.553  13.462  0.00  0.00    +0.000 OA
ATOM     31  C   UNL     1      45.096   5.418  12.886  0.00  0.00    +0.000 A 
ATOM     32  H   UNL     1      42.113   4.471  11.870  0.00  0.00    +0.000 HD
ENDBRANCH  19  22
ENDBRANCH   1  20
TORSDOF 7
ENDMDL
MODEL 9
REMARK VINA RESULT:    -6.375      3.706      5.870
REMARK INTER + INTRA:         -10.147
REMARK INTER:                  -9.245
REMARK INTRA:                  -0.901
REMARK UNBOUND:                -1.162
REMARK  Name = 
REMARK  7 active torsions:
REMARK  status: ('A' for Active; 'I' for Inactive)
REMARK    1  A    between atoms: C_2  and  C_19
REMARK    2  A    between atoms: N_3  and  C_4
REMARK    3  A    between atoms: C_4  and  C_5
REMARK    4  A    between atoms: C_8  and  C_9
REMARK    5  A    between atoms: C_9  and  N_10
REMARK    6  A    between atoms: N_10  and  C_11
REMARK    7  A    between atoms: C_11  and  C_12
REMARK                            x       y       z     vdW  Elec       q    Type
REMARK                         _______ _______ _______ _____ _____    ______ ____
ROOT
ATOM      1  C   UNL     1      48.854   4.726  18.788  0.00  0.00    +0.000 C 
ENDROOT
BRANCH   1   2
ATOM      2  C   UNL     1      48.322   4.840  17.392  0.00  0.00    +0.000 A 
ATOM      3  C   UNL     1      48.641   5.922  16.568  0.00  0.00    +0.000 A 
ATOM      4  C   UNL     1      48.138   5.984  15.269  0.00  0.00    +0.000 A 
ATOM      5  C   UNL     1      47.317   4.955  14.819  0.00  0.00    +0.000 A 
ATOM      6  N   UNL     1      47.007   3.889  15.606  0.00  0.00    +0.000 NA
ATOM      7  C   UNL     1      47.514   3.852  16.855  0.00  0.00    +0.000 A 
BRANCH   5   8
ATOM      8  C   UNL     1      46.740   4.984  13.407  0.00  0.00    +0.000 C 
BRANCH   8   9
ATOM      9  N   UNL     1      45.444   4.306  13.361  0.00  0.00    +0.000 NA
ATOM     10  H   UNL     1      44.728   5.016  13.225  0.00  0.00    +0.000 HD
BRANCH   9  11
ATOM     11  C   UNL     1      45.349   3.226  12.396  0.00  0.00    +0.000 C 
BRANCH  11  12
ATOM     12  C   UNL     1      43.984   3.312  11.686  0.00  0.00    +0.000 C 
ATOM     13  C   UNL     1      44.084   2.944  10.210  0.00  0.00    +0.000 C 
ATOM     14  C   UNL     1      44.299   4.281   9.536  0.00  0.00    +0.000 C 
ATOM     15  N   UNL     1      43.390   5.178  10.253  0.00  0.00    +0.000 NA
ATOM     16  C   UNL     1      43.416   4.738  11.659  0.00  0.00    +0.000 C 
ATOM     17  H   UNL     1      42.446   5.035   9.896  0.00  0.00    +0.000 HD
ENDBRANCH  11  12
ENDBRANCH   9  11
ENDBRANCH   8   9
ENDBRANCH   5   8
ENDBRANCH   1   2
BRANCH   1  20
ATOM     18  O   UNL     1      51.430   5.809  18.431  0.00  0.00    +0.000 OA
ATOM     19  C   UNL     1      51.318   4.613  18.688  0.00  0.00    +0.000 C 
ATOM     20  N   UNL     1      50.100   4.002  18.832  0.00  0.00    +0.000 N 
ATOM     21  H   UNL     1      50.056   3.034  19.126  0.00  0.00    +0.000 HD
BRANCH  19  22
ATOM     22  C   UNL     1      52.493   3.745  18.824  0.00  0.00    +0.000 A 
ATOM     23  C   UNL     1      53.573   4.158  19.591  0.00  0.00    +0.000 A 
ATOM     24  S   UNL     1      54.846   3.023  19.642  0.00  0.00    +0.000 S 
ATOM     25  C   UNL     1      53.978   1.922  18.677  0.00  0.00    +0.000 A 
ATOM     26  N   UNL     1      54.499   0.706  18.359  0.00  0.00    +0.000 NA
ATOM     27  C   UNL     1      53.714  -0.044  17.661  0.00  0.00    +0.000 A 
ATOM     28  N   UNL     1      52.459   0.314  17.241  0.00  0.00    +0.000 N 
ATOM     29  C   UNL     1      51.920   1.555  17.479  0.00  0.00    +0.000 A 
ATOM     30  O   UNL     1      50.841   1.882  16.994  0.00  0.00    +0.000 OA
ATOM     31  C   UNL     1      52.745   2.424  18.297  0.00  0.00    +0.000 A 
ATOM     32  H   UNL     1      51.907  -0.313  16.674  0.00  0.00    +0.000 HD
ENDBRANCH  19  22
ENDBRANCH   1  20
TORSDOF 7
ENDMDL
