MODEL 1
REMARK VINA RESULT:    -8.234      0.000      0.000
REMARK INTER + INTRA:         -11.170
REMARK INTER:                 -10.641
REMARK INTRA:                  -0.529
REMARK UNBOUND:                -0.529
REMARK  Name = 
REMARK  5 active torsions:
REMARK  status: ('A' for Active; 'I' for Inactive)
REMARK    1  A    between atoms: C_2  and  C_3
REMARK    2  A    between atoms: C_6  and  C_7
REMARK    3  A    between atoms: C_7  and  N_8
REMARK    4  A    between atoms: N_8  and  C_9
REMARK    5  A    between atoms: C_13  and  C_14
REMARK                            x       y       z     vdW  Elec       q    Type
REMARK                         _______ _______ _______ _____ _____    ______ ____
ROOT
ATOM      1  N   UNL     1      44.085   5.356  10.746  0.00  0.00    +0.000 N 
ATOM      2  H   UNL     1      44.024   5.976   9.941  0.00  0.00    +0.000 HD
ENDROOT
BRANCH   1   3
ATOM      3  C   UNL     1      45.225   5.630  11.514  0.00  0.00    +0.000 A 
ATOM      4  C   UNL     1      46.118   6.675  11.248  0.00  0.00    +0.000 A 
ATOM      5  C   UNL     1      47.248   6.881  12.044  0.00  0.00    +0.000 A 
ATOM      6  C   UNL     1      47.518   6.023  13.107  0.00  0.00    +0.000 A 
ATOM      7  C   UNL     1      46.671   4.942  13.370  0.00  0.00    +0.000 A 
ATOM      8  C   UNL     1      45.549   4.740  12.552  0.00  0.00    +0.000 A 
BRANCH   7   9
ATOM      9  C   UNL     1      46.993   4.075  14.541  0.00  0.00    +0.000 C 
ATOM     10  N   UNL     1      46.695   4.525  15.798  0.00  0.00    +0.000 N 
ATOM     11  O   UNL     1      47.532   2.984  14.399  0.00  0.00    +0.000 OA
ATOM     12  H   UNL     1      46.241   5.395  16.018  0.00  0.00    +0.000 HD
ATOM     13  H   UNL     1      46.957   3.922  16.567  0.00  0.00    +0.000 HD
ENDBRANCH   7   9
ENDBRANCH   1   3
BRANCH   1  14
ATOM     14  C   UNL     1      43.753   3.980  10.410  0.00  0.00    +0.000 C 
BRANCH  14  18
ATOM     15  C   UNL     1      46.573   2.460   7.495  0.00  0.00    +0.000 A 
ATOM     16  C   UNL     1      46.250   3.821   7.517  0.00  0.00    +0.000 A 
ATOM     17  C   UNL     1      45.320   4.311   8.441  0.00  0.00    +0.000 A 
ATOM     18  C   UNL     1      44.708   3.447   9.363  0.00  0.00    +0.000 A 
ATOM     19  C   UNL     1      45.011   2.078   9.310  0.00  0.00    +0.000 A 
ATOM     20  C   UNL     1      45.942   1.589   8.388  0.00  0.00    +0.000 A 
BRANCH  15  22
ATOM     21  N   UNL     1      48.341   1.570   5.815  0.00  0.00    +0.000 NA
ATOM     22  C   UNL     1      47.550   1.963   6.569  0.00  0.00    +0.000 C 
ENDBRANCH  15  22
ENDBRANCH  14  18
ENDBRANCH   1  14
TORSDOF 5
ENDMDL
MODEL 2
REMARK VINA RESULT:    -7.687      1.957      2.443
REMARK INTER + INTRA:         -10.462
REMARK INTER:                  -9.807
REMARK INTRA:                  -0.656
REMARK UNBOUND:                -0.529
REMARK  Name = 
REMARK  5 active torsions:
REMARK  status: ('A' for Active; 'I' for Inactive)
REMARK    1  A    between atoms: C_2  and  C_3
REMARK    2  A    between atoms: C_6  and  C_7
REMARK    3  A    between atoms: C_7  and  N_8
REMARK    4  A    between atoms: N_8  and  C_9
REMARK    5  A    between atoms: C_13  and  C_14
REMARK                            x       y       z     vdW  Elec       q    Type
REMARK                         _______ _______ _______ _____ _____    ______ ____
ROOT
ATOM      1  N   UNL     1      44.297   5.644  10.786  0.00  0.00    +0.000 N 
ATOM      2  H   UNL     1      44.455   6.305  10.029  0.00  0.00    +0.000 HD
ENDROOT
BRANCH   1   3
ATOM      3  C   UNL     1      45.352   5.663  11.707  0.00  0.00    +0.000 A 
ATOM      4  C   UNL     1      45.363   4.936  12.904  0.00  0.00    +0.000 A 
ATOM      5  C   UNL     1      46.441   5.016  13.789  0.00  0.00    +0.000 A 
ATOM      6  C   UNL     1      47.519   5.850  13.503  0.00  0.00    +0.000 A 
ATOM      7  C   UNL     1      47.516   6.626  12.339  0.00  0.00    +0.000 A 
ATOM      8  C   UNL     1      46.419   6.546  11.468  0.00  0.00    +0.000 A 
BRANCH   7   9
ATOM      9  C   UNL     1      48.712   7.478  12.070  0.00  0.00    +0.000 C 
ATOM     10  N   UNL     1      49.942   7.037  12.474  0.00  0.00    +0.000 N 
ATOM     11  O   UNL     1      48.609   8.564  11.513  0.00  0.00    +0.000 OA
ATOM     12  H   UNL     1      50.133   6.157  12.922  0.00  0.00    +0.000 HD
ATOM     13  H   UNL     1      50.722   7.656  12.301  0.00  0.00    +0.000 HD
ENDBRANCH   7   9
ENDBRANCH   1   3
BRANCH   1  14
ATOM     14  C   UNL     1      43.776   4.372  10.309  0.00  0.00    +0.000 C 
BRANCH  14  18
ATOM     15  C   UNL     1      46.607   2.582   7.562  0.00  0.00    +0.000 A 
ATOM     16  C   UNL     1      46.381   3.963   7.538  0.00  0.00    +0.000 A 
ATOM     17  C   UNL     1      45.448   4.540   8.407  0.00  0.00    +0.000 A 
ATOM     18  C   UNL     1      44.736   3.747   9.319  0.00  0.00    +0.000 A 
ATOM     19  C   UNL     1      44.943   2.359   9.311  0.00  0.00    +0.000 A 
ATOM     20  C   UNL     1      45.876   1.781   8.445  0.00  0.00    +0.000 A 
BRANCH  15  22
ATOM     21  N   UNL     1      48.373   1.520   5.983  0.00  0.00    +0.000 NA
ATOM     22  C   UNL     1      47.586   1.995   6.694  0.00  0.00    +0.000 C 
ENDBRANCH  15  22
ENDBRANCH  14  18
ENDBRANCH   1  14
TORSDOF 5
ENDMDL
MODEL 3
REMARK VINA RESULT:    -7.665      2.411      6.191
REMARK INTER + INTRA:         -10.434
REMARK INTER:                 -10.045
REMARK INTRA:                  -0.390
REMARK UNBOUND:                -0.529
REMARK  Name = 
REMARK  5 active torsions:
REMARK  status: ('A' for Active; 'I' for Inactive)
REMARK    1  A    between atoms: C_2  and  C_3
REMARK    2  A    between atoms: C_6  and  C_7
REMARK    3  A    between atoms: C_7  and  N_8
REMARK    4  A    between atoms: N_8  and  C_9
REMARK    5  A    between atoms: C_13  and  C_14
REMARK                            x       y       z     vdW  Elec       q    Type
REMARK                         _______ _______ _______ _____ _____    ______ ____
ROOT
ATOM      1  N   UNL     1      43.834   2.535  10.744  0.00  0.00    +0.000 N 
ATOM      2  H   UNL     1      44.179   1.718  11.245  0.00  0.00    +0.000 HD
ENDROOT
BRANCH   1   3
ATOM      3  C   UNL     1      44.670   2.864   9.670  0.00  0.00    +0.000 A 
ATOM      4  C   UNL     1      44.768   4.146   9.115  0.00  0.00    +0.000 A 
ATOM      5  C   UNL     1      45.609   4.402   8.028  0.00  0.00    +0.000 A 
ATOM      6  C   UNL     1      46.349   3.368   7.460  0.00  0.00    +0.000 A 
ATOM      7  C   UNL     1      46.237   2.066   7.960  0.00  0.00    +0.000 A 
ATOM      8  C   UNL     1      45.376   1.823   9.042  0.00  0.00    +0.000 A 
BRANCH   7   9
ATOM      9  C   UNL     1      47.076   1.005   7.331  0.00  0.00    +0.000 C 
ATOM     10  N   UNL     1      46.835  -0.303   7.651  0.00  0.00    +0.000 N 
ATOM     11  O   UNL     1      47.982   1.283   6.555  0.00  0.00    +0.000 OA
ATOM     12  H   UNL     1      46.108  -0.635   8.262  0.00  0.00    +0.000 HD
ATOM     13  H   UNL     1      47.445  -0.991   7.228  0.00  0.00    +0.000 HD
ENDBRANCH   7   9
ENDBRANCH   1   3
BRANCH   1  14
ATOM     14  C   UNL     1      43.367   3.579  11.644  0.00  0.00    +0.000 C 
BRANCH  14  18
ATOM     15  C   UNL     1      46.770   5.463  13.549  0.00  0.00    +0.000 A 
ATOM     16  C   UNL     1      46.690   4.068  13.475  0.00  0.00    +0.000 A 
ATOM     17  C   UNL     1      45.580   3.456  12.883  0.00  0.00    +0.000 A 
ATOM     18  C   UNL     1      44.539   4.231  12.347  0.00  0.00    +0.000 A 
ATOM     19  C   UNL     1      44.611   5.627  12.459  0.00  0.00    +0.000 A 
ATOM     20  C   UNL     1      45.721   6.240  13.049  0.00  0.00    +0.000 A 
BRANCH  15  22
ATOM     21  N   UNL     1      48.852   6.605  14.601  0.00  0.00    +0.000 NA
ATOM     22  C   UNL     1      47.923   6.091  14.128  0.00  0.00    +0.000 C 
ENDBRANCH  15  22
ENDBRANCH  14  18
ENDBRANCH   1  14
TORSDOF 5
ENDMDL
MODEL 4
REMARK VINA RESULT:    -7.467      2.079      2.753
REMARK INTER + INTRA:         -10.178
REMARK INTER:                  -9.538
REMARK INTRA:                  -0.640
REMARK UNBOUND:                -0.529
REMARK  Name = 
REMARK  5 active torsions:
REMARK  status: ('A' for Active; 'I' for Inactive)
REMARK    1  A    between atoms: C_2  and  C_3
REMARK    2  A    between atoms: C_6  and  C_7
REMARK    3  A    between atoms: C_7  and  N_8
REMARK    4  A    between atoms: N_8  and  C_9
REMARK    5  A    between atoms: C_13  and  C_14
REMARK                            x       y       z     vdW  Elec       q    Type
REMARK                         _______ _______ _______ _____ _____    ______ ____
ROOT
ATOM      1  N   UNL     1      44.520   3.111  11.779  0.00  0.00    +0.000 N 
ATOM      2  H   UNL     1      43.928   2.686  12.489  0.00  0.00    +0.000 HD
ENDROOT
BRANCH   1   3
ATOM      3  C   UNL     1      45.252   4.185  12.302  0.00  0.00    +0.000 A 
ATOM      4  C   UNL     1      46.345   4.045  13.166  0.00  0.00    +0.000 A 
ATOM      5  C   UNL     1      47.019   5.162  13.667  0.00  0.00    +0.000 A 
ATOM      6  C   UNL     1      46.590   6.444  13.333  0.00  0.00    +0.000 A 
ATOM      7  C   UNL     1      45.471   6.618  12.511  0.00  0.00    +0.000 A 
ATOM      8  C   UNL     1      44.797   5.486  12.028  0.00  0.00    +0.000 A 
BRANCH   7   9
ATOM      9  C   UNL     1      45.076   8.014  12.162  0.00  0.00    +0.000 C 
ATOM     10  N   UNL     1      44.325   8.226  11.039  0.00  0.00    +0.000 N 
ATOM     11  O   UNL     1      45.425   8.967  12.848  0.00  0.00    +0.000 OA
ATOM     12  H   UNL     1      43.976   7.513  10.421  0.00  0.00    +0.000 HD
ATOM     13  H   UNL     1      44.104   9.189  10.819  0.00  0.00    +0.000 HD
ENDBRANCH   7   9
ENDBRANCH   1   3
BRANCH   1  14
ATOM     14  C   UNL     1      43.836   3.254  10.503  0.00  0.00    +0.000 C 
BRANCH  14  18
ATOM     15  C   UNL     1      46.647   2.432   7.312  0.00  0.00    +0.000 A 
ATOM     16  C   UNL     1      46.233   3.745   7.562  0.00  0.00    +0.000 A 
ATOM     17  C   UNL     1      45.305   4.011   8.576  0.00  0.00    +0.000 A 
ATOM     18  C   UNL     1      44.788   2.968   9.360  0.00  0.00    +0.000 A 
ATOM     19  C   UNL     1      45.181   1.651   9.077  0.00  0.00    +0.000 A 
ATOM     20  C   UNL     1      46.109   1.386   8.066  0.00  0.00    +0.000 A 
BRANCH  15  22
ATOM     21  N   UNL     1      48.405   1.949   5.463  0.00  0.00    +0.000 NA
ATOM     22  C   UNL     1      47.622   2.164   6.293  0.00  0.00    +0.000 C 
ENDBRANCH  15  22
ENDBRANCH  14  18
ENDBRANCH   1  14
TORSDOF 5
ENDMDL
MODEL 5
REMARK VINA RESULT:    -7.465      2.190      6.436
REMARK INTER + INTRA:         -10.176
REMARK INTER:                  -9.512
REMARK INTRA:                  -0.664
REMARK UNBOUND:                -0.529
REMARK  Name = 
REMARK  5 active torsions:
REMARK  status: ('A' for Active; 'I' for Inactive)
REMARK    1  A    between atoms: C_2  and  C_3
REMARK    2  A    between atoms: C_6  and  C_7
REMARK    3  A    between atoms: C_7  and  N_8
REMARK    4  A    between atoms: N_8  and  C_9
REMARK    5  A    between atoms: C_13  and  C_14
REMARK                            x       y       z     vdW  Elec       q    Type
REMARK                         _______ _______ _______ _____ _____    ______ ____
ROOT
ATOM      1  N   UNL     1      44.244   4.805   9.066  0.00  0.00    +0.000 N 
ATOM      2  H   UNL     1      43.588   5.129   8.358  0.00  0.00    +0.000 HD
ENDROOT
BRANCH   1   3
ATOM      3  C   UNL     1      44.822   3.582   8.701  0.00  0.00    +0.000 A 
ATOM      4  C   UNL     1      44.499   2.353   9.290  0.00  0.00    +0.000 A 
ATOM      5  C   UNL     1      45.130   1.171   8.891  0.00  0.00    +0.000 A 
ATOM      6  C   UNL     1      46.118   1.204   7.911  0.00  0.00    +0.000 A 
ATOM      7  C   UNL     1      46.497   2.422   7.336  0.00  0.00    +0.000 A 
ATOM      8  C   UNL     1      45.865   3.602   7.758  0.00  0.00    +0.000 A 
BRANCH   7   9
ATOM      9  C   UNL     1      47.539   2.392   6.269  0.00  0.00    +0.000 C 
ATOM     10  N   UNL     1      47.392   3.206   5.179  0.00  0.00    +0.000 N 
ATOM     11  O   UNL     1      48.507   1.644   6.342  0.00  0.00    +0.000 OA
ATOM     12  H   UNL     1      46.645   3.864   5.034  0.00  0.00    +0.000 HD
ATOM     13  H   UNL     1      48.103   3.134   4.463  0.00  0.00    +0.000 HD
ENDBRANCH   7   9
ENDBRANCH   1   3
BRANCH   1  14
ATOM     14  C   UNL     1      43.737   4.991  10.417  0.00  0.00    +0.000 C 
BRANCH  14  18
ATOM     15  C   UNL     1      46.926   5.788  13.237  0.00  0.00    +0.000 A 
ATOM     16  C   UNL     1      46.733   6.632  12.138  0.00  0.00    +0.000 A 
ATOM     17  C   UNL     1      45.720   6.362  11.211  0.00  0.00    +0.000 A 
ATOM     18  C   UNL     1      44.879   5.251  11.377  0.00  0.00    +0.000 A 
ATOM     19  C   UNL     1      45.104   4.390  12.462  0.00  0.00    +0.000 A 
ATOM     20  C   UNL     1      46.114   4.660  13.389  0.00  0.00    +0.000 A 
BRANCH  15  22
ATOM     21  N   UNL     1      48.776   6.318  14.981  0.00  0.00    +0.000 NA
ATOM     22  C   UNL     1      47.945   6.082  14.204  0.00  0.00    +0.000 C 
ENDBRANCH  15  22
ENDBRANCH  14  18
ENDBRANCH   1  14
TORSDOF 5
ENDMDL
MODEL 6
REMARK VINA RESULT:    -6.786      2.733      3.828
REMARK INTER + INTRA:          -9.299
REMARK INTER:                  -8.752
REMARK INTRA:                  -0.547
REMARK UNBOUND:                -0.529
REMARK  Name = 
REMARK  5 active torsions:
REMARK  status: ('A' for Active; 'I' for Inactive)
REMARK    1  A    between atoms: C_2  and  C_3
REMARK    2  A    between atoms: C_6  and  C_7
REMARK    3  A    between atoms: C_7  and  N_8
REMARK    4  A    between atoms: N_8  and  C_9
REMARK    5  A    between atoms: C_13  and  C_14
REMARK                            x       y       z     vdW  Elec       q    Type
REMARK                         _______ _______ _______ _____ _____    ______ ____
ROOT
ATOM      1  N   UNL     1      44.114   4.992  11.823  0.00  0.00    +0.000 N 
ATOM      2  H   UNL     1      43.471   4.777  12.582  0.00  0.00    +0.000 HD
ENDROOT
BRANCH   1   3
ATOM      3  C   UNL     1      44.782   6.202  12.050  0.00  0.00    +0.000 A 
ATOM      4  C   UNL     1      45.960   6.322  12.798  0.00  0.00    +0.000 A 
ATOM      5  C   UNL     1      46.565   7.564  13.002  0.00  0.00    +0.000 A 
ATOM      6  C   UNL     1      45.984   8.718  12.482  0.00  0.00    +0.000 A 
ATOM      7  C   UNL     1      44.782   8.639  11.771  0.00  0.00    +0.000 A 
ATOM      8  C   UNL     1      44.179   7.385  11.587  0.00  0.00    +0.000 A 
BRANCH   7   9
ATOM      9  C   UNL     1      44.221   9.903  11.210  0.00  0.00    +0.000 C 
ATOM     10  N   UNL     1      43.633   9.874   9.976  0.00  0.00    +0.000 N 
ATOM     11  O   UNL     1      44.294  10.961  11.823  0.00  0.00    +0.000 OA
ATOM     12  H   UNL     1      43.510   9.057   9.401  0.00  0.00    +0.000 HD
ATOM     13  H   UNL     1      43.293  10.757   9.617  0.00  0.00    +0.000 HD
ENDBRANCH   7   9
ENDBRANCH   1   3
BRANCH   1  14
ATOM     14  C   UNL     1      43.537   4.718  10.516  0.00  0.00    +0.000 C 
BRANCH  14  18
ATOM     15  C   UNL     1      46.250   2.479   7.989  0.00  0.00    +0.000 A 
ATOM     16  C   UNL     1      45.359   1.806   8.832  0.00  0.00    +0.000 A 
ATOM     17  C   UNL     1      44.499   2.528   9.669  0.00  0.00    +0.000 A 
ATOM     18  C   UNL     1      44.511   3.931   9.665  0.00  0.00    +0.000 A 
ATOM     19  C   UNL     1      45.433   4.596   8.842  0.00  0.00    +0.000 A 
ATOM     20  C   UNL     1      46.291   3.877   8.005  0.00  0.00    +0.000 A 
BRANCH  15  22
ATOM     21  N   UNL     1      47.800   1.134   6.398  0.00  0.00    +0.000 NA
ATOM     22  C   UNL     1      47.109   1.740   7.108  0.00  0.00    +0.000 C 
ENDBRANCH  15  22
ENDBRANCH  14  18
ENDBRANCH   1  14
TORSDOF 5
ENDMDL
MODEL 7
REMARK VINA RESULT:    -6.114      3.522      7.651
REMARK INTER + INTRA:          -8.430
REMARK INTER:                  -8.017
REMARK INTRA:                  -0.413
REMARK UNBOUND:                -0.529
REMARK  Name = 
REMARK  5 active torsions:
REMARK  status: ('A' for Active; 'I' for Inactive)
REMARK    1  A    between atoms: C_2  and  C_3
REMARK    2  A    between atoms: C_6  and  C_7
REMARK    3  A    between atoms: C_7  and  N_8
REMARK    4  A    between atoms: N_8  and  C_9
REMARK    5  A    between atoms: C_13  and  C_14
REMARK                            x       y       z     vdW  Elec       q    Type
REMARK                         _______ _______ _______ _____ _____    ______ ____
ROOT
ATOM      1  N   UNL     1      46.830   3.688  14.824  0.00  0.00    +0.000 N 
ATOM      2  H   UNL     1      47.456   2.911  14.625  0.00  0.00    +0.000 HD
ENDROOT
BRANCH   1   3
ATOM      3  C   UNL     1      46.542   4.419  13.664  0.00  0.00    +0.000 A 
ATOM      4  C   UNL     1      47.183   5.612  13.308  0.00  0.00    +0.000 A 
ATOM      5  C   UNL     1      46.833   6.303  12.145  0.00  0.00    +0.000 A 
ATOM      6  C   UNL     1      45.811   5.823  11.329  0.00  0.00    +0.000 A 
ATOM      7  C   UNL     1      45.119   4.659  11.681  0.00  0.00    +0.000 A 
ATOM      8  C   UNL     1      45.473   3.986  12.861  0.00  0.00    +0.000 A 
BRANCH   7   9
ATOM      9  C   UNL     1      44.056   4.175  10.753  0.00  0.00    +0.000 C 
ATOM     10  N   UNL     1      43.956   4.740   9.512  0.00  0.00    +0.000 N 
ATOM     11  O   UNL     1      43.266   3.301  11.088  0.00  0.00    +0.000 OA
ATOM     12  H   UNL     1      44.563   5.451   9.138  0.00  0.00    +0.000 HD
ATOM     13  H   UNL     1      43.203   4.407   8.924  0.00  0.00    +0.000 HD
ENDBRANCH   7   9
ENDBRANCH   1   3
BRANCH   1  14
ATOM     14  C   UNL     1      47.187   4.386  16.050  0.00  0.00    +0.000 C 
BRANCH  14  18
ATOM     15  C   UNL     1      50.926   2.822  17.576  0.00  0.00    +0.000 A 
ATOM     16  C   UNL     1      49.981   1.958  17.012  0.00  0.00    +0.000 A 
ATOM     17  C   UNL     1      48.761   2.457  16.542  0.00  0.00    +0.000 A 
ATOM     18  C   UNL     1      48.474   3.829  16.618  0.00  0.00    +0.000 A 
ATOM     19  C   UNL     1      49.413   4.682  17.217  0.00  0.00    +0.000 A 
ATOM     20  C   UNL     1      50.633   4.185  17.686  0.00  0.00    +0.000 A 
BRANCH  15  22
ATOM     21  N   UNL     1      53.211   1.908  18.404  0.00  0.00    +0.000 NA
ATOM     22  C   UNL     1      52.190   2.315  18.029  0.00  0.00    +0.000 C 
ENDBRANCH  15  22
ENDBRANCH  14  18
ENDBRANCH   1  14
TORSDOF 5
ENDMDL
MODEL 8
REMARK VINA RESULT:    -6.021      3.147      6.555
REMARK INTER + INTRA:          -8.310
REMARK INTER:                  -7.760
REMARK INTRA:                  -0.550
REMARK UNBOUND:                -0.529
REMARK  Name = 
REMARK  5 active torsions:
REMARK  status: ('A' for Active; 'I' for Inactive)
REMARK    1  A    between atoms: C_2  and  C_3
REMARK    2  A    between atoms: C_6  and  C_7
REMARK    3  A    between atoms: C_7  and  N_8
REMARK    4  A    between atoms: N_8  and  C_9
REMARK    5  A    between atoms: C_13  and  C_14
REMARK                            x       y       z     vdW  Elec       q    Type
REMARK                         _______ _______ _______ _____ _____    ______ ____
ROOT
ATOM      1  N   UNL     1      44.470   6.410  11.054  0.00  0.00    +0.000 N 
ATOM      2  H   UNL     1      43.548   6.830  10.955  0.00  0.00    +0.000 HD
ENDROOT
BRANCH   1   3
ATOM      3  C   UNL     1      44.491   5.104  10.547  0.00  0.00    +0.000 A 
ATOM      4  C   UNL     1      43.822   4.023  11.133  0.00  0.00    +0.000 A 
ATOM      5  C   UNL     1      43.902   2.739  10.586  0.00  0.00    +0.000 A 
ATOM      6  C   UNL     1      44.678   2.511   9.453  0.00  0.00    +0.000 A 
ATOM      7  C   UNL     1      45.397   3.560   8.871  0.00  0.00    +0.000 A 
ATOM      8  C   UNL     1      45.318   4.840   9.441  0.00  0.00    +0.000 A 
BRANCH   7   9
ATOM      9  C   UNL     1      46.186   3.263   7.640  0.00  0.00    +0.000 C 
ATOM     10  N   UNL     1      46.716   2.012   7.481  0.00  0.00    +0.000 N 
ATOM     11  O   UNL     1      46.382   4.118   6.785  0.00  0.00    +0.000 OA
ATOM     12  H   UNL     1      46.600   1.239   8.115  0.00  0.00    +0.000 HD
ATOM     13  H   UNL     1      47.271   1.859   6.650  0.00  0.00    +0.000 HD
ENDBRANCH   7   9
ENDBRANCH   1   3
BRANCH   1  14
ATOM     14  C   UNL     1      45.072   6.693  12.348  0.00  0.00    +0.000 C 
BRANCH  14  18
ATOM     15  C   UNL     1      48.599   9.134  11.745  0.00  0.00    +0.000 A 
ATOM     16  C   UNL     1      48.686   7.740  11.657  0.00  0.00    +0.000 A 
ATOM     17  C   UNL     1      47.553   6.948  11.877  0.00  0.00    +0.000 A 
ATOM     18  C   UNL     1      46.316   7.539  12.176  0.00  0.00    +0.000 A 
ATOM     19  C   UNL     1      46.247   8.935  12.298  0.00  0.00    +0.000 A 
ATOM     20  C   UNL     1      47.377   9.728  12.076  0.00  0.00    +0.000 A 
BRANCH  15  22
ATOM     21  N   UNL     1      50.686  10.610  11.289  0.00  0.00    +0.000 NA
ATOM     22  C   UNL     1      49.753   9.948  11.488  0.00  0.00    +0.000 C 
ENDBRANCH  15  22
ENDBRANCH  14  18
ENDBRANCH   1  14
TORSDOF 5
ENDMDL
MODEL 9
REMARK VINA RESULT:    -5.824      3.329      8.045
REMARK INTER + INTRA:          -8.055
REMARK INTER:                  -7.699
REMARK INTRA:                  -0.356
REMARK UNBOUND:                -0.529
REMARK  Name = 
REMARK  5 active torsions:
REMARK  status: ('A' for Active; 'I' for Inactive)
REMARK    1  A    between atoms: C_2  and  C_3
REMARK    2  A    between atoms: C_6  and  C_7
REMARK    3  A    between atoms: C_7  and  N_8
REMARK    4  A    between atoms: N_8  and  C_9
REMARK    5  A    between atoms: C_13  and  C_14
REMARK                            x       y       z     vdW  Elec       q    Type
REMARK                         _______ _______ _______ _____ _____    ______ ____
ROOT
ATOM      1  N   UNL     1      46.771   5.214  14.388  0.00  0.00    +0.000 N 
ATOM      2  H   UNL     1      46.258   5.827  15.018  0.00  0.00    +0.000 HD
ENDROOT
BRANCH   1   3
ATOM      3  C   UNL     1      46.224   5.235  13.099  0.00  0.00    +0.000 A 
ATOM      4  C   UNL     1      46.318   6.324  12.223  0.00  0.00    +0.000 A 
ATOM      5  C   UNL     1      45.731   6.286  10.955  0.00  0.00    +0.000 A 
ATOM      6  C   UNL     1      45.012   5.163  10.552  0.00  0.00    +0.000 A 
ATOM      7  C   UNL     1      44.859   4.078  11.422  0.00  0.00    +0.000 A 
ATOM      8  C   UNL     1      45.442   4.138  12.697  0.00  0.00    +0.000 A 
BRANCH   7   9
ATOM      9  C   UNL     1      44.106   2.889  10.925  0.00  0.00    +0.000 C 
ATOM     10  N   UNL     1      44.632   2.157   9.896  0.00  0.00    +0.000 N 
ATOM     11  O   UNL     1      43.025   2.572  11.405  0.00  0.00    +0.000 OA
ATOM     12  H   UNL     1      45.516   2.325   9.446  0.00  0.00    +0.000 HD
ATOM     13  H   UNL     1      44.077   1.378   9.567  0.00  0.00    +0.000 HD
ENDBRANCH   7   9
ENDBRANCH   1   3
BRANCH   1  14
ATOM     14  C   UNL     1      47.111   3.943  15.009  0.00  0.00    +0.000 C 
BRANCH  14  18
ATOM     15  C   UNL     1      48.977   4.573  18.866  0.00  0.00    +0.000 A 
ATOM     16  C   UNL     1      48.400   3.336  18.559  0.00  0.00    +0.000 A 
ATOM     17  C   UNL     1      47.774   3.137  17.323  0.00  0.00    +0.000 A 
ATOM     18  C   UNL     1      47.726   4.170  16.373  0.00  0.00    +0.000 A 
ATOM     19  C   UNL     1      48.275   5.418  16.705  0.00  0.00    +0.000 A 
ATOM     20  C   UNL     1      48.903   5.616  17.939  0.00  0.00    +0.000 A 
BRANCH  15  22
ATOM     21  N   UNL     1      50.182   4.927  21.139  0.00  0.00    +0.000 NA
ATOM     22  C   UNL     1      49.647   4.766  20.120  0.00  0.00    +0.000 C 
ENDBRANCH  15  22
ENDBRANCH  14  18
ENDBRANCH   1  14
TORSDOF 5
ENDMDL
