MODEL 1
REMARK VINA RESULT:    -9.004      0.000      0.000
REMARK INTER + INTRA:         -12.003
REMARK INTER:                 -11.636
REMARK INTRA:                  -0.367
REMARK UNBOUND:                -0.367
REMARK  Name = 
REMARK  5 active torsions:
REMARK  status: ('A' for Active; 'I' for Inactive)
REMARK    1  A    between atoms: C_2  and  C_4
REMARK    2  A    between atoms: C_7  and  N_8
REMARK    3  A    between atoms: N_8  and  C_9
REMARK    4  A    between atoms: C_9  and  C_10
REMARK    5  A    between atoms: C_14  and  C_15
REMARK                            x       y       z     vdW  Elec       q    Type
REMARK                         _______ _______ _______ _____ _____    ______ ____
ROOT
ATOM      1  C   UNL     1      45.831   7.397  11.955  0.00  0.00    +0.000 C 
ENDROOT
BRANCH   1   2
ATOM      2  C   UNL     1      45.086   6.334  11.194  0.00  0.00    +0.000 A 
ATOM      3  C   UNL     1      43.728   6.135  11.398  0.00  0.00    +0.000 A 
ATOM      4  N   UNL     1      43.007   5.179  10.775  0.00  0.00    +0.000 NA
ATOM      5  C   UNL     1      43.674   4.375   9.911  0.00  0.00    +0.000 A 
ATOM      6  C   UNL     1      45.035   4.471   9.602  0.00  0.00    +0.000 A 
ATOM      7  C   UNL     1      45.733   5.483  10.283  0.00  0.00    +0.000 A 
BRANCH   6   8
ATOM      8  C   UNL     1      45.689   3.578   8.615  0.00  0.00    +0.000 A 
ATOM      9  C   UNL     1      46.361   4.093   7.485  0.00  0.00    +0.000 A 
ATOM     10  C   UNL     1      46.998   3.254   6.562  0.00  0.00    +0.000 A 
ATOM     11  C   UNL     1      46.985   1.881   6.759  0.00  0.00    +0.000 A 
ATOM     12  F   UNL     1      47.609   1.082   5.884  0.00  0.00    +0.000 F 
ATOM     13  C   UNL     1      46.331   1.347   7.858  0.00  0.00    +0.000 A 
ATOM     14  F   UNL     1      46.320   0.022   8.057  0.00  0.00    +0.000 F 
ATOM     15  C   UNL     1      45.683   2.177   8.772  0.00  0.00    +0.000 A 
ENDBRANCH   6   8
ENDBRANCH   1   2
BRANCH   1  16
ATOM     16  N   UNL     1      47.109   6.858  12.406  0.00  0.00    +0.000 N 
ATOM     17  H   UNL     1      47.848   7.560  12.403  0.00  0.00    +0.000 HD
BRANCH  16  21
ATOM     18  C   UNL     1      47.455   4.411  15.713  0.00  0.00    +0.000 A 
ATOM     19  N   UNL     1      46.558   4.029  14.775  0.00  0.00    +0.000 NA
ATOM     20  C   UNL     1      46.454   4.852  13.704  0.00  0.00    +0.000 A 
ATOM     21  C   UNL     1      47.157   6.036  13.532  0.00  0.00    +0.000 A 
ATOM     22  C   UNL     1      48.070   6.272  14.551  0.00  0.00    +0.000 A 
ATOM     23  N   UNL     1      48.232   5.507  15.651  0.00  0.00    +0.000 NA
BRANCH  18  25
ATOM     24  N   UNL     1      48.863   3.381  17.431  0.00  0.00    +0.000 N 
ATOM     25  C   UNL     1      47.588   3.524  16.930  0.00  0.00    +0.000 C 
ATOM     26  O   UNL     1      46.648   2.947  17.466  0.00  0.00    +0.000 OA
ATOM     27  H   UNL     1      49.005   2.804  18.248  0.00  0.00    +0.000 HD
ATOM     28  H   UNL     1      49.640   3.863  16.997  0.00  0.00    +0.000 HD
ENDBRANCH  18  25
ENDBRANCH  16  21
ENDBRANCH   1  16
TORSDOF 5
ENDMDL
MODEL 2
REMARK VINA RESULT:    -8.828      2.658      3.258
REMARK INTER + INTRA:         -11.775
REMARK INTER:                 -10.973
REMARK INTRA:                  -0.801
REMARK UNBOUND:                -0.367
REMARK  Name = 
REMARK  5 active torsions:
REMARK  status: ('A' for Active; 'I' for Inactive)
REMARK    1  A    between atoms: C_2  and  C_4
REMARK    2  A    between atoms: C_7  and  N_8
REMARK    3  A    between atoms: N_8  and  C_9
REMARK    4  A    between atoms: C_9  and  C_10
REMARK    5  A    between atoms: C_14  and  C_15
REMARK                            x       y       z     vdW  Elec       q    Type
REMARK                         _______ _______ _______ _____ _____    ______ ____
ROOT
ATOM      1  C   UNL     1      43.913   6.564  11.752  0.00  0.00    +0.000 C 
ENDROOT
BRANCH   1   2
ATOM      2  C   UNL     1      43.923   5.145  11.248  0.00  0.00    +0.000 A 
ATOM      3  C   UNL     1      43.137   4.173  11.851  0.00  0.00    +0.000 A 
ATOM      4  N   UNL     1      43.125   2.878  11.472  0.00  0.00    +0.000 NA
ATOM      5  C   UNL     1      43.942   2.531  10.446  0.00  0.00    +0.000 A 
ATOM      6  C   UNL     1      44.774   3.408   9.743  0.00  0.00    +0.000 A 
ATOM      7  C   UNL     1      44.747   4.742  10.185  0.00  0.00    +0.000 A 
BRANCH   6   8
ATOM      8  C   UNL     1      45.614   2.963   8.605  0.00  0.00    +0.000 A 
ATOM      9  C   UNL     1      46.084   3.874   7.634  0.00  0.00    +0.000 A 
ATOM     10  C   UNL     1      46.895   3.462   6.569  0.00  0.00    +0.000 A 
ATOM     11  C   UNL     1      47.261   2.128   6.461  0.00  0.00    +0.000 A 
ATOM     12  F   UNL     1      48.050   1.739   5.452  0.00  0.00    +0.000 F 
ATOM     13  C   UNL     1      46.813   1.211   7.399  0.00  0.00    +0.000 A 
ATOM     14  F   UNL     1      47.167  -0.078   7.304  0.00  0.00    +0.000 F 
ATOM     15  C   UNL     1      45.994   1.614   8.453  0.00  0.00    +0.000 A 
ENDBRANCH   6   8
ENDBRANCH   1   2
BRANCH   1  16
ATOM     16  N   UNL     1      44.725   6.649  12.961  0.00  0.00    +0.000 N 
ATOM     17  H   UNL     1      44.493   5.919  13.635  0.00  0.00    +0.000 HD
BRANCH  16  21
ATOM     18  C   UNL     1      48.764   7.334  12.460  0.00  0.00    +0.000 A 
ATOM     19  N   UNL     1      48.423   6.173  13.066  0.00  0.00    +0.000 NA
ATOM     20  C   UNL     1      47.093   5.975  13.230  0.00  0.00    +0.000 A 
ATOM     21  C   UNL     1      46.098   6.869  12.861  0.00  0.00    +0.000 A 
ATOM     22  C   UNL     1      46.597   7.990  12.210  0.00  0.00    +0.000 A 
ATOM     23  N   UNL     1      47.904   8.265  12.013  0.00  0.00    +0.000 NA
BRANCH  18  25
ATOM     24  N   UNL     1      50.974   7.749  13.429  0.00  0.00    +0.000 N 
ATOM     25  C   UNL     1      50.241   7.597  12.274  0.00  0.00    +0.000 C 
ATOM     26  O   UNL     1      50.792   7.681  11.180  0.00  0.00    +0.000 OA
ATOM     27  H   UNL     1      51.967   7.918  13.360  0.00  0.00    +0.000 HD
ATOM     28  H   UNL     1      50.526   7.670  14.333  0.00  0.00    +0.000 HD
ENDBRANCH  18  25
ENDBRANCH  16  21
ENDBRANCH   1  16
TORSDOF 5
ENDMDL
MODEL 3
REMARK VINA RESULT:    -8.647      4.713      7.568
REMARK INTER + INTRA:         -11.541
REMARK INTER:                 -10.780
REMARK INTRA:                  -0.761
REMARK UNBOUND:                -0.367
REMARK  Name = 
REMARK  5 active torsions:
REMARK  status: ('A' for Active; 'I' for Inactive)
REMARK    1  A    between atoms: C_2  and  C_4
REMARK    2  A    between atoms: C_7  and  N_8
REMARK    3  A    between atoms: N_8  and  C_9
REMARK    4  A    between atoms: C_9  and  C_10
REMARK    5  A    between atoms: C_14  and  C_15
REMARK                            x       y       z     vdW  Elec       q    Type
REMARK                         _______ _______ _______ _____ _____    ______ ____
ROOT
ATOM      1  C   UNL     1      43.795   5.086  10.917  0.00  0.00    +0.000 C 
ENDROOT
BRANCH   1   2
ATOM      2  C   UNL     1      44.918   5.073  11.919  0.00  0.00    +0.000 A 
ATOM      3  C   UNL     1      44.896   4.200  12.997  0.00  0.00    +0.000 A 
ATOM      4  N   UNL     1      45.851   4.159  13.949  0.00  0.00    +0.000 NA
ATOM      5  C   UNL     1      46.877   5.039  13.827  0.00  0.00    +0.000 A 
ATOM      6  C   UNL     1      47.030   5.962  12.788  0.00  0.00    +0.000 A 
ATOM      7  C   UNL     1      46.003   5.960  11.828  0.00  0.00    +0.000 A 
BRANCH   6   8
ATOM      8  C   UNL     1      48.201   6.868  12.700  0.00  0.00    +0.000 A 
ATOM      9  C   UNL     1      48.441   7.655  11.551  0.00  0.00    +0.000 A 
ATOM     10  C   UNL     1      49.533   8.528  11.471  0.00  0.00    +0.000 A 
ATOM     11  C   UNL     1      50.402   8.640  12.547  0.00  0.00    +0.000 A 
ATOM     12  F   UNL     1      51.435   9.488  12.475  0.00  0.00    +0.000 F 
ATOM     13  C   UNL     1      50.193   7.879  13.686  0.00  0.00    +0.000 A 
ATOM     14  F   UNL     1      51.025   7.987  14.730  0.00  0.00    +0.000 F 
ATOM     15  C   UNL     1      49.114   6.998  13.764  0.00  0.00    +0.000 A 
ENDBRANCH   6   8
ENDBRANCH   1   2
BRANCH   1  16
ATOM     16  N   UNL     1      43.725   3.786  10.258  0.00  0.00    +0.000 N 
ATOM     17  H   UNL     1      42.772   3.536   9.997  0.00  0.00    +0.000 HD
BRANCH  16  21
ATOM     18  C   UNL     1      46.588   2.715   7.485  0.00  0.00    +0.000 A 
ATOM     19  N   UNL     1      46.265   4.027   7.536  0.00  0.00    +0.000 NA
ATOM     20  C   UNL     1      45.315   4.354   8.446  0.00  0.00    +0.000 A 
ATOM     21  C   UNL     1      44.654   3.456   9.273  0.00  0.00    +0.000 A 
ATOM     22  C   UNL     1      45.125   2.156   9.140  0.00  0.00    +0.000 A 
ATOM     23  N   UNL     1      46.061   1.748   8.256  0.00  0.00    +0.000 NA
BRANCH  18  25
ATOM     24  N   UNL     1      47.672   3.059   5.317  0.00  0.00    +0.000 N 
ATOM     25  C   UNL     1      47.634   2.310   6.471  0.00  0.00    +0.000 C 
ATOM     26  O   UNL     1      48.416   1.377   6.625  0.00  0.00    +0.000 OA
ATOM     27  H   UNL     1      48.358   2.835   4.610  0.00  0.00    +0.000 HD
ATOM     28  H   UNL     1      47.036   3.836   5.191  0.00  0.00    +0.000 HD
ENDBRANCH  18  25
ENDBRANCH  16  21
ENDBRANCH   1  16
TORSDOF 5
ENDMDL
MODEL 4
REMARK VINA RESULT:    -8.591      4.660      7.357
REMARK INTER + INTRA:         -11.469
REMARK INTER:                 -10.764
REMARK INTRA:                  -0.704
REMARK UNBOUND:                -0.367
REMARK  Name = 
REMARK  5 active torsions:
REMARK  status: ('A' for Active; 'I' for Inactive)
REMARK    1  A    between atoms: C_2  and  C_4
REMARK    2  A    between atoms: C_7  and  N_8
REMARK    3  A    between atoms: N_8  and  C_9
REMARK    4  A    between atoms: C_9  and  C_10
REMARK    5  A    between atoms: C_14  and  C_15
REMARK                            x       y       z     vdW  Elec       q    Type
REMARK                         _______ _______ _______ _____ _____    ______ ____
ROOT
ATOM      1  C   UNL     1      43.434   4.765  11.279  0.00  0.00    +0.000 C 
ENDROOT
BRANCH   1   2
ATOM      2  C   UNL     1      44.720   4.926  12.044  0.00  0.00    +0.000 A 
ATOM      3  C   UNL     1      45.081   4.012  13.024  0.00  0.00    +0.000 A 
ATOM      4  N   UNL     1      46.200   4.116  13.770  0.00  0.00    +0.000 NA
ATOM      5  C   UNL     1      46.998   5.187  13.533  0.00  0.00    +0.000 A 
ATOM      6  C   UNL     1      46.762   6.174  12.571  0.00  0.00    +0.000 A 
ATOM      7  C   UNL     1      45.579   6.015  11.828  0.00  0.00    +0.000 A 
BRANCH   6   8
ATOM      8  C   UNL     1      47.701   7.299  12.343  0.00  0.00    +0.000 A 
ATOM      9  C   UNL     1      49.100   7.106  12.350  0.00  0.00    +0.000 A 
ATOM     10  C   UNL     1      49.990   8.162  12.114  0.00  0.00    +0.000 A 
ATOM     11  C   UNL     1      49.496   9.431  11.855  0.00  0.00    +0.000 A 
ATOM     12  F   UNL     1      50.347  10.435  11.613  0.00  0.00    +0.000 F 
ATOM     13  C   UNL     1      48.127   9.651  11.844  0.00  0.00    +0.000 A 
ATOM     14  F   UNL     1      47.643  10.874  11.588  0.00  0.00    +0.000 F 
ATOM     15  C   UNL     1      47.237   8.606  12.092  0.00  0.00    +0.000 A 
ENDBRANCH   6   8
ENDBRANCH   1   2
BRANCH   1  16
ATOM     16  N   UNL     1      43.714   4.843   9.849  0.00  0.00    +0.000 N 
ATOM     17  H   UNL     1      43.863   5.802   9.536  0.00  0.00    +0.000 HD
BRANCH  16  21
ATOM     18  C   UNL     1      46.319   2.272   7.941  0.00  0.00    +0.000 A 
ATOM     19  N   UNL     1      45.377   1.699   8.726  0.00  0.00    +0.000 NA
ATOM     20  C   UNL     1      44.540   2.562   9.350  0.00  0.00    +0.000 A 
ATOM     21  C   UNL     1      44.607   3.946   9.267  0.00  0.00    +0.000 A 
ATOM     22  C   UNL     1      45.592   4.384   8.390  0.00  0.00    +0.000 A 
ATOM     23  N   UNL     1      46.467   3.591   7.735  0.00  0.00    +0.000 NA
BRANCH  18  25
ATOM     24  N   UNL     1      48.327   1.943   6.580  0.00  0.00    +0.000 N 
ATOM     25  C   UNL     1      47.280   1.339   7.239  0.00  0.00    +0.000 C 
ATOM     26  O   UNL     1      47.169   0.117   7.229  0.00  0.00    +0.000 OA
ATOM     27  H   UNL     1      49.002   1.364   6.101  0.00  0.00    +0.000 HD
ATOM     28  H   UNL     1      48.428   2.950   6.594  0.00  0.00    +0.000 HD
ENDBRANCH  18  25
ENDBRANCH  16  21
ENDBRANCH   1  16
TORSDOF 5
ENDMDL
MODEL 5
REMARK VINA RESULT:    -8.590      4.341      7.717
REMARK INTER + INTRA:         -11.468
REMARK INTER:                 -10.861
REMARK INTRA:                  -0.608
REMARK UNBOUND:                -0.367
REMARK  Name = 
REMARK  5 active torsions:
REMARK  status: ('A' for Active; 'I' for Inactive)
REMARK    1  A    between atoms: C_2  and  C_4
REMARK    2  A    between atoms: C_7  and  N_8
REMARK    3  A    between atoms: N_8  and  C_9
REMARK    4  A    between atoms: C_9  and  C_10
REMARK    5  A    between atoms: C_14  and  C_15
REMARK                            x       y       z     vdW  Elec       q    Type
REMARK                         _______ _______ _______ _____ _____    ______ ____
ROOT
ATOM      1  C   UNL     1      43.737   4.754  11.457  0.00  0.00    +0.000 C 
ENDROOT
BRANCH   1   2
ATOM      2  C   UNL     1      44.946   5.462  12.008  0.00  0.00    +0.000 A 
ATOM      3  C   UNL     1      45.486   6.559  11.351  0.00  0.00    +0.000 A 
ATOM      4  N   UNL     1      46.586   7.218  11.771  0.00  0.00    +0.000 NA
ATOM      5  C   UNL     1      47.183   6.757  12.898  0.00  0.00    +0.000 A 
ATOM      6  C   UNL     1      46.740   5.674  13.664  0.00  0.00    +0.000 A 
ATOM      7  C   UNL     1      45.592   5.025  13.175  0.00  0.00    +0.000 A 
BRANCH   6   8
ATOM      8  C   UNL     1      47.425   5.250  14.909  0.00  0.00    +0.000 A 
ATOM      9  C   UNL     1      48.402   6.061  15.526  0.00  0.00    +0.000 A 
ATOM     10  C   UNL     1      49.037   5.675  16.714  0.00  0.00    +0.000 A 
ATOM     11  C   UNL     1      48.697   4.472  17.314  0.00  0.00    +0.000 A 
ATOM     12  F   UNL     1      49.292   4.112  18.457  0.00  0.00    +0.000 F 
ATOM     13  C   UNL     1      47.742   3.654  16.729  0.00  0.00    +0.000 A 
ATOM     14  F   UNL     1      47.405   2.493  17.306  0.00  0.00    +0.000 F 
ATOM     15  C   UNL     1      47.118   4.028  15.539  0.00  0.00    +0.000 A 
ENDBRANCH   6   8
ENDBRANCH   1   2
BRANCH   1  16
ATOM     16  N   UNL     1      43.804   4.754   9.999  0.00  0.00    +0.000 N 
ATOM     17  H   UNL     1      43.824   5.698   9.614  0.00  0.00    +0.000 HD
BRANCH  16  21
ATOM     18  C   UNL     1      46.338   2.278   7.881  0.00  0.00    +0.000 A 
ATOM     19  N   UNL     1      45.499   1.674   8.754  0.00  0.00    +0.000 NA
ATOM     20  C   UNL     1      44.684   2.507   9.445  0.00  0.00    +0.000 A 
ATOM     21  C   UNL     1      44.681   3.891   9.345  0.00  0.00    +0.000 A 
ATOM     22  C   UNL     1      45.560   4.361   8.378  0.00  0.00    +0.000 A 
ATOM     23  N   UNL     1      46.407   3.601   7.652  0.00  0.00    +0.000 NA
BRANCH  18  25
ATOM     24  N   UNL     1      48.388   1.992   6.573  0.00  0.00    +0.000 N 
ATOM     25  C   UNL     1      47.273   1.381   7.102  0.00  0.00    +0.000 C 
ATOM     26  O   UNL     1      47.085   0.182   6.924  0.00  0.00    +0.000 OA
ATOM     27  H   UNL     1      49.049   1.435   6.050  0.00  0.00    +0.000 HD
ATOM     28  H   UNL     1      48.551   2.979   6.726  0.00  0.00    +0.000 HD
ENDBRANCH  18  25
ENDBRANCH  16  21
ENDBRANCH   1  16
TORSDOF 5
ENDMDL
MODEL 6
REMARK VINA RESULT:    -7.944      4.594      7.470
REMARK INTER + INTRA:         -10.633
REMARK INTER:                  -9.941
REMARK INTRA:                  -0.692
REMARK UNBOUND:                -0.367
REMARK  Name = 
REMARK  5 active torsions:
REMARK  status: ('A' for Active; 'I' for Inactive)
REMARK    1  A    between atoms: C_2  and  C_4
REMARK    2  A    between atoms: C_7  and  N_8
REMARK    3  A    between atoms: N_8  and  C_9
REMARK    4  A    between atoms: C_9  and  C_10
REMARK    5  A    between atoms: C_14  and  C_15
REMARK                            x       y       z     vdW  Elec       q    Type
REMARK                         _______ _______ _______ _____ _____    ______ ____
ROOT
ATOM      1  C   UNL     1      44.257   4.176  11.768  0.00  0.00    +0.000 C 
ENDROOT
BRANCH   1   2
ATOM      2  C   UNL     1      44.779   5.587  11.807  0.00  0.00    +0.000 A 
ATOM      3  C   UNL     1      43.949   6.659  11.509  0.00  0.00    +0.000 A 
ATOM      4  N   UNL     1      44.360   7.944  11.492  0.00  0.00    +0.000 NA
ATOM      5  C   UNL     1      45.666   8.173  11.777  0.00  0.00    +0.000 A 
ATOM      6  C   UNL     1      46.607   7.192  12.106  0.00  0.00    +0.000 A 
ATOM      7  C   UNL     1      46.121   5.873  12.105  0.00  0.00    +0.000 A 
BRANCH   6   8
ATOM      8  C   UNL     1      48.012   7.523  12.444  0.00  0.00    +0.000 A 
ATOM      9  C   UNL     1      48.436   7.662  13.784  0.00  0.00    +0.000 A 
ATOM     10  C   UNL     1      49.766   7.954  14.110  0.00  0.00    +0.000 A 
ATOM     11  C   UNL     1      50.704   8.100  13.098  0.00  0.00    +0.000 A 
ATOM     12  F   UNL     1      51.979   8.362  13.411  0.00  0.00    +0.000 F 
ATOM     13  C   UNL     1      50.317   7.970  11.773  0.00  0.00    +0.000 A 
ATOM     14  F   UNL     1      51.219   8.105  10.792  0.00  0.00    +0.000 F 
ATOM     15  C   UNL     1      48.990   7.694  11.444  0.00  0.00    +0.000 A 
ENDBRANCH   6   8
ENDBRANCH   1   2
BRANCH   1  16
ATOM     16  N   UNL     1      43.837   3.857  10.407  0.00  0.00    +0.000 N 
ATOM     17  H   UNL     1      43.184   4.545  10.033  0.00  0.00    +0.000 HD
BRANCH  16  21
ATOM     18  C   UNL     1      46.523   2.742   7.478  0.00  0.00    +0.000 A 
ATOM     19  N   UNL     1      46.055   1.751   8.271  0.00  0.00    +0.000 NA
ATOM     20  C   UNL     1      45.183   2.141   9.232  0.00  0.00    +0.000 A 
ATOM     21  C   UNL     1      44.783   3.449   9.468  0.00  0.00    +0.000 A 
ATOM     22  C   UNL     1      45.308   4.346   8.546  0.00  0.00    +0.000 A 
ATOM     23  N   UNL     1      46.184   4.040   7.566  0.00  0.00    +0.000 NA
BRANCH  18  25
ATOM     24  N   UNL     1      47.413   3.037   5.217  0.00  0.00    +0.000 N 
ATOM     25  C   UNL     1      47.509   2.346   6.403  0.00  0.00    +0.000 C 
ATOM     26  O   UNL     1      48.355   1.466   6.536  0.00  0.00    +0.000 OA
ATOM     27  H   UNL     1      48.055   2.816   4.468  0.00  0.00    +0.000 HD
ATOM     28  H   UNL     1      46.724   3.770   5.106  0.00  0.00    +0.000 HD
ENDBRANCH  18  25
ENDBRANCH  16  21
ENDBRANCH   1  16
TORSDOF 5
ENDMDL
MODEL 7
REMARK VINA RESULT:    -7.792      1.743      2.300
REMARK INTER + INTRA:         -10.437
REMARK INTER:                  -9.952
REMARK INTRA:                  -0.484
REMARK UNBOUND:                -0.367
REMARK  Name = 
REMARK  5 active torsions:
REMARK  status: ('A' for Active; 'I' for Inactive)
REMARK    1  A    between atoms: C_2  and  C_4
REMARK    2  A    between atoms: C_7  and  N_8
REMARK    3  A    between atoms: N_8  and  C_9
REMARK    4  A    between atoms: C_9  and  C_10
REMARK    5  A    between atoms: C_14  and  C_15
REMARK                            x       y       z     vdW  Elec       q    Type
REMARK                         _______ _______ _______ _____ _____    ______ ____
ROOT
ATOM      1  C   UNL     1      46.147   5.507  13.942  0.00  0.00    +0.000 C 
ENDROOT
BRANCH   1   2
ATOM      2  C   UNL     1      45.242   5.105  12.808  0.00  0.00    +0.000 A 
ATOM      3  C   UNL     1      43.870   5.299  12.893  0.00  0.00    +0.000 A 
ATOM      4  N   UNL     1      43.000   4.932  11.929  0.00  0.00    +0.000 NA
ATOM      5  C   UNL     1      43.521   4.334  10.828  0.00  0.00    +0.000 A 
ATOM      6  C   UNL     1      44.880   4.090  10.607  0.00  0.00    +0.000 A 
ATOM      7  C   UNL     1      45.737   4.491  11.647  0.00  0.00    +0.000 A 
BRANCH   6   8
ATOM      8  C   UNL     1      45.380   3.464   9.359  0.00  0.00    +0.000 A 
ATOM      9  C   UNL     1      45.733   4.242   8.234  0.00  0.00    +0.000 A 
ATOM     10  C   UNL     1      46.225   3.658   7.060  0.00  0.00    +0.000 A 
ATOM     11  C   UNL     1      46.386   2.281   6.994  0.00  0.00    +0.000 A 
ATOM     12  F   UNL     1      46.873   1.726   5.877  0.00  0.00    +0.000 F 
ATOM     13  C   UNL     1      46.046   1.492   8.082  0.00  0.00    +0.000 A 
ATOM     14  F   UNL     1      46.204   0.163   8.026  0.00  0.00    +0.000 F 
ATOM     15  C   UNL     1      45.542   2.069   9.247  0.00  0.00    +0.000 A 
ENDBRANCH   6   8
ENDBRANCH   1   2
BRANCH   1  16
ATOM     16  N   UNL     1      46.224   4.412  14.904  0.00  0.00    +0.000 N 
ATOM     17  H   UNL     1      45.940   3.521  14.499  0.00  0.00    +0.000 HD
BRANCH  16  21
ATOM     18  C   UNL     1      49.640   4.158  17.207  0.00  0.00    +0.000 A 
ATOM     19  N   UNL     1      48.984   2.998  16.978  0.00  0.00    +0.000 NA
ATOM     20  C   UNL     1      47.860   3.106  16.228  0.00  0.00    +0.000 A 
ATOM     21  C   UNL     1      47.340   4.293  15.731  0.00  0.00    +0.000 A 
ATOM     22  C   UNL     1      48.146   5.390  16.008  0.00  0.00    +0.000 A 
ATOM     23  N   UNL     1      49.274   5.367  16.749  0.00  0.00    +0.000 NA
BRANCH  18  25
ATOM     24  N   UNL     1      50.715   4.267  19.404  0.00  0.00    +0.000 N 
ATOM     25  C   UNL     1      50.891   4.078  18.052  0.00  0.00    +0.000 C 
ATOM     26  O   UNL     1      52.013   3.864  17.601  0.00  0.00    +0.000 OA
ATOM     27  H   UNL     1      51.519   4.215  20.014  0.00  0.00    +0.000 HD
ATOM     28  H   UNL     1      49.791   4.433  19.781  0.00  0.00    +0.000 HD
ENDBRANCH  18  25
ENDBRANCH  16  21
ENDBRANCH   1  16
TORSDOF 5
ENDMDL
MODEL 8
REMARK VINA RESULT:    -7.250      2.316      3.307
REMARK INTER + INTRA:          -9.736
REMARK INTER:                  -9.087
REMARK INTRA:                  -0.649
REMARK UNBOUND:                -0.367
REMARK  Name = 
REMARK  5 active torsions:
REMARK  status: ('A' for Active; 'I' for Inactive)
REMARK    1  A    between atoms: C_2  and  C_4
REMARK    2  A    between atoms: C_7  and  N_8
REMARK    3  A    between atoms: N_8  and  C_9
REMARK    4  A    between atoms: C_9  and  C_10
REMARK    5  A    between atoms: C_14  and  C_15
REMARK                            x       y       z     vdW  Elec       q    Type
REMARK                         _______ _______ _______ _____ _____    ______ ____
ROOT
ATOM      1  C   UNL     1      48.442   8.044  13.426  0.00  0.00    +0.000 C 
ENDROOT
BRANCH   1   2
ATOM      2  C   UNL     1      47.141   7.898  12.684  0.00  0.00    +0.000 A 
ATOM      3  C   UNL     1      46.231   8.944  12.635  0.00  0.00    +0.000 A 
ATOM      4  N   UNL     1      45.034   8.869  12.017  0.00  0.00    +0.000 NA
ATOM      5  C   UNL     1      44.723   7.689  11.424  0.00  0.00    +0.000 A 
ATOM      6  C   UNL     1      45.549   6.561  11.386  0.00  0.00    +0.000 A 
ATOM      7  C   UNL     1      46.781   6.698  12.049  0.00  0.00    +0.000 A 
BRANCH   6   8
ATOM      8  C   UNL     1      45.156   5.315  10.684  0.00  0.00    +0.000 A 
ATOM      9  C   UNL     1      45.578   5.047   9.364  0.00  0.00    +0.000 A 
ATOM     10  C   UNL     1      45.228   3.862   8.704  0.00  0.00    +0.000 A 
ATOM     11  C   UNL     1      44.456   2.914   9.360  0.00  0.00    +0.000 A 
ATOM     12  F   UNL     1      44.136   1.775   8.734  0.00  0.00    +0.000 F 
ATOM     13  C   UNL     1      44.025   3.151  10.656  0.00  0.00    +0.000 A 
ATOM     14  F   UNL     1      43.284   2.237  11.297  0.00  0.00    +0.000 F 
ATOM     15  C   UNL     1      44.360   4.336  11.311  0.00  0.00    +0.000 A 
ENDBRANCH   6   8
ENDBRANCH   1   2
BRANCH   1  16
ATOM     16  N   UNL     1      48.206   7.841  14.852  0.00  0.00    +0.000 N 
ATOM     17  H   UNL     1      47.262   8.107  15.129  0.00  0.00    +0.000 HD
BRANCH  16  21
ATOM     18  C   UNL     1      49.283   4.343  16.762  0.00  0.00    +0.000 A 
ATOM     19  N   UNL     1      50.139   5.384  16.888  0.00  0.00    +0.000 NA
ATOM     20  C   UNL     1      49.770   6.518  16.244  0.00  0.00    +0.000 A 
ATOM     21  C   UNL     1      48.632   6.663  15.464  0.00  0.00    +0.000 A 
ATOM     22  C   UNL     1      47.830   5.529  15.468  0.00  0.00    +0.000 A 
ATOM     23  N   UNL     1      48.126   4.361  16.077  0.00  0.00    +0.000 NA
BRANCH  18  25
ATOM     24  N   UNL     1      49.187   2.897  18.735  0.00  0.00    +0.000 N 
ATOM     25  C   UNL     1      49.668   3.056  17.455  0.00  0.00    +0.000 C 
ATOM     26  O   UNL     1      50.368   2.185  16.948  0.00  0.00    +0.000 OA
ATOM     27  H   UNL     1      49.410   2.051  19.239  0.00  0.00    +0.000 HD
ATOM     28  H   UNL     1      48.602   3.609  19.153  0.00  0.00    +0.000 HD
ENDBRANCH  18  25
ENDBRANCH  16  21
ENDBRANCH   1  16
TORSDOF 5
ENDMDL
MODEL 9
REMARK VINA RESULT:    -7.229      2.708      3.869
REMARK INTER + INTRA:          -9.709
REMARK INTER:                  -9.235
REMARK INTRA:                  -0.474
REMARK UNBOUND:                -0.367
REMARK  Name = 
REMARK  5 active torsions:
REMARK  status: ('A' for Active; 'I' for Inactive)
REMARK    1  A    between atoms: C_2  and  C_4
REMARK    2  A    between atoms: C_7  and  N_8
REMARK    3  A    between atoms: N_8  and  C_9
REMARK    4  A    between atoms: C_9  and  C_10
REMARK    5  A    between atoms: C_14  and  C_15
REMARK                            x       y       z     vdW  Elec       q    Type
REMARK                         _______ _______ _______ _____ _____    ______ ____
ROOT
ATOM      1  C   UNL     1      45.507   4.806  13.633  0.00  0.00    +0.000 C 
ENDROOT
BRANCH   1   2
ATOM      2  C   UNL     1      44.878   4.685  12.270  0.00  0.00    +0.000 A 
ATOM      3  C   UNL     1      43.601   5.172  12.032  0.00  0.00    +0.000 A 
ATOM      4  N   UNL     1      42.967   5.066  10.846  0.00  0.00    +0.000 NA
ATOM      5  C   UNL     1      43.635   4.437   9.848  0.00  0.00    +0.000 A 
ATOM      6  C   UNL     1      44.927   3.912   9.945  0.00  0.00    +0.000 A 
ATOM      7  C   UNL     1      45.536   4.049  11.205  0.00  0.00    +0.000 A 
BRANCH   6   8
ATOM      8  C   UNL     1      45.611   3.270   8.796  0.00  0.00    +0.000 A 
ATOM      9  C   UNL     1      46.104   4.029   7.712  0.00  0.00    +0.000 A 
ATOM     10  C   UNL     1      46.769   3.429   6.635  0.00  0.00    +0.000 A 
ATOM     11  C   UNL     1      46.963   2.056   6.627  0.00  0.00    +0.000 A 
ATOM     12  F   UNL     1      47.613   1.486   5.605  0.00  0.00    +0.000 F 
ATOM     13  C   UNL     1      46.487   1.284   7.676  0.00  0.00    +0.000 A 
ATOM     14  F   UNL     1      46.676  -0.042   7.678  0.00  0.00    +0.000 F 
ATOM     15  C   UNL     1      45.813   1.876   8.744  0.00  0.00    +0.000 A 
ENDBRANCH   6   8
ENDBRANCH   1   2
BRANCH   1  16
ATOM     16  N   UNL     1      46.921   5.133  13.482  0.00  0.00    +0.000 N 
ATOM     17  H   UNL     1      47.449   4.376  13.050  0.00  0.00    +0.000 HD
BRANCH  16  21
ATOM     18  C   UNL     1      48.180   8.851  12.204  0.00  0.00    +0.000 A 
ATOM     19  N   UNL     1      46.871   8.738  12.524  0.00  0.00    +0.000 NA
ATOM     20  C   UNL     1      46.477   7.507  12.930  0.00  0.00    +0.000 A 
ATOM     21  C   UNL     1      47.295   6.388  13.003  0.00  0.00    +0.000 A 
ATOM     22  C   UNL     1      48.619   6.668  12.690  0.00  0.00    +0.000 A 
ATOM     23  N   UNL     1      49.089   7.863  12.272  0.00  0.00    +0.000 NA
BRANCH  18  25
ATOM     24  N   UNL     1      49.939  10.549  12.082  0.00  0.00    +0.000 N 
ATOM     25  C   UNL     1      48.653  10.207  11.732  0.00  0.00    +0.000 C 
ATOM     26  O   UNL     1      47.964  10.986  11.081  0.00  0.00    +0.000 OA
ATOM     27  H   UNL     1      50.306  11.442  11.785  0.00  0.00    +0.000 HD
ATOM     28  H   UNL     1      50.514   9.905  12.611  0.00  0.00    +0.000 HD
ENDBRANCH  18  25
ENDBRANCH  16  21
ENDBRANCH   1  16
TORSDOF 5
ENDMDL
