MODEL 1
REMARK VINA RESULT:    -7.228      0.000      0.000
REMARK INTER + INTRA:         -10.540
REMARK INTER:                  -9.764
REMARK INTRA:                  -0.776
REMARK UNBOUND:                -0.776
REMARK  Name = 
REMARK  10 active torsions:
REMARK  status: ('A' for Active; 'I' for Inactive)
REMARK    1  A    between atoms: C_1  and  C_2
REMARK    2  A    between atoms: C_2  and  C_3
REMARK    3  A    between atoms: C_2  and  N_4
REMARK    4  A    between atoms: C_5  and  C_7
REMARK    5  A    between atoms: C_11  and  O_12
REMARK    6  A    between atoms: O_12  and  C_13
REMARK    7  A    between atoms: C_13  and  C_14
REMARK    8  A    between atoms: C_14  and  C_15
REMARK    9  A    between atoms: C_14  and  C_16
REMARK   10  A    between atoms: C_14  and  C_17
REMARK                            x       y       z     vdW  Elec       q    Type
REMARK                         _______ _______ _______ _____ _____    ______ ____
ROOT
ATOM      1  C   UNL     1      48.038   4.996  16.207  0.00  0.00    +0.000 A 
ATOM      2  C   UNL     1      48.209   3.640  16.349  0.00  0.00    +0.000 A 
ATOM      3  N   UNL     1      47.810   2.769  15.406  0.00  0.00    +0.000 NA
ATOM      4  N   UNL     1      47.245   3.254  14.271  0.00  0.00    +0.000 NA
ATOM      5  C   UNL     1      47.085   4.575  14.076  0.00  0.00    +0.000 A 
ATOM      6  C   UNL     1      47.467   5.505  15.039  0.00  0.00    +0.000 A 
ENDROOT
BRANCH   1   8
ATOM      7  N   UNL     1      47.560   6.295  18.201  0.00  0.00    +0.000 N 
ATOM      8  C   UNL     1      48.516   5.871  17.300  0.00  0.00    +0.000 C 
ATOM      9  O   UNL     1      49.701   6.159  17.359  0.00  0.00    +0.000 OA
ATOM     10  H   UNL     1      46.630   5.898  18.166  0.00  0.00    +0.000 HD
BRANCH   7  12
ATOM     11  C   UNL     1      47.336   8.529  19.182  0.00  0.00    +0.000 C 
ATOM     12  C   UNL     1      47.909   7.124  19.348  0.00  0.00    +0.000 C 
ATOM     13  C   UNL     1      47.412   6.517  20.660  0.00  0.00    +0.000 C 
ENDBRANCH   7  12
ENDBRANCH   1   8
BRANCH   5  14
ATOM     14  O   UNL     1      46.529   4.984  12.880  0.00  0.00    +0.000 OA
BRANCH  14  15
ATOM     15  C   UNL     1      45.138   4.561  12.736  0.00  0.00    +0.000 C 
BRANCH  15  16
ATOM     16  C   UNL     1      44.519   5.173  11.443  0.00  0.00    +0.000 C 
ATOM     17  C   UNL     1      42.981   5.238  11.579  0.00  0.00    +0.000 C 
ATOM     18  C   UNL     1      45.031   6.630  11.323  0.00  0.00    +0.000 C 
BRANCH  16  19
ATOM     19  C   UNL     1      44.849   4.300  10.213  0.00  0.00    +0.000 A 
ATOM     20  C   UNL     1      45.554   4.846   9.120  0.00  0.00    +0.000 A 
ATOM     21  C   UNL     1      45.925   4.061   8.024  0.00  0.00    +0.000 A 
ATOM     22  C   UNL     1      45.609   2.709   7.999  0.00  0.00    +0.000 A 
ATOM     23  C   UNL     1      44.908   2.147   9.060  0.00  0.00    +0.000 A 
ATOM     24  C   UNL     1      44.526   2.934  10.151  0.00  0.00    +0.000 A 
ENDBRANCH  16  19
ENDBRANCH  15  16
ENDBRANCH  14  15
ENDBRANCH   5  14
TORSDOF 6
ENDMDL
MODEL 2
REMARK VINA RESULT:    -7.137      2.040      2.699
REMARK INTER + INTRA:         -10.417
REMARK INTER:                  -9.616
REMARK INTRA:                  -0.801
REMARK UNBOUND:                -0.776
REMARK  Name = 
REMARK  10 active torsions:
REMARK  status: ('A' for Active; 'I' for Inactive)
REMARK    1  A    between atoms: C_1  and  C_2
REMARK    2  A    between atoms: C_2  and  C_3
REMARK    3  A    between atoms: C_2  and  N_4
REMARK    4  A    between atoms: C_5  and  C_7
REMARK    5  A    between atoms: C_11  and  O_12
REMARK    6  A    between atoms: O_12  and  C_13
REMARK    7  A    between atoms: C_13  and  C_14
REMARK    8  A    between atoms: C_14  and  C_15
REMARK    9  A    between atoms: C_14  and  C_16
REMARK   10  A    between atoms: C_14  and  C_17
REMARK                            x       y       z     vdW  Elec       q    Type
REMARK                         _______ _______ _______ _____ _____    ______ ____
ROOT
ATOM      1  C   UNL     1      48.176   6.399  14.248  0.00  0.00    +0.000 A 
ATOM      2  C   UNL     1      48.896   7.434  13.705  0.00  0.00    +0.000 A 
ATOM      3  N   UNL     1      48.616   7.937  12.491  0.00  0.00    +0.000 NA
ATOM      4  N   UNL     1      47.571   7.417  11.798  0.00  0.00    +0.000 NA
ATOM      5  C   UNL     1      46.819   6.423  12.303  0.00  0.00    +0.000 A 
ATOM      6  C   UNL     1      47.093   5.864  13.548  0.00  0.00    +0.000 A 
ENDROOT
BRANCH   1   8
ATOM      7  N   UNL     1      47.607   5.193  16.277  0.00  0.00    +0.000 N 
ATOM      8  C   UNL     1      48.561   5.920  15.595  0.00  0.00    +0.000 C 
ATOM      9  O   UNL     1      49.676   6.174  16.022  0.00  0.00    +0.000 OA
ATOM     10  H   UNL     1      46.763   4.903  15.799  0.00  0.00    +0.000 HD
BRANCH   7  12
ATOM     11  C   UNL     1      47.168   5.435  18.675  0.00  0.00    +0.000 C 
ATOM     12  C   UNL     1      47.878   4.626  17.593  0.00  0.00    +0.000 C 
ATOM     13  C   UNL     1      47.450   3.161  17.681  0.00  0.00    +0.000 C 
ENDBRANCH   7  12
ENDBRANCH   1   8
BRANCH   5  14
ATOM     14  O   UNL     1      45.757   5.973  11.545  0.00  0.00    +0.000 OA
BRANCH  14  15
ATOM     15  C   UNL     1      45.327   4.630  11.925  0.00  0.00    +0.000 C 
BRANCH  15  16
ATOM     16  C   UNL     1      44.279   4.089  10.906  0.00  0.00    +0.000 C 
ATOM     17  C   UNL     1      43.474   2.935  11.546  0.00  0.00    +0.000 C 
ATOM     18  C   UNL     1      43.280   5.235  10.610  0.00  0.00    +0.000 C 
BRANCH  16  19
ATOM     19  C   UNL     1      44.977   3.538   9.645  0.00  0.00    +0.000 A 
ATOM     20  C   UNL     1      45.509   4.420   8.681  0.00  0.00    +0.000 A 
ATOM     21  C   UNL     1      46.205   3.949   7.564  0.00  0.00    +0.000 A 
ATOM     22  C   UNL     1      46.395   2.584   7.389  0.00  0.00    +0.000 A 
ATOM     23  C   UNL     1      45.875   1.693   8.319  0.00  0.00    +0.000 A 
ATOM     24  C   UNL     1      45.168   2.162   9.431  0.00  0.00    +0.000 A 
ENDBRANCH  16  19
ENDBRANCH  15  16
ENDBRANCH  14  15
ENDBRANCH   5  14
TORSDOF 6
ENDMDL
MODEL 3
REMARK VINA RESULT:    -6.946      1.508      2.042
REMARK INTER + INTRA:         -10.159
REMARK INTER:                  -9.306
REMARK INTRA:                  -0.853
REMARK UNBOUND:                -0.776
REMARK  Name = 
REMARK  10 active torsions:
REMARK  status: ('A' for Active; 'I' for Inactive)
REMARK    1  A    between atoms: C_1  and  C_2
REMARK    2  A    between atoms: C_2  and  C_3
REMARK    3  A    between atoms: C_2  and  N_4
REMARK    4  A    between atoms: C_5  and  C_7
REMARK    5  A    between atoms: C_11  and  O_12
REMARK    6  A    between atoms: O_12  and  C_13
REMARK    7  A    between atoms: C_13  and  C_14
REMARK    8  A    between atoms: C_14  and  C_15
REMARK    9  A    between atoms: C_14  and  C_16
REMARK   10  A    between atoms: C_14  and  C_17
REMARK                            x       y       z     vdW  Elec       q    Type
REMARK                         _______ _______ _______ _____ _____    ______ ____
ROOT
ATOM      1  C   UNL     1      47.613   4.917  16.031  0.00  0.00    +0.000 A 
ATOM      2  C   UNL     1      48.511   5.898  15.688  0.00  0.00    +0.000 A 
ATOM      3  N   UNL     1      48.675   6.300  14.416  0.00  0.00    +0.000 NA
ATOM      4  N   UNL     1      47.909   5.731  13.451  0.00  0.00    +0.000 NA
ATOM      5  C   UNL     1      46.997   4.788  13.744  0.00  0.00    +0.000 A 
ATOM      6  C   UNL     1      46.813   4.333  15.047  0.00  0.00    +0.000 A 
ENDROOT
BRANCH   1   8
ATOM      7  N   UNL     1      48.116   5.404  18.356  0.00  0.00    +0.000 N 
ATOM      8  C   UNL     1      47.504   4.550  17.460  0.00  0.00    +0.000 C 
ATOM      9  O   UNL     1      46.886   3.544  17.773  0.00  0.00    +0.000 OA
ATOM     10  H   UNL     1      48.484   6.289  18.030  0.00  0.00    +0.000 HD
BRANCH   7  12
ATOM     11  C   UNL     1      49.425   4.843  20.349  0.00  0.00    +0.000 C 
ATOM     12  C   UNL     1      48.044   5.179  19.794  0.00  0.00    +0.000 C 
ATOM     13  C   UNL     1      47.474   6.391  20.531  0.00  0.00    +0.000 C 
ENDBRANCH   7  12
ENDBRANCH   1   8
BRANCH   5  14
ATOM     14  O   UNL     1      46.239   4.284  12.706  0.00  0.00    +0.000 OA
BRANCH  14  15
ATOM     15  C   UNL     1      44.813   4.563  12.867  0.00  0.00    +0.000 C 
BRANCH  15  16
ATOM     16  C   UNL     1      44.220   5.123  11.540  0.00  0.00    +0.000 C 
ATOM     17  C   UNL     1      42.676   5.062  11.590  0.00  0.00    +0.000 C 
ATOM     18  C   UNL     1      44.617   6.617  11.443  0.00  0.00    +0.000 C 
BRANCH  16  19
ATOM     19  C   UNL     1      44.687   4.280  10.334  0.00  0.00    +0.000 A 
ATOM     20  C   UNL     1      44.333   2.919  10.235  0.00  0.00    +0.000 A 
ATOM     21  C   UNL     1      44.685   2.150   9.122  0.00  0.00    +0.000 A 
ATOM     22  C   UNL     1      45.392   2.728   8.075  0.00  0.00    +0.000 A 
ATOM     23  C   UNL     1      45.760   4.066   8.149  0.00  0.00    +0.000 A 
ATOM     24  C   UNL     1      45.419   4.832   9.269  0.00  0.00    +0.000 A 
ENDBRANCH  16  19
ENDBRANCH  15  16
ENDBRANCH  14  15
ENDBRANCH   5  14
TORSDOF 6
ENDMDL
MODEL 4
REMARK VINA RESULT:    -6.842      2.575      3.651
REMARK INTER + INTRA:         -10.018
REMARK INTER:                  -9.151
REMARK INTRA:                  -0.866
REMARK UNBOUND:                -0.776
REMARK  Name = 
REMARK  10 active torsions:
REMARK  status: ('A' for Active; 'I' for Inactive)
REMARK    1  A    between atoms: C_1  and  C_2
REMARK    2  A    between atoms: C_2  and  C_3
REMARK    3  A    between atoms: C_2  and  N_4
REMARK    4  A    between atoms: C_5  and  C_7
REMARK    5  A    between atoms: C_11  and  O_12
REMARK    6  A    between atoms: O_12  and  C_13
REMARK    7  A    between atoms: C_13  and  C_14
REMARK    8  A    between atoms: C_14  and  C_15
REMARK    9  A    between atoms: C_14  and  C_16
REMARK   10  A    between atoms: C_14  and  C_17
REMARK                            x       y       z     vdW  Elec       q    Type
REMARK                         _______ _______ _______ _____ _____    ______ ____
ROOT
ATOM      1  C   UNL     1      48.213   6.246  14.683  0.00  0.00    +0.000 A 
ATOM      2  C   UNL     1      48.505   5.537  15.822  0.00  0.00    +0.000 A 
ATOM      3  N   UNL     1      47.855   4.406  16.144  0.00  0.00    +0.000 NA
ATOM      4  N   UNL     1      46.898   3.944  15.299  0.00  0.00    +0.000 NA
ATOM      5  C   UNL     1      46.600   4.588  14.158  0.00  0.00    +0.000 A 
ATOM      6  C   UNL     1      47.239   5.773  13.802  0.00  0.00    +0.000 A 
ENDROOT
BRANCH   1   8
ATOM      7  N   UNL     1      50.019   7.359  13.502  0.00  0.00    +0.000 N 
ATOM      8  C   UNL     1      48.991   7.476  14.416  0.00  0.00    +0.000 C 
ATOM      9  O   UNL     1      48.690   8.509  14.992  0.00  0.00    +0.000 OA
ATOM     10  H   UNL     1      50.114   6.508  12.963  0.00  0.00    +0.000 HD
BRANCH   7  12
ATOM     11  C   UNL     1      52.172   8.476  13.846  0.00  0.00    +0.000 C 
ATOM     12  C   UNL     1      50.831   8.507  13.118  0.00  0.00    +0.000 C 
ATOM     13  C   UNL     1      51.066   8.558  11.609  0.00  0.00    +0.000 C 
ENDBRANCH   7  12
ENDBRANCH   1   8
BRANCH   5  14
ATOM     14  O   UNL     1      45.636   4.033  13.340  0.00  0.00    +0.000 OA
BRANCH  14  15
ATOM     15  C   UNL     1      45.187   4.954  12.298  0.00  0.00    +0.000 C 
BRANCH  15  16
ATOM     16  C   UNL     1      44.175   4.245  11.350  0.00  0.00    +0.000 C 
ATOM     17  C   UNL     1      43.562   3.017  12.061  0.00  0.00    +0.000 C 
ATOM     18  C   UNL     1      43.019   5.237  11.072  0.00  0.00    +0.000 C 
BRANCH  16  19
ATOM     19  C   UNL     1      44.882   3.747  10.071  0.00  0.00    +0.000 A 
ATOM     20  C   UNL     1      44.922   2.369   9.770  0.00  0.00    +0.000 A 
ATOM     21  C   UNL     1      45.495   1.896   8.585  0.00  0.00    +0.000 A 
ATOM     22  C   UNL     1      46.034   2.791   7.669  0.00  0.00    +0.000 A 
ATOM     23  C   UNL     1      46.014   4.152   7.945  0.00  0.00    +0.000 A 
ATOM     24  C   UNL     1      45.452   4.625   9.135  0.00  0.00    +0.000 A 
ENDBRANCH  16  19
ENDBRANCH  15  16
ENDBRANCH  14  15
ENDBRANCH   5  14
TORSDOF 6
ENDMDL
MODEL 5
REMARK VINA RESULT:    -6.763      3.579      4.930
REMARK INTER + INTRA:          -9.911
REMARK INTER:                  -8.984
REMARK INTRA:                  -0.927
REMARK UNBOUND:                -0.776
REMARK  Name = 
REMARK  10 active torsions:
REMARK  status: ('A' for Active; 'I' for Inactive)
REMARK    1  A    between atoms: C_1  and  C_2
REMARK    2  A    between atoms: C_2  and  C_3
REMARK    3  A    between atoms: C_2  and  N_4
REMARK    4  A    between atoms: C_5  and  C_7
REMARK    5  A    between atoms: C_11  and  O_12
REMARK    6  A    between atoms: O_12  and  C_13
REMARK    7  A    between atoms: C_13  and  C_14
REMARK    8  A    between atoms: C_14  and  C_15
REMARK    9  A    between atoms: C_14  and  C_16
REMARK   10  A    between atoms: C_14  and  C_17
REMARK                            x       y       z     vdW  Elec       q    Type
REMARK                         _______ _______ _______ _____ _____    ______ ____
ROOT
ATOM      1  C   UNL     1      48.961   7.179  12.797  0.00  0.00    +0.000 A 
ATOM      2  C   UNL     1      49.448   6.972  14.065  0.00  0.00    +0.000 A 
ATOM      3  N   UNL     1      48.780   6.243  14.975  0.00  0.00    +0.000 NA
ATOM      4  N   UNL     1      47.600   5.676  14.613  0.00  0.00    +0.000 NA
ATOM      5  C   UNL     1      47.100   5.826  13.375  0.00  0.00    +0.000 A 
ATOM      6  C   UNL     1      47.754   6.592  12.413  0.00  0.00    +0.000 A 
ENDROOT
BRANCH   1   8
ATOM      7  N   UNL     1      50.967   7.433  11.454  0.00  0.00    +0.000 N 
ATOM      8  C   UNL     1      49.776   7.994  11.868  0.00  0.00    +0.000 C 
ATOM      9  O   UNL     1      49.363   9.087  11.515  0.00  0.00    +0.000 OA
ATOM     10  H   UNL     1      51.169   6.467  11.678  0.00  0.00    +0.000 HD
BRANCH   7  12
ATOM     11  C   UNL     1      52.922   8.895  11.245  0.00  0.00    +0.000 C 
ATOM     12  C   UNL     1      51.840   8.113  10.505  0.00  0.00    +0.000 C 
ATOM     13  C   UNL     1      52.489   7.134   9.527  0.00  0.00    +0.000 C 
ENDBRANCH   7  12
ENDBRANCH   1   8
BRANCH   5  14
ATOM     14  O   UNL     1      45.910   5.191  13.082  0.00  0.00    +0.000 OA
BRANCH  14  15
ATOM     15  C   UNL     1      45.401   5.538  11.756  0.00  0.00    +0.000 C 
BRANCH  15  16
ATOM     16  C   UNL     1      44.460   4.415  11.228  0.00  0.00    +0.000 C 
ATOM     17  C   UNL     1      44.375   3.272  12.265  0.00  0.00    +0.000 C 
ATOM     18  C   UNL     1      43.040   5.018  11.093  0.00  0.00    +0.000 C 
BRANCH  16  19
ATOM     19  C   UNL     1      45.005   3.819   9.912  0.00  0.00    +0.000 A 
ATOM     20  C   UNL     1      45.576   4.658   8.933  0.00  0.00    +0.000 A 
ATOM     21  C   UNL     1      46.138   4.139   7.763  0.00  0.00    +0.000 A 
ATOM     22  C   UNL     1      46.151   2.767   7.548  0.00  0.00    +0.000 A 
ATOM     23  C   UNL     1      45.588   1.918   8.493  0.00  0.00    +0.000 A 
ATOM     24  C   UNL     1      45.015   2.437   9.658  0.00  0.00    +0.000 A 
ENDBRANCH  16  19
ENDBRANCH  15  16
ENDBRANCH  14  15
ENDBRANCH   5  14
TORSDOF 6
ENDMDL
MODEL 6
REMARK VINA RESULT:    -6.693      1.091      1.594
REMARK INTER + INTRA:          -9.816
REMARK INTER:                  -9.093
REMARK INTRA:                  -0.723
REMARK UNBOUND:                -0.776
REMARK  Name = 
REMARK  10 active torsions:
REMARK  status: ('A' for Active; 'I' for Inactive)
REMARK    1  A    between atoms: C_1  and  C_2
REMARK    2  A    between atoms: C_2  and  C_3
REMARK    3  A    between atoms: C_2  and  N_4
REMARK    4  A    between atoms: C_5  and  C_7
REMARK    5  A    between atoms: C_11  and  O_12
REMARK    6  A    between atoms: O_12  and  C_13
REMARK    7  A    between atoms: C_13  and  C_14
REMARK    8  A    between atoms: C_14  and  C_15
REMARK    9  A    between atoms: C_14  and  C_16
REMARK   10  A    between atoms: C_14  and  C_17
REMARK                            x       y       z     vdW  Elec       q    Type
REMARK                         _______ _______ _______ _____ _____    ______ ____
ROOT
ATOM      1  C   UNL     1      48.012   4.273  17.059  0.00  0.00    +0.000 A 
ATOM      2  C   UNL     1      48.490   3.035  16.706  0.00  0.00    +0.000 A 
ATOM      3  N   UNL     1      48.255   2.499  15.496  0.00  0.00    +0.000 NA
ATOM      4  N   UNL     1      47.543   3.221  14.593  0.00  0.00    +0.000 NA
ATOM      5  C   UNL     1      47.081   4.449  14.885  0.00  0.00    +0.000 A 
ATOM      6  C   UNL     1      47.287   5.028  16.134  0.00  0.00    +0.000 A 
ENDROOT
BRANCH   1   8
ATOM      7  N   UNL     1      48.211   6.139  18.600  0.00  0.00    +0.000 N 
ATOM      8  C   UNL     1      48.330   4.777  18.414  0.00  0.00    +0.000 C 
ATOM      9  O   UNL     1      48.664   3.985  19.281  0.00  0.00    +0.000 OA
ATOM     10  H   UNL     1      47.792   6.707  17.874  0.00  0.00    +0.000 HD
BRANCH   7  12
ATOM     11  C   UNL     1      49.941   7.033  20.086  0.00  0.00    +0.000 C 
ATOM     12  C   UNL     1      48.452   6.755  19.898  0.00  0.00    +0.000 C 
ATOM     13  C   UNL     1      47.661   8.052  20.068  0.00  0.00    +0.000 C 
ENDBRANCH   7  12
ENDBRANCH   1   8
BRANCH   5  14
ATOM     14  O   UNL     1      46.392   5.126  13.898  0.00  0.00    +0.000 OA
BRANCH  14  15
ATOM     15  C   UNL     1      45.396   4.288  13.234  0.00  0.00    +0.000 C 
BRANCH  15  16
ATOM     16  C   UNL     1      44.699   5.082  12.089  0.00  0.00    +0.000 C 
ATOM     17  C   UNL     1      43.178   5.158  12.355  0.00  0.00    +0.000 C 
ATOM     18  C   UNL     1      45.243   6.532  12.126  0.00  0.00    +0.000 C 
BRANCH  16  19
ATOM     19  C   UNL     1      44.908   4.380  10.731  0.00  0.00    +0.000 A 
ATOM     20  C   UNL     1      44.456   3.058  10.535  0.00  0.00    +0.000 A 
ATOM     21  C   UNL     1      44.571   2.422   9.296  0.00  0.00    +0.000 A 
ATOM     22  C   UNL     1      45.132   3.096   8.218  0.00  0.00    +0.000 A 
ATOM     23  C   UNL     1      45.591   4.397   8.385  0.00  0.00    +0.000 A 
ATOM     24  C   UNL     1      45.488   5.030   9.628  0.00  0.00    +0.000 A 
ENDBRANCH  16  19
ENDBRANCH  15  16
ENDBRANCH  14  15
ENDBRANCH   5  14
TORSDOF 6
ENDMDL
MODEL 7
REMARK VINA RESULT:    -6.651      3.205      8.186
REMARK INTER + INTRA:          -9.760
REMARK INTER:                  -8.833
REMARK INTRA:                  -0.927
REMARK UNBOUND:                -0.776
REMARK  Name = 
REMARK  10 active torsions:
REMARK  status: ('A' for Active; 'I' for Inactive)
REMARK    1  A    between atoms: C_1  and  C_2
REMARK    2  A    between atoms: C_2  and  C_3
REMARK    3  A    between atoms: C_2  and  N_4
REMARK    4  A    between atoms: C_5  and  C_7
REMARK    5  A    between atoms: C_11  and  O_12
REMARK    6  A    between atoms: O_12  and  C_13
REMARK    7  A    between atoms: C_13  and  C_14
REMARK    8  A    between atoms: C_14  and  C_15
REMARK    9  A    between atoms: C_14  and  C_16
REMARK   10  A    between atoms: C_14  and  C_17
REMARK                            x       y       z     vdW  Elec       q    Type
REMARK                         _______ _______ _______ _____ _____    ______ ____
ROOT
ATOM      1  C   UNL     1      44.729   3.643   9.974  0.00  0.00    +0.000 A 
ATOM      2  C   UNL     1      43.651   3.362  10.776  0.00  0.00    +0.000 A 
ATOM      3  N   UNL     1      43.270   4.183  11.771  0.00  0.00    +0.000 NA
ATOM      4  N   UNL     1      43.964   5.334  11.964  0.00  0.00    +0.000 NA
ATOM      5  C   UNL     1      45.007   5.663  11.184  0.00  0.00    +0.000 A 
ATOM      6  C   UNL     1      45.443   4.829  10.158  0.00  0.00    +0.000 A 
ENDROOT
BRANCH   1   8
ATOM      7  N   UNL     1      45.945   3.121   7.938  0.00  0.00    +0.000 N 
ATOM      8  C   UNL     1      45.063   2.677   8.903  0.00  0.00    +0.000 C 
ATOM      9  O   UNL     1      44.565   1.563   8.928  0.00  0.00    +0.000 OA
ATOM     10  H   UNL     1      46.423   4.004   8.067  0.00  0.00    +0.000 HD
BRANCH   7  12
ATOM     11  C   UNL     1      46.787   3.083   5.638  0.00  0.00    +0.000 C 
ATOM     12  C   UNL     1      46.390   2.253   6.855  0.00  0.00    +0.000 C 
ATOM     13  C   UNL     1      47.562   1.368   7.280  0.00  0.00    +0.000 C 
ENDBRANCH   7  12
ENDBRANCH   1   8
BRANCH   5  14
ATOM     14  O   UNL     1      45.638   6.867  11.431  0.00  0.00    +0.000 OA
BRANCH  14  15
ATOM     15  C   UNL     1      47.080   6.717  11.613  0.00  0.00    +0.000 C 
BRANCH  15  16
ATOM     16  C   UNL     1      47.549   7.499  12.876  0.00  0.00    +0.000 C 
ATOM     17  C   UNL     1      48.932   8.137  12.612  0.00  0.00    +0.000 C 
ATOM     18  C   UNL     1      46.547   8.657  13.108  0.00  0.00    +0.000 C 
BRANCH  16  19
ATOM     19  C   UNL     1      47.688   6.552  14.086  0.00  0.00    +0.000 A 
ATOM     20  C   UNL     1      47.024   5.307  14.097  0.00  0.00    +0.000 A 
ATOM     21  C   UNL     1      47.186   4.401  15.149  0.00  0.00    +0.000 A 
ATOM     22  C   UNL     1      48.023   4.714  16.212  0.00  0.00    +0.000 A 
ATOM     23  C   UNL     1      48.684   5.936  16.230  0.00  0.00    +0.000 A 
ATOM     24  C   UNL     1      48.513   6.848  15.184  0.00  0.00    +0.000 A 
ENDBRANCH  16  19
ENDBRANCH  15  16
ENDBRANCH  14  15
ENDBRANCH   5  14
TORSDOF 6
ENDMDL
MODEL 8
REMARK VINA RESULT:    -6.304      3.908      7.856
REMARK INTER + INTRA:          -9.291
REMARK INTER:                  -8.617
REMARK INTRA:                  -0.674
REMARK UNBOUND:                -0.776
REMARK  Name = 
REMARK  10 active torsions:
REMARK  status: ('A' for Active; 'I' for Inactive)
REMARK    1  A    between atoms: C_1  and  C_2
REMARK    2  A    between atoms: C_2  and  C_3
REMARK    3  A    between atoms: C_2  and  N_4
REMARK    4  A    between atoms: C_5  and  C_7
REMARK    5  A    between atoms: C_11  and  O_12
REMARK    6  A    between atoms: O_12  and  C_13
REMARK    7  A    between atoms: C_13  and  C_14
REMARK    8  A    between atoms: C_14  and  C_15
REMARK    9  A    between atoms: C_14  and  C_16
REMARK   10  A    between atoms: C_14  and  C_17
REMARK                            x       y       z     vdW  Elec       q    Type
REMARK                         _______ _______ _______ _____ _____    ______ ____
ROOT
ATOM      1  C   UNL     1      44.370   4.048  11.017  0.00  0.00    +0.000 A 
ATOM      2  C   UNL     1      43.476   3.608  11.962  0.00  0.00    +0.000 A 
ATOM      3  N   UNL     1      43.235   4.297  13.090  0.00  0.00    +0.000 NA
ATOM      4  N   UNL     1      43.881   5.476  13.281  0.00  0.00    +0.000 NA
ATOM      5  C   UNL     1      44.742   5.960  12.369  0.00  0.00    +0.000 A 
ATOM      6  C   UNL     1      45.032   5.264  11.199  0.00  0.00    +0.000 A 
ENDROOT
BRANCH   1   8
ATOM      7  N   UNL     1      45.498   3.670   8.900  0.00  0.00    +0.000 N 
ATOM      8  C   UNL     1      44.561   3.217   9.806  0.00  0.00    +0.000 C 
ATOM      9  O   UNL     1      43.907   2.195   9.675  0.00  0.00    +0.000 OA
ATOM     10  H   UNL     1      46.098   4.446   9.149  0.00  0.00    +0.000 HD
BRANCH   7  12
ATOM     11  C   UNL     1      46.730   3.737   6.784  0.00  0.00    +0.000 C 
ATOM     12  C   UNL     1      45.812   2.921   7.690  0.00  0.00    +0.000 C 
ATOM     13  C   UNL     1      46.465   1.575   8.007  0.00  0.00    +0.000 C 
ENDBRANCH   7  12
ENDBRANCH   1   8
BRANCH   5  14
ATOM     14  O   UNL     1      45.332   7.181  12.629  0.00  0.00    +0.000 OA
BRANCH  14  15
ATOM     15  C   UNL     1      46.726   7.232  12.195  0.00  0.00    +0.000 C 
BRANCH  15  16
ATOM     16  C   UNL     1      47.337   8.632  12.504  0.00  0.00    +0.000 C 
ATOM     17  C   UNL     1      46.493   9.733  11.824  0.00  0.00    +0.000 C 
ATOM     18  C   UNL     1      47.239   8.857  14.033  0.00  0.00    +0.000 C 
BRANCH  16  19
ATOM     19  C   UNL     1      48.777   8.733  11.956  0.00  0.00    +0.000 A 
ATOM     20  C   UNL     1      49.511   7.565  11.661  0.00  0.00    +0.000 A 
ATOM     21  C   UNL     1      50.790   7.628  11.101  0.00  0.00    +0.000 A 
ATOM     22  C   UNL     1      51.363   8.860  10.813  0.00  0.00    +0.000 A 
ATOM     23  C   UNL     1      50.664  10.026  11.100  0.00  0.00    +0.000 A 
ATOM     24  C   UNL     1      49.389   9.965  11.672  0.00  0.00    +0.000 A 
ENDBRANCH  16  19
ENDBRANCH  15  16
ENDBRANCH  14  15
ENDBRANCH   5  14
TORSDOF 6
ENDMDL
MODEL 9
REMARK VINA RESULT:    -5.809      3.104      5.928
REMARK INTER + INTRA:          -8.623
REMARK INTER:                  -7.028
REMARK INTRA:                  -1.595
REMARK UNBOUND:                -0.776
REMARK  Name = 
REMARK  10 active torsions:
REMARK  status: ('A' for Active; 'I' for Inactive)
REMARK    1  A    between atoms: C_1  and  C_2
REMARK    2  A    between atoms: C_2  and  C_3
REMARK    3  A    between atoms: C_2  and  N_4
REMARK    4  A    between atoms: C_5  and  C_7
REMARK    5  A    between atoms: C_11  and  O_12
REMARK    6  A    between atoms: O_12  and  C_13
REMARK    7  A    between atoms: C_13  and  C_14
REMARK    8  A    between atoms: C_14  and  C_15
REMARK    9  A    between atoms: C_14  and  C_16
REMARK   10  A    between atoms: C_14  and  C_17
REMARK                            x       y       z     vdW  Elec       q    Type
REMARK                         _______ _______ _______ _____ _____    ______ ____
ROOT
ATOM      1  C   UNL     1      46.758   4.721  13.705  0.00  0.00    +0.000 A 
ATOM      2  C   UNL     1      45.684   4.150  13.068  0.00  0.00    +0.000 A 
ATOM      3  N   UNL     1      45.182   4.654  11.927  0.00  0.00    +0.000 NA
ATOM      4  N   UNL     1      45.776   5.747  11.383  0.00  0.00    +0.000 NA
ATOM      5  C   UNL     1      46.848   6.321  11.956  0.00  0.00    +0.000 A 
ATOM      6  C   UNL     1      47.382   5.838  13.148  0.00  0.00    +0.000 A 
ENDROOT
BRANCH   1   8
ATOM      7  N   UNL     1      47.284   4.897  16.069  0.00  0.00    +0.000 N 
ATOM      8  C   UNL     1      47.238   4.086  14.953  0.00  0.00    +0.000 C 
ATOM      9  O   UNL     1      47.552   2.907  14.940  0.00  0.00    +0.000 OA
ATOM     10  H   UNL     1      46.872   5.821  16.031  0.00  0.00    +0.000 HD
BRANCH   7  12
ATOM     11  C   UNL     1      49.211   4.212  17.417  0.00  0.00    +0.000 C 
ATOM     12  C   UNL     1      47.695   4.382  17.369  0.00  0.00    +0.000 C 
ATOM     13  C   UNL     1      47.242   5.293  18.510  0.00  0.00    +0.000 C 
ENDBRANCH   7  12
ENDBRANCH   1   8
BRANCH   5  14
ATOM     14  O   UNL     1      47.410   7.410  11.320  0.00  0.00    +0.000 OA
BRANCH  14  15
ATOM     15  C   UNL     1      47.355   8.623  12.133  0.00  0.00    +0.000 C 
BRANCH  15  16
ATOM     16  C   UNL     1      48.794   9.093  12.500  0.00  0.00    +0.000 C 
ATOM     17  C   UNL     1      49.815   8.463  11.526  0.00  0.00    +0.000 C 
ATOM     18  C   UNL     1      48.851  10.627  12.294  0.00  0.00    +0.000 C 
BRANCH  16  19
ATOM     19  C   UNL     1      49.167   8.648  13.930  0.00  0.00    +0.000 A 
ATOM     20  C   UNL     1      48.321   8.957  15.016  0.00  0.00    +0.000 A 
ATOM     21  C   UNL     1      48.600   8.508  16.310  0.00  0.00    +0.000 A 
ATOM     22  C   UNL     1      49.727   7.732  16.548  0.00  0.00    +0.000 A 
ATOM     23  C   UNL     1      50.581   7.419  15.498  0.00  0.00    +0.000 A 
ATOM     24  C   UNL     1      50.309   7.877  14.205  0.00  0.00    +0.000 A 
ENDBRANCH  16  19
ENDBRANCH  15  16
ENDBRANCH  14  15
ENDBRANCH   5  14
TORSDOF 6
ENDMDL
