MODEL 1
REMARK VINA RESULT:    -6.584      0.000      0.000
REMARK INTER + INTRA:          -8.897
REMARK INTER:                  -8.317
REMARK INTRA:                  -0.581
REMARK UNBOUND:                -0.581
REMARK  Name = 
REMARK  8 active torsions:
REMARK  status: ('A' for Active; 'I' for Inactive)
REMARK    1  A    between atoms: C_1  and  C_2
REMARK    2  A    between atoms: C_2  and  C_3
REMARK    3  A    between atoms: C_2  and  C_4
REMARK    4  A    between atoms: C_2  and  C_5
REMARK    5  A    between atoms: C_9  and  C_10
REMARK    6  A    between atoms: C_10  and  O_12
REMARK    7  A    between atoms: N_16  and  C_17
REMARK    8  A    between atoms: C_17  and  C_18
REMARK                            x       y       z     vdW  Elec       q    Type
REMARK                         _______ _______ _______ _____ _____    ______ ____
ROOT
ATOM      1  C   UNL     1      44.577   3.976  11.082  0.00  0.00    +0.000 A 
ATOM      2  N   UNL     1      44.848   2.786  10.552  0.00  0.00    +0.000 NA
ATOM      3  C   UNL     1      45.511   3.017   9.381  0.00  0.00    +0.000 A 
ATOM      4  C   UNL     1      46.024   2.137   8.419  0.00  0.00    +0.000 A 
ATOM      5  C   UNL     1      46.669   2.712   7.315  0.00  0.00    +0.000 A 
ATOM      6  C   UNL     1      46.791   4.100   7.244  0.00  0.00    +0.000 A 
ATOM      7  N   UNL     1      46.290   4.984   8.144  0.00  0.00    +0.000 NA
ATOM      8  C   UNL     1      45.667   4.375   9.174  0.00  0.00    +0.000 A 
ATOM      9  N   UNL     1      45.027   4.981  10.232  0.00  0.00    +0.000 N 
ENDROOT
BRANCH   1  11
ATOM     10  C   UNL     1      43.285   2.775  12.876  0.00  0.00    +0.000 C 
ATOM     11  C   UNL     1      43.859   4.144  12.424  0.00  0.00    +0.000 C 
ATOM     12  C   UNL     1      42.667   5.103  12.303  0.00  0.00    +0.000 C 
ATOM     13  C   UNL     1      44.818   4.596  13.539  0.00  0.00    +0.000 C 
ENDBRANCH   1  11
BRANCH   5  14
ATOM     14  C   UNL     1      47.270   1.912   6.229  0.00  0.00    +0.000 C 
ATOM     15  O   UNL     1      47.151   0.701   6.169  0.00  0.00    +0.000 OA
BRANCH  14  16
ATOM     16  O   UNL     1      47.996   2.623   5.344  0.00  0.00    +0.000 OA
ATOM     17  H   UNL     1      48.950   2.423   5.308  0.00  0.00    +0.000 HD
ENDBRANCH  14  16
ENDBRANCH   5  14
BRANCH   9  18
ATOM     18  C   UNL     1      44.970   6.429  10.367  0.00  0.00    +0.000 C 
BRANCH  18  19
ATOM     19  C   UNL     1      45.826   6.999  11.469  0.00  0.00    +0.000 A 
ATOM     20  C   UNL     1      47.189   6.672  11.530  0.00  0.00    +0.000 A 
ATOM     21  C   UNL     1      48.008   7.262  12.489  0.00  0.00    +0.000 A 
ATOM     22  C   UNL     1      47.441   8.174  13.360  0.00  0.00    +0.000 A 
ATOM     23  N   UNL     1      46.136   8.515  13.338  0.00  0.00    +0.000 NA
ATOM     24  C   UNL     1      45.363   7.930  12.392  0.00  0.00    +0.000 A 
ENDBRANCH  18  19
ENDBRANCH   9  18
TORSDOF 5
ENDMDL
MODEL 2
REMARK VINA RESULT:    -6.104      4.361      6.606
REMARK INTER + INTRA:          -8.290
REMARK INTER:                  -7.609
REMARK INTRA:                  -0.682
REMARK UNBOUND:                -0.581
REMARK  Name = 
REMARK  8 active torsions:
REMARK  status: ('A' for Active; 'I' for Inactive)
REMARK    1  A    between atoms: C_1  and  C_2
REMARK    2  A    between atoms: C_2  and  C_3
REMARK    3  A    between atoms: C_2  and  C_4
REMARK    4  A    between atoms: C_2  and  C_5
REMARK    5  A    between atoms: C_9  and  C_10
REMARK    6  A    between atoms: C_10  and  O_12
REMARK    7  A    between atoms: N_16  and  C_17
REMARK    8  A    between atoms: C_17  and  C_18
REMARK                            x       y       z     vdW  Elec       q    Type
REMARK                         _______ _______ _______ _____ _____    ______ ____
ROOT
ATOM      1  C   UNL     1      48.296   6.737  14.852  0.00  0.00    +0.000 A 
ATOM      2  N   UNL     1      48.030   7.061  13.589  0.00  0.00    +0.000 NA
ATOM      3  C   UNL     1      47.133   6.143  13.125  0.00  0.00    +0.000 A 
ATOM      4  C   UNL     1      46.518   5.999  11.874  0.00  0.00    +0.000 A 
ATOM      5  C   UNL     1      45.621   4.932  11.729  0.00  0.00    +0.000 A 
ATOM      6  C   UNL     1      45.368   4.101  12.820  0.00  0.00    +0.000 A 
ATOM      7  N   UNL     1      45.957   4.197  14.040  0.00  0.00    +0.000 NA
ATOM      8  C   UNL     1      46.821   5.229  14.115  0.00  0.00    +0.000 A 
ATOM      9  N   UNL     1      47.602   5.580  15.194  0.00  0.00    +0.000 N 
ENDROOT
BRANCH   1  11
ATOM     10  C   UNL     1      49.378   8.985  15.168  0.00  0.00    +0.000 C 
ATOM     11  C   UNL     1      49.248   7.547  15.735  0.00  0.00    +0.000 C 
ATOM     12  C   UNL     1      50.658   6.944  15.738  0.00  0.00    +0.000 C 
ATOM     13  C   UNL     1      48.712   7.700  17.170  0.00  0.00    +0.000 C 
ENDBRANCH   1  11
BRANCH   5  14
ATOM     14  C   UNL     1      44.890   4.662  10.474  0.00  0.00    +0.000 C 
ATOM     15  O   UNL     1      44.027   3.805  10.394  0.00  0.00    +0.000 OA
BRANCH  14  16
ATOM     16  O   UNL     1      45.287   5.404   9.422  0.00  0.00    +0.000 OA
ATOM     17  H   UNL     1      45.518   6.333   9.611  0.00  0.00    +0.000 HD
ENDBRANCH  14  16
ENDBRANCH   5  14
BRANCH   9  18
ATOM     18  C   UNL     1      47.558   4.840  16.446  0.00  0.00    +0.000 C 
BRANCH  18  19
ATOM     19  C   UNL     1      48.657   3.825  16.624  0.00  0.00    +0.000 A 
ATOM     20  C   UNL     1      49.735   4.108  17.476  0.00  0.00    +0.000 A 
ATOM     21  C   UNL     1      50.709   3.144  17.718  0.00  0.00    +0.000 A 
ATOM     22  C   UNL     1      50.574   1.912  17.105  0.00  0.00    +0.000 A 
ATOM     23  N   UNL     1      49.557   1.598  16.277  0.00  0.00    +0.000 NA
ATOM     24  C   UNL     1      48.621   2.552  16.063  0.00  0.00    +0.000 A 
ENDBRANCH  18  19
ENDBRANCH   9  18
TORSDOF 5
ENDMDL
MODEL 3
REMARK VINA RESULT:    -5.956      5.089      7.688
REMARK INTER + INTRA:          -8.104
REMARK INTER:                  -7.347
REMARK INTRA:                  -0.756
REMARK UNBOUND:                -0.581
REMARK  Name = 
REMARK  8 active torsions:
REMARK  status: ('A' for Active; 'I' for Inactive)
REMARK    1  A    between atoms: C_1  and  C_2
REMARK    2  A    between atoms: C_2  and  C_3
REMARK    3  A    between atoms: C_2  and  C_4
REMARK    4  A    between atoms: C_2  and  C_5
REMARK    5  A    between atoms: C_9  and  C_10
REMARK    6  A    between atoms: C_10  and  O_12
REMARK    7  A    between atoms: N_16  and  C_17
REMARK    8  A    between atoms: C_17  and  C_18
REMARK                            x       y       z     vdW  Elec       q    Type
REMARK                         _______ _______ _______ _____ _____    ______ ____
ROOT
ATOM      1  C   UNL     1      47.740   6.822  13.822  0.00  0.00    +0.000 A 
ATOM      2  N   UNL     1      48.245   7.109  15.019  0.00  0.00    +0.000 NA
ATOM      3  C   UNL     1      48.194   5.961  15.756  0.00  0.00    +0.000 A 
ATOM      4  C   UNL     1      48.583   5.690  17.074  0.00  0.00    +0.000 A 
ATOM      5  C   UNL     1      48.399   4.377  17.531  0.00  0.00    +0.000 A 
ATOM      6  C   UNL     1      47.875   3.420  16.661  0.00  0.00    +0.000 A 
ATOM      7  N   UNL     1      47.468   3.650  15.386  0.00  0.00    +0.000 NA
ATOM      8  C   UNL     1      47.654   4.931  15.008  0.00  0.00    +0.000 A 
ATOM      9  N   UNL     1      47.320   5.495  13.797  0.00  0.00    +0.000 N 
ENDROOT
BRANCH   1  11
ATOM     10  C   UNL     1      48.532   9.075  13.034  0.00  0.00    +0.000 C 
ATOM     11  C   UNL     1      47.647   7.849  12.690  0.00  0.00    +0.000 C 
ATOM     12  C   UNL     1      46.213   8.370  12.525  0.00  0.00    +0.000 C 
ATOM     13  C   UNL     1      48.185   7.291  11.361  0.00  0.00    +0.000 C 
ENDBRANCH   1  11
BRANCH   5  14
ATOM     14  C   UNL     1      48.773   3.939  18.891  0.00  0.00    +0.000 C 
ATOM     15  O   UNL     1      49.620   4.516  19.551  0.00  0.00    +0.000 OA
BRANCH  14  16
ATOM     16  O   UNL     1      48.139   2.830  19.317  0.00  0.00    +0.000 OA
ATOM     17  H   UNL     1      48.708   2.094  19.610  0.00  0.00    +0.000 HD
ENDBRANCH  14  16
ENDBRANCH   5  14
BRANCH   9  18
ATOM     18  C   UNL     1      46.713   4.716  12.729  0.00  0.00    +0.000 C 
BRANCH  18  19
ATOM     19  C   UNL     1      45.259   5.017  12.469  0.00  0.00    +0.000 A 
ATOM     20  C   UNL     1      44.820   5.241  11.155  0.00  0.00    +0.000 A 
ATOM     21  C   UNL     1      43.466   5.431  10.893  0.00  0.00    +0.000 A 
ATOM     22  C   UNL     1      42.582   5.382  11.955  0.00  0.00    +0.000 A 
ATOM     23  N   UNL     1      42.961   5.173  13.232  0.00  0.00    +0.000 NA
ATOM     24  C   UNL     1      44.283   4.986  13.459  0.00  0.00    +0.000 A 
ENDBRANCH  18  19
ENDBRANCH   9  18
TORSDOF 5
ENDMDL
MODEL 4
REMARK VINA RESULT:    -5.710      4.326      5.979
REMARK INTER + INTRA:          -7.793
REMARK INTER:                  -7.389
REMARK INTRA:                  -0.404
REMARK UNBOUND:                -0.581
REMARK  Name = 
REMARK  8 active torsions:
REMARK  status: ('A' for Active; 'I' for Inactive)
REMARK    1  A    between atoms: C_1  and  C_2
REMARK    2  A    between atoms: C_2  and  C_3
REMARK    3  A    between atoms: C_2  and  C_4
REMARK    4  A    between atoms: C_2  and  C_5
REMARK    5  A    between atoms: C_9  and  C_10
REMARK    6  A    between atoms: C_10  and  O_12
REMARK    7  A    between atoms: N_16  and  C_17
REMARK    8  A    between atoms: C_17  and  C_18
REMARK                            x       y       z     vdW  Elec       q    Type
REMARK                         _______ _______ _______ _____ _____    ______ ____
ROOT
ATOM      1  C   UNL     1      45.035   4.659  12.505  0.00  0.00    +0.000 A 
ATOM      2  N   UNL     1      45.263   4.018  13.648  0.00  0.00    +0.000 NA
ATOM      3  C   UNL     1      46.337   4.623  14.234  0.00  0.00    +0.000 A 
ATOM      4  C   UNL     1      47.006   4.359  15.437  0.00  0.00    +0.000 A 
ATOM      5  C   UNL     1      48.089   5.191  15.754  0.00  0.00    +0.000 A 
ATOM      6  C   UNL     1      48.421   6.236  14.892  0.00  0.00    +0.000 A 
ATOM      7  N   UNL     1      47.810   6.511  13.711  0.00  0.00    +0.000 NA
ATOM      8  C   UNL     1      46.789   5.669  13.450  0.00  0.00    +0.000 A 
ATOM      9  N   UNL     1      45.991   5.654  12.328  0.00  0.00    +0.000 N 
ENDROOT
BRANCH   1  11
ATOM     10  C   UNL     1      43.426   2.841  11.849  0.00  0.00    +0.000 C 
ATOM     11  C   UNL     1      43.886   4.294  11.561  0.00  0.00    +0.000 C 
ATOM     12  C   UNL     1      44.334   4.333  10.094  0.00  0.00    +0.000 C 
ATOM     13  C   UNL     1      42.652   5.186  11.783  0.00  0.00    +0.000 C 
ENDBRANCH   1  11
BRANCH   5  14
ATOM     14  C   UNL     1      48.880   5.043  16.992  0.00  0.00    +0.000 C 
ATOM     15  O   UNL     1      50.057   4.724  16.979  0.00  0.00    +0.000 OA
BRANCH  14  16
ATOM     16  O   UNL     1      48.186   5.240  18.129  0.00  0.00    +0.000 OA
ATOM     17  H   UNL     1      47.581   6.005  18.139  0.00  0.00    +0.000 HD
ENDBRANCH  14  16
ENDBRANCH   5  14
BRANCH   9  18
ATOM     18  C   UNL     1      46.165   6.618  11.251  0.00  0.00    +0.000 C 
BRANCH  18  19
ATOM     19  C   UNL     1      45.437   7.924  11.443  0.00  0.00    +0.000 A 
ATOM     20  C   UNL     1      46.103   9.011  12.028  0.00  0.00    +0.000 A 
ATOM     21  C   UNL     1      45.471  10.247  12.128  0.00  0.00    +0.000 A 
ATOM     22  C   UNL     1      44.187  10.366  11.630  0.00  0.00    +0.000 A 
ATOM     23  N   UNL     1      43.509   9.347  11.063  0.00  0.00    +0.000 NA
ATOM     24  C   UNL     1      44.149   8.157  10.974  0.00  0.00    +0.000 A 
ENDBRANCH  18  19
ENDBRANCH   9  18
TORSDOF 5
ENDMDL
MODEL 5
REMARK VINA RESULT:    -5.690      4.245      5.984
REMARK INTER + INTRA:          -7.768
REMARK INTER:                  -7.034
REMARK INTRA:                  -0.734
REMARK UNBOUND:                -0.581
REMARK  Name = 
REMARK  8 active torsions:
REMARK  status: ('A' for Active; 'I' for Inactive)
REMARK    1  A    between atoms: C_1  and  C_2
REMARK    2  A    between atoms: C_2  and  C_3
REMARK    3  A    between atoms: C_2  and  C_4
REMARK    4  A    between atoms: C_2  and  C_5
REMARK    5  A    between atoms: C_9  and  C_10
REMARK    6  A    between atoms: C_10  and  O_12
REMARK    7  A    between atoms: N_16  and  C_17
REMARK    8  A    between atoms: C_17  and  C_18
REMARK                            x       y       z     vdW  Elec       q    Type
REMARK                         _______ _______ _______ _____ _____    ______ ____
ROOT
ATOM      1  C   UNL     1      47.692   4.800  15.943  0.00  0.00    +0.000 A 
ATOM      2  N   UNL     1      46.695   4.276  15.234  0.00  0.00    +0.000 NA
ATOM      3  C   UNL     1      46.653   4.953  14.050  0.00  0.00    +0.000 A 
ATOM      4  C   UNL     1      45.806   4.825  12.940  0.00  0.00    +0.000 A 
ATOM      5  C   UNL     1      46.043   5.689  11.862  0.00  0.00    +0.000 A 
ATOM      6  C   UNL     1      47.102   6.593  11.932  0.00  0.00    +0.000 A 
ATOM      7  N   UNL     1      47.930   6.760  12.995  0.00  0.00    +0.000 NA
ATOM      8  C   UNL     1      47.645   5.915  14.008  0.00  0.00    +0.000 A 
ATOM      9  N   UNL     1      48.269   5.849  15.233  0.00  0.00    +0.000 N 
ENDROOT
BRANCH   1  11
ATOM     10  C   UNL     1      47.493   2.871  17.545  0.00  0.00    +0.000 C 
ATOM     11  C   UNL     1      48.082   4.290  17.332  0.00  0.00    +0.000 C 
ATOM     12  C   UNL     1      47.499   5.180  18.438  0.00  0.00    +0.000 C 
ATOM     13  C   UNL     1      49.606   4.149  17.488  0.00  0.00    +0.000 C 
ENDBRANCH   1  11
BRANCH   5  14
ATOM     14  C   UNL     1      45.242   5.663  10.621  0.00  0.00    +0.000 C 
ATOM     15  O   UNL     1      45.677   5.215   9.574  0.00  0.00    +0.000 OA
BRANCH  14  16
ATOM     16  O   UNL     1      44.018   6.214  10.731  0.00  0.00    +0.000 OA
ATOM     17  H   UNL     1      43.406   5.785  11.358  0.00  0.00    +0.000 HD
ENDBRANCH  14  16
ENDBRANCH   5  14
BRANCH   9  18
ATOM     18  C   UNL     1      49.382   6.722  15.576  0.00  0.00    +0.000 C 
BRANCH  18  19
ATOM     19  C   UNL     1      49.045   7.835  16.534  0.00  0.00    +0.000 A 
ATOM     20  C   UNL     1      49.686   7.899  17.780  0.00  0.00    +0.000 A 
ATOM     21  C   UNL     1      49.450   8.971  18.635  0.00  0.00    +0.000 A 
ATOM     22  C   UNL     1      48.581   9.961  18.216  0.00  0.00    +0.000 A 
ATOM     23  N   UNL     1      47.941   9.939  17.029  0.00  0.00    +0.000 NA
ATOM     24  C   UNL     1      48.193   8.887  16.214  0.00  0.00    +0.000 A 
ENDBRANCH  18  19
ENDBRANCH   9  18
TORSDOF 5
ENDMDL
MODEL 6
REMARK VINA RESULT:    -5.638      3.334      5.538
REMARK INTER + INTRA:          -7.702
REMARK INTER:                  -7.095
REMARK INTRA:                  -0.608
REMARK UNBOUND:                -0.581
REMARK  Name = 
REMARK  8 active torsions:
REMARK  status: ('A' for Active; 'I' for Inactive)
REMARK    1  A    between atoms: C_1  and  C_2
REMARK    2  A    between atoms: C_2  and  C_3
REMARK    3  A    between atoms: C_2  and  C_4
REMARK    4  A    between atoms: C_2  and  C_5
REMARK    5  A    between atoms: C_9  and  C_10
REMARK    6  A    between atoms: C_10  and  O_12
REMARK    7  A    between atoms: N_16  and  C_17
REMARK    8  A    between atoms: C_17  and  C_18
REMARK                            x       y       z     vdW  Elec       q    Type
REMARK                         _______ _______ _______ _____ _____    ______ ____
ROOT
ATOM      1  C   UNL     1      48.156   6.686  14.543  0.00  0.00    +0.000 A 
ATOM      2  N   UNL     1      47.634   5.472  14.697  0.00  0.00    +0.000 NA
ATOM      3  C   UNL     1      46.849   5.236  13.606  0.00  0.00    +0.000 A 
ATOM      4  C   UNL     1      46.064   4.131  13.251  0.00  0.00    +0.000 A 
ATOM      5  C   UNL     1      45.375   4.210  12.033  0.00  0.00    +0.000 A 
ATOM      6  C   UNL     1      45.522   5.346  11.238  0.00  0.00    +0.000 A 
ATOM      7  N   UNL     1      46.256   6.443  11.557  0.00  0.00    +0.000 NA
ATOM      8  C   UNL     1      46.883   6.318  12.744  0.00  0.00    +0.000 A 
ATOM      9  N   UNL     1      47.673   7.257  13.369  0.00  0.00    +0.000 N 
ENDROOT
BRANCH   1  11
ATOM     10  C   UNL     1      49.132   6.460  16.850  0.00  0.00    +0.000 C 
ATOM     11  C   UNL     1      49.123   7.310  15.552  0.00  0.00    +0.000 C 
ATOM     12  C   UNL     1      48.676   8.723  15.953  0.00  0.00    +0.000 C 
ATOM     13  C   UNL     1      50.571   7.318  15.034  0.00  0.00    +0.000 C 
ENDBRANCH   1  11
BRANCH   5  14
ATOM     14  C   UNL     1      44.520   3.119  11.522  0.00  0.00    +0.000 C 
ATOM     15  O   UNL     1      44.350   2.928  10.330  0.00  0.00    +0.000 OA
BRANCH  14  16
ATOM     16  O   UNL     1      43.912   2.388  12.477  0.00  0.00    +0.000 OA
ATOM     17  H   UNL     1      42.940   2.455  12.517  0.00  0.00    +0.000 HD
ENDBRANCH  14  16
ENDBRANCH   5  14
BRANCH   9  18
ATOM     18  C   UNL     1      47.947   8.552  12.765  0.00  0.00    +0.000 C 
BRANCH  18  19
ATOM     19  C   UNL     1      49.339   8.713  12.210  0.00  0.00    +0.000 A 
ATOM     20  C   UNL     1      49.913   7.676  11.459  0.00  0.00    +0.000 A 
ATOM     21  C   UNL     1      51.160   7.849  10.867  0.00  0.00    +0.000 A 
ATOM     22  C   UNL     1      51.800   9.063  11.034  0.00  0.00    +0.000 A 
ATOM     23  N   UNL     1      51.287  10.084  11.749  0.00  0.00    +0.000 NA
ATOM     24  C   UNL     1      50.070   9.892  12.311  0.00  0.00    +0.000 A 
ENDBRANCH  18  19
ENDBRANCH   9  18
TORSDOF 5
ENDMDL
MODEL 7
REMARK VINA RESULT:    -5.316      4.448      6.193
REMARK INTER + INTRA:          -7.295
REMARK INTER:                  -6.786
REMARK INTRA:                  -0.510
REMARK UNBOUND:                -0.581
REMARK  Name = 
REMARK  8 active torsions:
REMARK  status: ('A' for Active; 'I' for Inactive)
REMARK    1  A    between atoms: C_1  and  C_2
REMARK    2  A    between atoms: C_2  and  C_3
REMARK    3  A    between atoms: C_2  and  C_4
REMARK    4  A    between atoms: C_2  and  C_5
REMARK    5  A    between atoms: C_9  and  C_10
REMARK    6  A    between atoms: C_10  and  O_12
REMARK    7  A    between atoms: N_16  and  C_17
REMARK    8  A    between atoms: C_17  and  C_18
REMARK                            x       y       z     vdW  Elec       q    Type
REMARK                         _______ _______ _______ _____ _____    ______ ____
ROOT
ATOM      1  C   UNL     1      45.813   4.839  12.622  0.00  0.00    +0.000 A 
ATOM      2  N   UNL     1      46.137   3.710  13.247  0.00  0.00    +0.000 NA
ATOM      3  C   UNL     1      46.902   4.058  14.322  0.00  0.00    +0.000 A 
ATOM      4  C   UNL     1      47.515   3.279  15.313  0.00  0.00    +0.000 A 
ATOM      5  C   UNL     1      48.237   3.965  16.300  0.00  0.00    +0.000 A 
ATOM      6  C   UNL     1      48.285   5.358  16.265  0.00  0.00    +0.000 A 
ATOM      7  N   UNL     1      47.722   6.144  15.312  0.00  0.00    +0.000 NA
ATOM      8  C   UNL     1      47.056   5.431  14.381  0.00  0.00    +0.000 A 
ATOM      9  N   UNL     1      46.406   5.918  13.269  0.00  0.00    +0.000 N 
ENDROOT
BRANCH   1  11
ATOM     10  C   UNL     1      44.593   3.423  10.939  0.00  0.00    +0.000 C 
ATOM     11  C   UNL     1      44.931   4.874  11.371  0.00  0.00    +0.000 C 
ATOM     12  C   UNL     1      45.661   5.528  10.191  0.00  0.00    +0.000 C 
ATOM     13  C   UNL     1      43.583   5.567  11.636  0.00  0.00    +0.000 C 
ENDBRANCH   1  11
BRANCH   5  14
ATOM     14  C   UNL     1      48.924   3.280  17.414  0.00  0.00    +0.000 C 
ATOM     15  O   UNL     1      50.083   2.911  17.336  0.00  0.00    +0.000 OA
BRANCH  14  16
ATOM     16  O   UNL     1      48.154   3.057  18.496  0.00  0.00    +0.000 OA
ATOM     17  H   UNL     1      47.870   3.845  18.994  0.00  0.00    +0.000 HD
ENDBRANCH  14  16
ENDBRANCH   5  14
BRANCH   9  18
ATOM     18  C   UNL     1      46.349   7.343  12.978  0.00  0.00    +0.000 C 
BRANCH  18  19
ATOM     19  C   UNL     1      47.660   7.959  12.561  0.00  0.00    +0.000 A 
ATOM     20  C   UNL     1      48.592   7.194  11.843  0.00  0.00    +0.000 A 
ATOM     21  C   UNL     1      49.765   7.778  11.376  0.00  0.00    +0.000 A 
ATOM     22  C   UNL     1      49.974   9.120  11.633  0.00  0.00    +0.000 A 
ATOM     23  N   UNL     1      49.107   9.892  12.320  0.00  0.00    +0.000 NA
ATOM     24  C   UNL     1      47.971   9.300  12.759  0.00  0.00    +0.000 A 
ENDBRANCH  18  19
ENDBRANCH   9  18
TORSDOF 5
ENDMDL
MODEL 8
REMARK VINA RESULT:    -5.165      5.179      7.679
REMARK INTER + INTRA:          -7.104
REMARK INTER:                  -6.528
REMARK INTRA:                  -0.576
REMARK UNBOUND:                -0.581
REMARK  Name = 
REMARK  8 active torsions:
REMARK  status: ('A' for Active; 'I' for Inactive)
REMARK    1  A    between atoms: C_1  and  C_2
REMARK    2  A    between atoms: C_2  and  C_3
REMARK    3  A    between atoms: C_2  and  C_4
REMARK    4  A    between atoms: C_2  and  C_5
REMARK    5  A    between atoms: C_9  and  C_10
REMARK    6  A    between atoms: C_10  and  O_12
REMARK    7  A    between atoms: N_16  and  C_17
REMARK    8  A    between atoms: C_17  and  C_18
REMARK                            x       y       z     vdW  Elec       q    Type
REMARK                         _______ _______ _______ _____ _____    ______ ____
ROOT
ATOM      1  C   UNL     1      49.643   7.824  14.100  0.00  0.00    +0.000 A 
ATOM      2  N   UNL     1      49.822   7.455  15.365  0.00  0.00    +0.000 NA
ATOM      3  C   UNL     1      49.003   6.386  15.586  0.00  0.00    +0.000 A 
ATOM      4  C   UNL     1      48.782   5.609  16.731  0.00  0.00    +0.000 A 
ATOM      5  C   UNL     1      47.862   4.559  16.615  0.00  0.00    +0.000 A 
ATOM      6  C   UNL     1      47.245   4.325  15.386  0.00  0.00    +0.000 A 
ATOM      7  N   UNL     1      47.418   5.066  14.262  0.00  0.00    +0.000 NA
ATOM      8  C   UNL     1      48.300   6.071  14.437  0.00  0.00    +0.000 A 
ATOM      9  N   UNL     1      48.672   7.020  13.511  0.00  0.00    +0.000 N 
ENDROOT
BRANCH   1  11
ATOM     10  C   UNL     1      51.706   9.254  14.261  0.00  0.00    +0.000 C 
ATOM     11  C   UNL     1      50.409   8.982  13.455  0.00  0.00    +0.000 C 
ATOM     12  C   UNL     1      49.591  10.279  13.485  0.00  0.00    +0.000 C 
ATOM     13  C   UNL     1      50.858   8.648  12.021  0.00  0.00    +0.000 C 
ENDBRANCH   1  11
BRANCH   5  14
ATOM     14  C   UNL     1      47.537   3.648  17.732  0.00  0.00    +0.000 C 
ATOM     15  O   UNL     1      48.269   3.512  18.697  0.00  0.00    +0.000 OA
BRANCH  14  16
ATOM     16  O   UNL     1      46.395   2.951  17.573  0.00  0.00    +0.000 OA
ATOM     17  H   UNL     1      46.080   2.840  16.657  0.00  0.00    +0.000 HD
ENDBRANCH  14  16
ENDBRANCH   5  14
BRANCH   9  18
ATOM     18  C   UNL     1      48.134   7.024  12.159  0.00  0.00    +0.000 C 
BRANCH  18  19
ATOM     19  C   UNL     1      46.784   7.678  12.014  0.00  0.00    +0.000 A 
ATOM     20  C   UNL     1      46.659   9.064  12.197  0.00  0.00    +0.000 A 
ATOM     21  C   UNL     1      45.436   9.691  11.977  0.00  0.00    +0.000 A 
ATOM     22  C   UNL     1      44.368   8.914  11.570  0.00  0.00    +0.000 A 
ATOM     23  N   UNL     1      44.443   7.581  11.385  0.00  0.00    +0.000 NA
ATOM     24  C   UNL     1      45.644   6.996  11.600  0.00  0.00    +0.000 A 
ENDBRANCH  18  19
ENDBRANCH   9  18
TORSDOF 5
ENDMDL
MODEL 9
REMARK VINA RESULT:    -4.219      9.844     12.039
REMARK INTER + INTRA:          -5.910
REMARK INTER:                  -5.337
REMARK INTRA:                  -0.572
REMARK UNBOUND:                -0.581
REMARK  Name = 
REMARK  8 active torsions:
REMARK  status: ('A' for Active; 'I' for Inactive)
REMARK    1  A    between atoms: C_1  and  C_2
REMARK    2  A    between atoms: C_2  and  C_3
REMARK    3  A    between atoms: C_2  and  C_4
REMARK    4  A    between atoms: C_2  and  C_5
REMARK    5  A    between atoms: C_9  and  C_10
REMARK    6  A    between atoms: C_10  and  O_12
REMARK    7  A    between atoms: N_16  and  C_17
REMARK    8  A    between atoms: C_17  and  C_18
REMARK                            x       y       z     vdW  Elec       q    Type
REMARK                         _______ _______ _______ _____ _____    ______ ____
ROOT
ATOM      1  C   UNL     1      39.590  -2.283  17.244  0.00  0.00    +0.000 A 
ATOM      2  N   UNL     1      39.581  -1.173  17.979  0.00  0.00    +0.000 NA
ATOM      3  C   UNL     1      38.850  -0.249  17.291  0.00  0.00    +0.000 A 
ATOM      4  C   UNL     1      38.523   1.081  17.588  0.00  0.00    +0.000 A 
ATOM      5  C   UNL     1      37.733   1.763  16.653  0.00  0.00    +0.000 A 
ATOM      6  C   UNL     1      37.296   1.091  15.511  0.00  0.00    +0.000 A 
ATOM      7  N   UNL     1      37.608  -0.188  15.179  0.00  0.00    +0.000 NA
ATOM      8  C   UNL     1      38.383  -0.787  16.106  0.00  0.00    +0.000 A 
ATOM      9  N   UNL     1      38.899  -2.063  16.057  0.00  0.00    +0.000 N 
ENDROOT
BRANCH   1  11
ATOM     10  C   UNL     1      40.593  -3.491  19.209  0.00  0.00    +0.000 C 
ATOM     11  C   UNL     1      40.290  -3.569  17.690  0.00  0.00    +0.000 C 
ATOM     12  C   UNL     1      41.638  -3.747  16.979  0.00  0.00    +0.000 C 
ATOM     13  C   UNL     1      39.398  -4.808  17.494  0.00  0.00    +0.000 C 
ENDBRANCH   1  11
BRANCH   5  14
ATOM     14  C   UNL     1      37.298   3.162  16.836  0.00  0.00    +0.000 C 
ATOM     15  O   UNL     1      36.138   3.461  17.062  0.00  0.00    +0.000 OA
BRANCH  14  16
ATOM     16  O   UNL     1      38.275   4.077  16.685  0.00  0.00    +0.000 OA
ATOM     17  H   UNL     1      38.178   4.693  15.935  0.00  0.00    +0.000 HD
ENDBRANCH  14  16
ENDBRANCH   5  14
BRANCH   9  18
ATOM     18  C   UNL     1      38.628  -2.958  14.941  0.00  0.00    +0.000 C 
BRANCH  18  19
ATOM     19  C   UNL     1      39.365  -2.628  13.669  0.00  0.00    +0.000 A 
ATOM     20  C   UNL     1      40.746  -2.864  13.584  0.00  0.00    +0.000 A 
ATOM     21  C   UNL     1      41.420  -2.648  12.385  0.00  0.00    +0.000 A 
ATOM     22  C   UNL     1      40.690  -2.209  11.296  0.00  0.00    +0.000 A 
ATOM     23  N   UNL     1      39.364  -1.968  11.334  0.00  0.00    +0.000 NA
ATOM     24  C   UNL     1      38.732  -2.190  12.510  0.00  0.00    +0.000 A 
ENDBRANCH  18  19
ENDBRANCH   9  18
TORSDOF 5
ENDMDL
