MODEL 1
REMARK VINA RESULT:    -7.771      0.000      0.000
REMARK INTER + INTRA:         -10.748
REMARK INTER:                  -9.588
REMARK INTRA:                  -1.161
REMARK UNBOUND:                -1.161
REMARK  Name = 
REMARK  4 active torsions:
REMARK  status: ('A' for Active; 'I' for Inactive)
REMARK    1  A    between atoms: C_2  and  C_3
REMARK    2  A    between atoms: N_7  and  C_8
REMARK    3  A    between atoms: C_8  and  C_9
REMARK    4  A    between atoms: C_13  and  C_14
REMARK                            x       y       z     vdW  Elec       q    Type
REMARK                         _______ _______ _______ _____ _____    ______ ____
ROOT
ATOM      1  C   UNL     1      43.778   5.010  11.364  0.00  0.00    +0.000 C 
ATOM      2  C   UNL     1      42.342   5.270  11.770  0.00  0.00    +0.000 C 
ATOM      3  C   UNL     1      43.025   6.205  10.825  0.00  0.00    +0.000 C 
ENDROOT
BRANCH   1   8
ATOM      4  C   UNL     1      46.587   2.717   7.575  0.00  0.00    +0.000 A 
ATOM      5  C   UNL     1      46.421   4.077   7.839  0.00  0.00    +0.000 A 
ATOM      6  C   UNL     1      45.585   4.482   8.888  0.00  0.00    +0.000 A 
ATOM      7  C   UNL     1      44.939   3.515   9.646  0.00  0.00    +0.000 A 
ATOM      8  N   UNL     1      43.945   3.778  10.585  0.00  0.00    +0.000 N 
ATOM      9  N   UNL     1      45.146   2.197   9.441  0.00  0.00    +0.000 NA
ATOM     10  C   UNL     1      45.950   1.825   8.418  0.00  0.00    +0.000 A 
ATOM     11  H   UNL     1      43.790   2.901  11.075  0.00  0.00    +0.000 HD
BRANCH   4  13
ATOM     12  N   UNL     1      47.969   1.845   5.569  0.00  0.00    +0.000 NA
ATOM     13  C   UNL     1      47.342   2.241   6.454  0.00  0.00    +0.000 C 
ENDBRANCH   4  13
ENDBRANCH   1   8
BRANCH   1  14
ATOM     14  C   UNL     1      44.937   5.222  12.322  0.00  0.00    +0.000 A 
ATOM     15  C   UNL     1      45.450   4.148  13.066  0.00  0.00    +0.000 A 
ATOM     16  C   UNL     1      46.759   4.176  13.538  0.00  0.00    +0.000 A 
ATOM     17  C   UNL     1      47.563   5.293  13.304  0.00  0.00    +0.000 A 
ATOM     18  C   UNL     1      47.053   6.435  12.670  0.00  0.00    +0.000 A 
ATOM     19  C   UNL     1      45.717   6.391  12.236  0.00  0.00    +0.000 A 
BRANCH  18  20
ATOM     20  C   UNL     1      47.906   7.587  12.324  0.00  0.00    +0.000 A 
ATOM     21  C   UNL     1      49.272   7.432  12.041  0.00  0.00    +0.000 A 
ATOM     22  C   UNL     1      50.044   8.522  11.644  0.00  0.00    +0.000 A 
ATOM     23  C   UNL     1      49.428   9.755  11.533  0.00  0.00    +0.000 A 
ATOM     24  N   UNL     1      48.120   9.961  11.789  0.00  0.00    +0.000 NA
ATOM     25  C   UNL     1      47.400   8.879  12.176  0.00  0.00    +0.000 A 
ENDBRANCH  18  20
ENDBRANCH   1  14
TORSDOF 4
ENDMDL
MODEL 2
REMARK VINA RESULT:    -7.648      2.029      3.391
REMARK INTER + INTRA:         -10.597
REMARK INTER:                  -9.921
REMARK INTRA:                  -0.677
REMARK UNBOUND:                -1.161
REMARK  Name = 
REMARK  4 active torsions:
REMARK  status: ('A' for Active; 'I' for Inactive)
REMARK    1  A    between atoms: C_2  and  C_3
REMARK    2  A    between atoms: N_7  and  C_8
REMARK    3  A    between atoms: C_8  and  C_9
REMARK    4  A    between atoms: C_13  and  C_14
REMARK                            x       y       z     vdW  Elec       q    Type
REMARK                         _______ _______ _______ _____ _____    ______ ____
ROOT
ATOM      1  C   UNL     1      43.959   4.962  11.351  0.00  0.00    +0.000 C 
ATOM      2  C   UNL     1      42.765   4.934  12.283  0.00  0.00    +0.000 C 
ATOM      3  C   UNL     1      42.790   5.897  11.139  0.00  0.00    +0.000 C 
ENDROOT
BRANCH   1   8
ATOM      4  C   UNL     1      46.644   2.693   7.460  0.00  0.00    +0.000 A 
ATOM      5  C   UNL     1      46.458   4.052   7.718  0.00  0.00    +0.000 A 
ATOM      6  C   UNL     1      45.662   4.449   8.800  0.00  0.00    +0.000 A 
ATOM      7  C   UNL     1      45.075   3.476   9.597  0.00  0.00    +0.000 A 
ATOM      8  N   UNL     1      44.120   3.726  10.578  0.00  0.00    +0.000 N 
ATOM      9  N   UNL     1      45.304   2.161   9.395  0.00  0.00    +0.000 NA
ATOM     10  C   UNL     1      46.068   1.796   8.340  0.00  0.00    +0.000 A 
ATOM     11  H   UNL     1      44.008   2.851  11.083  0.00  0.00    +0.000 HD
BRANCH   4  13
ATOM     12  N   UNL     1      47.957   1.842   5.399  0.00  0.00    +0.000 NA
ATOM     13  C   UNL     1      47.358   2.223   6.310  0.00  0.00    +0.000 C 
ENDBRANCH   4  13
ENDBRANCH   1   8
BRANCH   1  14
ATOM     14  C   UNL     1      45.302   5.526  11.782  0.00  0.00    +0.000 A 
ATOM     15  C   UNL     1      45.690   6.816  11.386  0.00  0.00    +0.000 A 
ATOM     16  C   UNL     1      46.621   7.535  12.132  0.00  0.00    +0.000 A 
ATOM     17  C   UNL     1      47.204   6.961  13.263  0.00  0.00    +0.000 A 
ATOM     18  C   UNL     1      46.934   5.632  13.624  0.00  0.00    +0.000 A 
ATOM     19  C   UNL     1      46.017   4.920  12.832  0.00  0.00    +0.000 A 
BRANCH  18  20
ATOM     20  C   UNL     1      47.459   5.036  14.866  0.00  0.00    +0.000 A 
ATOM     21  C   UNL     1      48.263   5.770  15.752  0.00  0.00    +0.000 A 
ATOM     22  C   UNL     1      48.687   5.212  16.956  0.00  0.00    +0.000 A 
ATOM     23  C   UNL     1      48.292   3.920  17.255  0.00  0.00    +0.000 A 
ATOM     24  N   UNL     1      47.518   3.171  16.443  0.00  0.00    +0.000 NA
ATOM     25  C   UNL     1      47.127   3.745  15.278  0.00  0.00    +0.000 A 
ENDBRANCH  18  20
ENDBRANCH   1  14
TORSDOF 4
ENDMDL
MODEL 3
REMARK VINA RESULT:    -6.784      1.543      6.637
REMARK INTER + INTRA:          -9.530
REMARK INTER:                  -8.518
REMARK INTRA:                  -1.012
REMARK UNBOUND:                -1.161
REMARK  Name = 
REMARK  4 active torsions:
REMARK  status: ('A' for Active; 'I' for Inactive)
REMARK    1  A    between atoms: C_2  and  C_3
REMARK    2  A    between atoms: N_7  and  C_8
REMARK    3  A    between atoms: C_8  and  C_9
REMARK    4  A    between atoms: C_13  and  C_14
REMARK                            x       y       z     vdW  Elec       q    Type
REMARK                         _______ _______ _______ _____ _____    ______ ____
ROOT
ATOM      1  C   UNL     1      46.096   4.928  13.459  0.00  0.00    +0.000 C 
ATOM      2  C   UNL     1      46.224   4.157  14.757  0.00  0.00    +0.000 C 
ATOM      3  C   UNL     1      47.302   4.055  13.726  0.00  0.00    +0.000 C 
ENDROOT
BRANCH   1   8
ATOM      4  C   UNL     1      48.240   9.390  11.728  0.00  0.00    +0.000 A 
ATOM      5  C   UNL     1      48.712   8.083  11.595  0.00  0.00    +0.000 A 
ATOM      6  C   UNL     1      47.998   7.027  12.174  0.00  0.00    +0.000 A 
ATOM      7  C   UNL     1      46.829   7.304  12.870  0.00  0.00    +0.000 A 
ATOM      8  N   UNL     1      46.131   6.383  13.644  0.00  0.00    +0.000 N 
ATOM      9  N   UNL     1      46.330   8.556  12.946  0.00  0.00    +0.000 NA
ATOM     10  C   UNL     1      47.037   9.566  12.389  0.00  0.00    +0.000 A 
ATOM     11  H   UNL     1      45.253   6.836  13.887  0.00  0.00    +0.000 HD
BRANCH   4  13
ATOM     12  N   UNL     1      49.594  11.422  10.872  0.00  0.00    +0.000 NA
ATOM     13  C   UNL     1      48.976  10.523  11.252  0.00  0.00    +0.000 C 
ENDBRANCH   4  13
ENDBRANCH   1   8
BRANCH   1  14
ATOM     14  C   UNL     1      45.104   4.529  12.380  0.00  0.00    +0.000 A 
ATOM     15  C   UNL     1      43.867   5.184  12.275  0.00  0.00    +0.000 A 
ATOM     16  C   UNL     1      43.181   5.212  11.064  0.00  0.00    +0.000 A 
ATOM     17  C   UNL     1      43.706   4.555   9.949  0.00  0.00    +0.000 A 
ATOM     18  C   UNL     1      44.878   3.790  10.041  0.00  0.00    +0.000 A 
ATOM     19  C   UNL     1      45.529   3.751  11.286  0.00  0.00    +0.000 A 
BRANCH  18  20
ATOM     20  C   UNL     1      45.503   3.169   8.859  0.00  0.00    +0.000 A 
ATOM     21  C   UNL     1      45.955   3.939   7.776  0.00  0.00    +0.000 A 
ATOM     22  C   UNL     1      46.610   3.340   6.702  0.00  0.00    +0.000 A 
ATOM     23  C   UNL     1      46.807   1.971   6.735  0.00  0.00    +0.000 A 
ATOM     24  N   UNL     1      46.397   1.184   7.751  0.00  0.00    +0.000 NA
ATOM     25  C   UNL     1      45.759   1.800   8.777  0.00  0.00    +0.000 A 
ENDBRANCH  18  20
ENDBRANCH   1  14
TORSDOF 4
ENDMDL
MODEL 4
REMARK VINA RESULT:    -6.360      3.421      8.003
REMARK INTER + INTRA:          -9.008
REMARK INTER:                  -8.106
REMARK INTRA:                  -0.902
REMARK UNBOUND:                -1.161
REMARK  Name = 
REMARK  4 active torsions:
REMARK  status: ('A' for Active; 'I' for Inactive)
REMARK    1  A    between atoms: C_2  and  C_3
REMARK    2  A    between atoms: N_7  and  C_8
REMARK    3  A    between atoms: C_8  and  C_9
REMARK    4  A    between atoms: C_13  and  C_14
REMARK                            x       y       z     vdW  Elec       q    Type
REMARK                         _______ _______ _______ _____ _____    ______ ____
ROOT
ATOM      1  C   UNL     1      48.792   7.709  12.599  0.00  0.00    +0.000 C 
ATOM      2  C   UNL     1      49.695   7.772  11.384  0.00  0.00    +0.000 C 
ATOM      3  C   UNL     1      49.396   9.021  12.150  0.00  0.00    +0.000 C 
ENDROOT
BRANCH   1   8
ATOM      4  C   UNL     1      48.977   7.222  17.817  0.00  0.00    +0.000 A 
ATOM      5  C   UNL     1      48.638   8.341  17.054  0.00  0.00    +0.000 A 
ATOM      6  C   UNL     1      48.692   8.269  15.657  0.00  0.00    +0.000 A 
ATOM      7  C   UNL     1      49.082   7.078  15.058  0.00  0.00    +0.000 A 
ATOM      8  N   UNL     1      49.358   6.926  13.702  0.00  0.00    +0.000 N 
ATOM      9  N   UNL     1      49.347   5.972  15.785  0.00  0.00    +0.000 NA
ATOM     10  C   UNL     1      49.297   6.063  17.134  0.00  0.00    +0.000 A 
ATOM     11  H   UNL     1      49.457   5.926  13.552  0.00  0.00    +0.000 HD
BRANCH   4  13
ATOM     12  N   UNL     1      49.099   7.265  20.401  0.00  0.00    +0.000 NA
ATOM     13  C   UNL     1      49.043   7.262  19.247  0.00  0.00    +0.000 C 
ENDBRANCH   4  13
ENDBRANCH   1   8
BRANCH   1  14
ATOM     14  C   UNL     1      47.293   7.493  12.477  0.00  0.00    +0.000 A 
ATOM     15  C   UNL     1      46.404   8.565  12.658  0.00  0.00    +0.000 A 
ATOM     16  C   UNL     1      45.136   8.537  12.084  0.00  0.00    +0.000 A 
ATOM     17  C   UNL     1      44.725   7.423  11.351  0.00  0.00    +0.000 A 
ATOM     18  C   UNL     1      45.536   6.282  11.246  0.00  0.00    +0.000 A 
ATOM     19  C   UNL     1      46.797   6.326  11.866  0.00  0.00    +0.000 A 
BRANCH  18  20
ATOM     20  C   UNL     1      45.168   5.134  10.398  0.00  0.00    +0.000 A 
ATOM     21  C   UNL     1      45.708   4.965   9.113  0.00  0.00    +0.000 A 
ATOM     22  C   UNL     1      45.404   3.834   8.358  0.00  0.00    +0.000 A 
ATOM     23  C   UNL     1      44.562   2.885   8.908  0.00  0.00    +0.000 A 
ATOM     24  N   UNL     1      44.017   2.995  10.138  0.00  0.00    +0.000 NA
ATOM     25  C   UNL     1      44.331   4.109  10.843  0.00  0.00    +0.000 A 
ENDBRANCH  18  20
ENDBRANCH   1  14
TORSDOF 4
ENDMDL
MODEL 5
REMARK VINA RESULT:    -5.899      3.466      7.649
REMARK INTER + INTRA:          -8.439
REMARK INTER:                  -8.981
REMARK INTRA:                   0.542
REMARK UNBOUND:                -1.161
REMARK  Name = 
REMARK  4 active torsions:
REMARK  status: ('A' for Active; 'I' for Inactive)
REMARK    1  A    between atoms: C_2  and  C_3
REMARK    2  A    between atoms: N_7  and  C_8
REMARK    3  A    between atoms: C_8  and  C_9
REMARK    4  A    between atoms: C_13  and  C_14
REMARK                            x       y       z     vdW  Elec       q    Type
REMARK                         _______ _______ _______ _____ _____    ______ ____
ROOT
ATOM      1  C   UNL     1      46.301   5.251  13.198  0.00  0.00    +0.000 C 
ATOM      2  C   UNL     1      47.518   6.023  12.733  0.00  0.00    +0.000 C 
ATOM      3  C   UNL     1      46.398   6.745  13.410  0.00  0.00    +0.000 C 
ENDROOT
BRANCH   1   8
ATOM      4  C   UNL     1      48.425   4.703  17.961  0.00  0.00    +0.000 A 
ATOM      5  C   UNL     1      48.642   5.707  17.017  0.00  0.00    +0.000 A 
ATOM      6  C   UNL     1      47.997   5.642  15.775  0.00  0.00    +0.000 A 
ATOM      7  C   UNL     1      47.149   4.575  15.512  0.00  0.00    +0.000 A 
ATOM      8  N   UNL     1      46.597   4.290  14.266  0.00  0.00    +0.000 N 
ATOM      9  N   UNL     1      46.881   3.635  16.444  0.00  0.00    +0.000 NA
ATOM     10  C   UNL     1      47.520   3.710  17.634  0.00  0.00    +0.000 A 
ATOM     11  H   UNL     1      45.910   3.559  14.430  0.00  0.00    +0.000 HD
BRANCH   4  13
ATOM     12  N   UNL     1      49.704   4.645  20.210  0.00  0.00    +0.000 NA
ATOM     13  C   UNL     1      49.134   4.655  19.205  0.00  0.00    +0.000 C 
ENDBRANCH   4  13
ENDBRANCH   1   8
BRANCH   1  14
ATOM     14  C   UNL     1      45.278   4.696  12.221  0.00  0.00    +0.000 A 
ATOM     15  C   UNL     1      43.992   5.255  12.147  0.00  0.00    +0.000 A 
ATOM     16  C   UNL     1      43.234   5.135  10.985  0.00  0.00    +0.000 A 
ATOM     17  C   UNL     1      43.737   4.424   9.893  0.00  0.00    +0.000 A 
ATOM     18  C   UNL     1      44.965   3.750   9.968  0.00  0.00    +0.000 A 
ATOM     19  C   UNL     1      45.691   3.860  11.167  0.00  0.00    +0.000 A 
BRANCH  18  20
ATOM     20  C   UNL     1      45.562   3.076   8.801  0.00  0.00    +0.000 A 
ATOM     21  C   UNL     1      46.015   3.799   7.686  0.00  0.00    +0.000 A 
ATOM     22  C   UNL     1      46.644   3.149   6.625  0.00  0.00    +0.000 A 
ATOM     23  C   UNL     1      46.811   1.779   6.703  0.00  0.00    +0.000 A 
ATOM     24  N   UNL     1      46.399   1.035   7.751  0.00  0.00    +0.000 NA
ATOM     25  C   UNL     1      45.788   1.699   8.762  0.00  0.00    +0.000 A 
ENDBRANCH  18  20
ENDBRANCH   1  14
TORSDOF 4
ENDMDL
MODEL 6
REMARK VINA RESULT:    -5.603      3.470      6.414
REMARK INTER + INTRA:          -8.074
REMARK INTER:                  -7.084
REMARK INTRA:                  -0.990
REMARK UNBOUND:                -1.161
REMARK  Name = 
REMARK  4 active torsions:
REMARK  status: ('A' for Active; 'I' for Inactive)
REMARK    1  A    between atoms: C_2  and  C_3
REMARK    2  A    between atoms: N_7  and  C_8
REMARK    3  A    between atoms: C_8  and  C_9
REMARK    4  A    between atoms: C_13  and  C_14
REMARK                            x       y       z     vdW  Elec       q    Type
REMARK                         _______ _______ _______ _____ _____    ______ ____
ROOT
ATOM      1  C   UNL     1      48.634   8.407  12.795  0.00  0.00    +0.000 C 
ATOM      2  C   UNL     1      49.208   9.485  11.900  0.00  0.00    +0.000 C 
ATOM      3  C   UNL     1      49.724   8.086  11.798  0.00  0.00    +0.000 C 
ENDROOT
BRANCH   1   8
ATOM      4  C   UNL     1      44.959   4.666  12.866  0.00  0.00    +0.000 A 
ATOM      5  C   UNL     1      46.347   4.527  12.819  0.00  0.00    +0.000 A 
ATOM      6  C   UNL     1      47.156   5.670  12.766  0.00  0.00    +0.000 A 
ATOM      7  C   UNL     1      46.554   6.922  12.762  0.00  0.00    +0.000 A 
ATOM      8  N   UNL     1      47.221   8.120  12.525  0.00  0.00    +0.000 N 
ATOM      9  N   UNL     1      45.217   7.066  12.874  0.00  0.00    +0.000 NA
ATOM     10  C   UNL     1      44.451   5.951  12.916  0.00  0.00    +0.000 A 
ATOM     11  H   UNL     1      46.554   8.855  12.745  0.00  0.00    +0.000 HD
BRANCH   4  13
ATOM     12  N   UNL     1      43.383   2.616  12.761  0.00  0.00    +0.000 NA
ATOM     13  C   UNL     1      44.075   3.539  12.815  0.00  0.00    +0.000 C 
ENDBRANCH   4  13
ENDBRANCH   1   8
BRANCH   1  14
ATOM     14  C   UNL     1      48.937   8.350  14.282  0.00  0.00    +0.000 A 
ATOM     15  C   UNL     1      48.567   9.410  15.124  0.00  0.00    +0.000 A 
ATOM     16  C   UNL     1      48.367   9.197  16.485  0.00  0.00    +0.000 A 
ATOM     17  C   UNL     1      48.570   7.928  17.031  0.00  0.00    +0.000 A 
ATOM     18  C   UNL     1      49.055   6.870  16.248  0.00  0.00    +0.000 A 
ATOM     19  C   UNL     1      49.281   7.124  14.885  0.00  0.00    +0.000 A 
BRANCH  18  20
ATOM     20  C   UNL     1      49.183   5.499  16.777  0.00  0.00    +0.000 A 
ATOM     21  C   UNL     1      48.158   4.553  16.624  0.00  0.00    +0.000 A 
ATOM     22  C   UNL     1      48.330   3.242  17.065  0.00  0.00    +0.000 A 
ATOM     23  C   UNL     1      49.535   2.900  17.651  0.00  0.00    +0.000 A 
ATOM     24  N   UNL     1      50.554   3.767  17.820  0.00  0.00    +0.000 NA
ATOM     25  C   UNL     1      50.351   5.035  17.383  0.00  0.00    +0.000 A 
ENDBRANCH  18  20
ENDBRANCH   1  14
TORSDOF 4
ENDMDL
MODEL 7
REMARK VINA RESULT:    -5.423      2.883      7.200
REMARK INTER + INTRA:          -7.852
REMARK INTER:                  -8.003
REMARK INTRA:                   0.151
REMARK UNBOUND:                -1.161
REMARK  Name = 
REMARK  4 active torsions:
REMARK  status: ('A' for Active; 'I' for Inactive)
REMARK    1  A    between atoms: C_2  and  C_3
REMARK    2  A    between atoms: N_7  and  C_8
REMARK    3  A    between atoms: C_8  and  C_9
REMARK    4  A    between atoms: C_13  and  C_14
REMARK                            x       y       z     vdW  Elec       q    Type
REMARK                         _______ _______ _______ _____ _____    ______ ____
ROOT
ATOM      1  C   UNL     1      48.385   7.849  12.736  0.00  0.00    +0.000 C 
ATOM      2  C   UNL     1      49.457   7.380  11.774  0.00  0.00    +0.000 C 
ATOM      3  C   UNL     1      49.153   8.840  11.889  0.00  0.00    +0.000 C 
ENDROOT
BRANCH   1   8
ATOM      4  C   UNL     1      48.078   4.353  16.633  0.00  0.00    +0.000 A 
ATOM      5  C   UNL     1      47.302   4.444  15.476  0.00  0.00    +0.000 A 
ATOM      6  C   UNL     1      47.525   5.491  14.573  0.00  0.00    +0.000 A 
ATOM      7  C   UNL     1      48.521   6.419  14.850  0.00  0.00    +0.000 A 
ATOM      8  N   UNL     1      48.720   7.601  14.143  0.00  0.00    +0.000 N 
ATOM      9  N   UNL     1      49.320   6.301  15.931  0.00  0.00    +0.000 NA
ATOM     10  C   UNL     1      49.084   5.288  16.797  0.00  0.00    +0.000 A 
ATOM     11  H   UNL     1      49.604   7.976  14.476  0.00  0.00    +0.000 HD
BRANCH   4  13
ATOM     12  N   UNL     1      47.659   2.571  18.462  0.00  0.00    +0.000 NA
ATOM     13  C   UNL     1      47.830   3.371  17.646  0.00  0.00    +0.000 C 
ENDBRANCH   4  13
ENDBRANCH   1   8
BRANCH   1  14
ATOM     14  C   UNL     1      46.907   7.621  12.469  0.00  0.00    +0.000 A 
ATOM     15  C   UNL     1      46.007   8.697  12.489  0.00  0.00    +0.000 A 
ATOM     16  C   UNL     1      44.807   8.630  11.786  0.00  0.00    +0.000 A 
ATOM     17  C   UNL     1      44.474   7.472  11.081  0.00  0.00    +0.000 A 
ATOM     18  C   UNL     1      45.289   6.331  11.132  0.00  0.00    +0.000 A 
ATOM     19  C   UNL     1      46.476   6.417  11.879  0.00  0.00    +0.000 A 
BRANCH  18  20
ATOM     20  C   UNL     1      45.010   5.132  10.320  0.00  0.00    +0.000 A 
ATOM     21  C   UNL     1      45.609   4.938   9.065  0.00  0.00    +0.000 A 
ATOM     22  C   UNL     1      45.390   3.764   8.347  0.00  0.00    +0.000 A 
ATOM     23  C   UNL     1      44.573   2.797   8.905  0.00  0.00    +0.000 A 
ATOM     24  N   UNL     1      43.975   2.930  10.108  0.00  0.00    +0.000 NA
ATOM     25  C   UNL     1      44.207   4.086  10.776  0.00  0.00    +0.000 A 
ENDBRANCH  18  20
ENDBRANCH   1  14
TORSDOF 4
ENDMDL
MODEL 8
REMARK VINA RESULT:    -5.024      2.208      6.923
REMARK INTER + INTRA:          -7.360
REMARK INTER:                  -6.484
REMARK INTRA:                  -0.876
REMARK UNBOUND:                -1.161
REMARK  Name = 
REMARK  4 active torsions:
REMARK  status: ('A' for Active; 'I' for Inactive)
REMARK    1  A    between atoms: C_2  and  C_3
REMARK    2  A    between atoms: N_7  and  C_8
REMARK    3  A    between atoms: C_8  and  C_9
REMARK    4  A    between atoms: C_13  and  C_14
REMARK                            x       y       z     vdW  Elec       q    Type
REMARK                         _______ _______ _______ _____ _____    ______ ____
ROOT
ATOM      1  C   UNL     1      48.342   7.892  13.918  0.00  0.00    +0.000 C 
ATOM      2  C   UNL     1      48.590   7.688  15.398  0.00  0.00    +0.000 C 
ATOM      3  C   UNL     1      48.999   6.628  14.426  0.00  0.00    +0.000 C 
ENDROOT
BRANCH   1   8
ATOM      4  C   UNL     1      51.830   9.186  10.222  0.00  0.00    +0.000 A 
ATOM      5  C   UNL     1      51.563   7.931  10.772  0.00  0.00    +0.000 A 
ATOM      6  C   UNL     1      50.608   7.810  11.789  0.00  0.00    +0.000 A 
ATOM      7  C   UNL     1      49.943   8.947  12.229  0.00  0.00    +0.000 A 
ATOM      8  N   UNL     1      49.118   8.999  13.348  0.00  0.00    +0.000 N 
ATOM      9  N   UNL     1      50.146  10.153  11.656  0.00  0.00    +0.000 NA
ATOM     10  C   UNL     1      51.079  10.252  10.681  0.00  0.00    +0.000 A 
ATOM     11  H   UNL     1      48.663   9.907  13.313  0.00  0.00    +0.000 HD
BRANCH   4  13
ATOM     12  N   UNL     1      53.700   9.589   8.479  0.00  0.00    +0.000 NA
ATOM     13  C   UNL     1      52.867   9.393   9.255  0.00  0.00    +0.000 C 
ENDBRANCH   4  13
ENDBRANCH   1   8
BRANCH   1  14
ATOM     14  C   UNL     1      46.948   7.824  13.319  0.00  0.00    +0.000 A 
ATOM     15  C   UNL     1      46.211   8.999  13.100  0.00  0.00    +0.000 A 
ATOM     16  C   UNL     1      45.205   9.035  12.138  0.00  0.00    +0.000 A 
ATOM     17  C   UNL     1      44.898   7.887  11.405  0.00  0.00    +0.000 A 
ATOM     18  C   UNL     1      45.527   6.662  11.675  0.00  0.00    +0.000 A 
ATOM     19  C   UNL     1      46.514   6.649  12.676  0.00  0.00    +0.000 A 
BRANCH  18  20
ATOM     20  C   UNL     1      45.292   5.462  10.852  0.00  0.00    +0.000 A 
ATOM     21  C   UNL     1      45.644   5.421   9.494  0.00  0.00    +0.000 A 
ATOM     22  C   UNL     1      45.482   4.252   8.753  0.00  0.00    +0.000 A 
ATOM     23  C   UNL     1      44.969   3.137   9.391  0.00  0.00    +0.000 A 
ATOM     24  N   UNL     1      44.618   3.119  10.694  0.00  0.00    +0.000 NA
ATOM     25  C   UNL     1      44.785   4.275  11.383  0.00  0.00    +0.000 A 
ENDBRANCH  18  20
ENDBRANCH   1  14
TORSDOF 4
ENDMDL
MODEL 9
REMARK VINA RESULT:    -5.009      3.580      7.056
REMARK INTER + INTRA:          -7.341
REMARK INTER:                  -6.345
REMARK INTRA:                  -0.997
REMARK UNBOUND:                -1.161
REMARK  Name = 
REMARK  4 active torsions:
REMARK  status: ('A' for Active; 'I' for Inactive)
REMARK    1  A    between atoms: C_2  and  C_3
REMARK    2  A    between atoms: N_7  and  C_8
REMARK    3  A    between atoms: C_8  and  C_9
REMARK    4  A    between atoms: C_13  and  C_14
REMARK                            x       y       z     vdW  Elec       q    Type
REMARK                         _______ _______ _______ _____ _____    ______ ____
ROOT
ATOM      1  C   UNL     1      49.777   8.822  14.115  0.00  0.00    +0.000 C 
ATOM      2  C   UNL     1      50.872   9.784  13.702  0.00  0.00    +0.000 C 
ATOM      3  C   UNL     1      50.966   8.344  13.311  0.00  0.00    +0.000 C 
ENDROOT
BRANCH   1   8
ATOM      4  C   UNL     1      45.457   6.675  12.060  0.00  0.00    +0.000 A 
ATOM      5  C   UNL     1      46.721   6.107  12.230  0.00  0.00    +0.000 A 
ATOM      6  C   UNL     1      47.759   6.876  12.769  0.00  0.00    +0.000 A 
ATOM      7  C   UNL     1      47.506   8.194  13.126  0.00  0.00    +0.000 A 
ATOM      8  N   UNL     1      48.482   9.116  13.493  0.00  0.00    +0.000 N 
ATOM      9  N   UNL     1      46.271   8.731  13.028  0.00  0.00    +0.000 NA
ATOM     10  C   UNL     1      45.283   7.975  12.497  0.00  0.00    +0.000 A 
ATOM     11  H   UNL     1      47.977   9.926  13.844  0.00  0.00    +0.000 HD
BRANCH   4  13
ATOM     12  N   UNL     1      43.536   5.393  10.893  0.00  0.00    +0.000 NA
ATOM     13  C   UNL     1      44.383   5.976  11.418  0.00  0.00    +0.000 C 
ENDBRANCH   4  13
ENDBRANCH   1   8
BRANCH   1  14
ATOM     14  C   UNL     1      49.611   8.363  15.553  0.00  0.00    +0.000 A 
ATOM     15  C   UNL     1      49.233   9.275  16.551  0.00  0.00    +0.000 A 
ATOM     16  C   UNL     1      48.603   8.834  17.712  0.00  0.00    +0.000 A 
ATOM     17  C   UNL     1      48.372   7.471  17.907  0.00  0.00    +0.000 A 
ATOM     18  C   UNL     1      48.840   6.516  16.991  0.00  0.00    +0.000 A 
ATOM     19  C   UNL     1      49.504   6.990  15.846  0.00  0.00    +0.000 A 
BRANCH  18  20
ATOM     20  C   UNL     1      48.525   5.082  17.124  0.00  0.00    +0.000 A 
ATOM     21  C   UNL     1      49.525   4.129  17.370  0.00  0.00    +0.000 A 
ATOM     22  C   UNL     1      49.197   2.789  17.567  0.00  0.00    +0.000 A 
ATOM     23  C   UNL     1      47.863   2.427  17.517  0.00  0.00    +0.000 A 
ATOM     24  N   UNL     1      46.861   3.301  17.288  0.00  0.00    +0.000 NA
ATOM     25  C   UNL     1      47.217   4.595  17.097  0.00  0.00    +0.000 A 
ENDBRANCH  18  20
ENDBRANCH   1  14
TORSDOF 4
ENDMDL
