MODEL 1
REMARK VINA RESULT:    -7.683      0.000      0.000
REMARK INTER + INTRA:         -10.519
REMARK INTER:                  -9.929
REMARK INTRA:                  -0.590
REMARK UNBOUND:                -0.590
REMARK  Name = 
REMARK  8 active torsions:
REMARK  status: ('A' for Active; 'I' for Inactive)
REMARK    1  A    between atoms: C_1  and  C_2
REMARK    2  A    between atoms: C_5  and  N_6
REMARK    3  A    between atoms: C_9  and  C_10
REMARK    4  A    between atoms: C_10  and  C_11
REMARK    5  A    between atoms: C_10  and  C_12
REMARK    6  A    between atoms: C_10  and  C_13
REMARK    7  A    between atoms: C_13  and  N_14
REMARK    8  A    between atoms: N_14  and  C_15
REMARK                            x       y       z     vdW  Elec       q    Type
REMARK                         _______ _______ _______ _____ _____    ______ ____
ROOT
ATOM      1  N   UNL     1      46.764   4.752  15.282  0.00  0.00    +0.000 N 
ATOM      2  C   UNL     1      46.497   5.217  13.973  0.00  0.00    +0.000 A 
ATOM      3  C   UNL     1      45.335   4.785  13.331  0.00  0.00    +0.000 A 
ATOM      4  C   UNL     1      45.095   5.112  11.980  0.00  0.00    +0.000 A 
ATOM      5  C   UNL     1      46.023   5.961  11.373  0.00  0.00    +0.000 A 
ATOM      6  C   UNL     1      47.129   6.383  12.096  0.00  0.00    +0.000 A 
ATOM      7  N   UNL     1      47.393   6.012  13.367  0.00  0.00    +0.000 NA
ATOM      8  H   UNL     1      46.106   5.197  15.922  0.00  0.00    +0.000 HD
ENDROOT
BRANCH   1  13
ATOM      9  C   UNL     1      47.420   2.843  17.533  0.00  0.00    +0.000 C 
ATOM     10  C   UNL     1      48.360   3.937  17.071  0.00  0.00    +0.000 C 
ATOM     11  O   UNL     1      48.210   5.142  17.884  0.00  0.00    +0.000 OA
ATOM     12  C   UNL     1      48.445   5.956  16.696  0.00  0.00    +0.000 C 
ATOM     13  C   UNL     1      48.120   4.762  15.786  0.00  0.00    +0.000 C 
ENDBRANCH   1  13
BRANCH   4  14
ATOM     14  C   UNL     1      43.895   4.506  11.225  0.00  0.00    +0.000 C 
ATOM     15  C   UNL     1      43.565   3.112  11.813  0.00  0.00    +0.000 C 
ATOM     16  C   UNL     1      42.662   5.420  11.434  0.00  0.00    +0.000 C 
BRANCH  14  17
ATOM     17  C   UNL     1      44.069   4.373   9.671  0.00  0.00    +0.000 C 
BRANCH  17  18
ATOM     18  N   UNL     1      44.271   2.991   9.210  0.00  0.00    +0.000 N 
ATOM     19  H   UNL     1      43.440   2.587   8.777  0.00  0.00    +0.000 HD
BRANCH  18  20
ATOM     20  C   UNL     1      45.430   2.683   8.494  0.00  0.00    +0.000 A 
ATOM     21  C   UNL     1      45.980   1.418   8.345  0.00  0.00    +0.000 A 
ATOM     22  N   UNL     1      47.070   1.123   7.592  0.00  0.00    +0.000 NA
ATOM     23  C   UNL     1      47.613   2.156   6.938  0.00  0.00    +0.000 A 
ATOM     24  N   UNL     1      47.165   3.418   6.951  0.00  0.00    +0.000 NA
ATOM     25  C   UNL     1      46.075   3.638   7.722  0.00  0.00    +0.000 A 
ENDBRANCH  18  20
ENDBRANCH  17  18
ENDBRANCH  14  17
ENDBRANCH   4  14
TORSDOF 5
ENDMDL
MODEL 2
REMARK VINA RESULT:    -7.300      2.361      3.692
REMARK INTER + INTRA:         -10.024
REMARK INTER:                  -9.310
REMARK INTRA:                  -0.714
REMARK UNBOUND:                -0.590
REMARK  Name = 
REMARK  8 active torsions:
REMARK  status: ('A' for Active; 'I' for Inactive)
REMARK    1  A    between atoms: C_1  and  C_2
REMARK    2  A    between atoms: C_5  and  N_6
REMARK    3  A    between atoms: C_9  and  C_10
REMARK    4  A    between atoms: C_10  and  C_11
REMARK    5  A    between atoms: C_10  and  C_12
REMARK    6  A    between atoms: C_10  and  C_13
REMARK    7  A    between atoms: C_13  and  N_14
REMARK    8  A    between atoms: N_14  and  C_15
REMARK                            x       y       z     vdW  Elec       q    Type
REMARK                         _______ _______ _______ _____ _____    ______ ____
ROOT
ATOM      1  N   UNL     1      47.674   7.393  11.547  0.00  0.00    +0.000 N 
ATOM      2  C   UNL     1      47.056   6.239  12.082  0.00  0.00    +0.000 A 
ATOM      3  C   UNL     1      45.998   5.657  11.381  0.00  0.00    +0.000 A 
ATOM      4  C   UNL     1      45.264   4.590  11.939  0.00  0.00    +0.000 A 
ATOM      5  C   UNL     1      45.719   4.099  13.166  0.00  0.00    +0.000 A 
ATOM      6  C   UNL     1      46.807   4.705  13.777  0.00  0.00    +0.000 A 
ATOM      7  N   UNL     1      47.465   5.771  13.273  0.00  0.00    +0.000 NA
ATOM      8  H   UNL     1      48.217   7.116  10.728  0.00  0.00    +0.000 HD
ENDROOT
BRANCH   1  13
ATOM      9  C   UNL     1      46.501  10.140  12.009  0.00  0.00    +0.000 C 
ATOM     10  C   UNL     1      47.892   9.746  12.457  0.00  0.00    +0.000 C 
ATOM     11  O   UNL     1      48.897  10.134  11.470  0.00  0.00    +0.000 OA
ATOM     12  C   UNL     1      49.647   8.920  11.776  0.00  0.00    +0.000 C 
ATOM     13  C   UNL     1      48.404   8.287  12.419  0.00  0.00    +0.000 C 
ENDBRANCH   1  13
BRANCH   4  14
ATOM     14  C   UNL     1      44.000   4.052  11.239  0.00  0.00    +0.000 C 
ATOM     15  C   UNL     1      43.441   2.848  12.036  0.00  0.00    +0.000 C 
ATOM     16  C   UNL     1      42.923   5.165  11.232  0.00  0.00    +0.000 C 
BRANCH  14  17
ATOM     17  C   UNL     1      44.186   3.627   9.740  0.00  0.00    +0.000 C 
BRANCH  17  18
ATOM     18  N   UNL     1      44.927   2.369   9.565  0.00  0.00    +0.000 N 
ATOM     19  H   UNL     1      44.344   1.540   9.677  0.00  0.00    +0.000 HD
BRANCH  18  20
ATOM     20  C   UNL     1      45.798   2.247   8.479  0.00  0.00    +0.000 A 
ATOM     21  C   UNL     1      46.399   1.072   8.049  0.00  0.00    +0.000 A 
ATOM     22  N   UNL     1      47.191   0.955   6.954  0.00  0.00    +0.000 NA
ATOM     23  C   UNL     1      47.359   2.077   6.243  0.00  0.00    +0.000 A 
ATOM     24  N   UNL     1      46.807   3.267   6.511  0.00  0.00    +0.000 NA
ATOM     25  C   UNL     1      46.029   3.309   7.618  0.00  0.00    +0.000 A 
ENDBRANCH  18  20
ENDBRANCH  17  18
ENDBRANCH  14  17
ENDBRANCH   4  14
TORSDOF 5
ENDMDL
MODEL 3
REMARK VINA RESULT:    -6.927      1.439      2.317
REMARK INTER + INTRA:          -9.542
REMARK INTER:                  -8.932
REMARK INTRA:                  -0.610
REMARK UNBOUND:                -0.590
REMARK  Name = 
REMARK  8 active torsions:
REMARK  status: ('A' for Active; 'I' for Inactive)
REMARK    1  A    between atoms: C_1  and  C_2
REMARK    2  A    between atoms: C_5  and  N_6
REMARK    3  A    between atoms: C_9  and  C_10
REMARK    4  A    between atoms: C_10  and  C_11
REMARK    5  A    between atoms: C_10  and  C_12
REMARK    6  A    between atoms: C_10  and  C_13
REMARK    7  A    between atoms: C_13  and  N_14
REMARK    8  A    between atoms: N_14  and  C_15
REMARK                            x       y       z     vdW  Elec       q    Type
REMARK                         _______ _______ _______ _____ _____    ______ ____
ROOT
ATOM      1  N   UNL     1      47.871   5.770  15.605  0.00  0.00    +0.000 N 
ATOM      2  C   UNL     1      47.261   5.061  14.545  0.00  0.00    +0.000 A 
ATOM      3  C   UNL     1      46.685   5.782  13.497  0.00  0.00    +0.000 A 
ATOM      4  C   UNL     1      45.948   5.126  12.490  0.00  0.00    +0.000 A 
ATOM      5  C   UNL     1      45.922   3.730  12.551  0.00  0.00    +0.000 A 
ATOM      6  C   UNL     1      46.559   3.085  13.601  0.00  0.00    +0.000 A 
ATOM      7  N   UNL     1      47.204   3.720  14.602  0.00  0.00    +0.000 NA
ATOM      8  H   UNL     1      48.738   6.184  15.259  0.00  0.00    +0.000 HD
ENDROOT
BRANCH   1  13
ATOM      9  C   UNL     1      48.237   7.574  18.003  0.00  0.00    +0.000 C 
ATOM     10  C   UNL     1      48.437   6.074  18.055  0.00  0.00    +0.000 C 
ATOM     11  O   UNL     1      49.843   5.720  17.869  0.00  0.00    +0.000 OA
ATOM     12  C   UNL     1      49.432   4.534  17.126  0.00  0.00    +0.000 C 
ATOM     13  C   UNL     1      48.037   5.134  16.893  0.00  0.00    +0.000 C 
ENDBRANCH   1  13
BRANCH   4  14
ATOM     14  C   UNL     1      45.180   5.932  11.424  0.00  0.00    +0.000 C 
ATOM     15  C   UNL     1      43.667   5.621  11.533  0.00  0.00    +0.000 C 
ATOM     16  C   UNL     1      45.381   7.443  11.702  0.00  0.00    +0.000 C 
BRANCH  14  17
ATOM     17  C   UNL     1      45.640   5.705   9.941  0.00  0.00    +0.000 C 
BRANCH  17  18
ATOM     18  N   UNL     1      44.829   4.720   9.210  0.00  0.00    +0.000 N 
ATOM     19  H   UNL     1      44.125   5.147   8.607  0.00  0.00    +0.000 HD
BRANCH  18  20
ATOM     20  C   UNL     1      45.474   3.654   8.578  0.00  0.00    +0.000 A 
ATOM     21  C   UNL     1      46.429   3.761   7.577  0.00  0.00    +0.000 A 
ATOM     22  N   UNL     1      47.096   2.721   7.018  0.00  0.00    +0.000 NA
ATOM     23  C   UNL     1      46.799   1.514   7.515  0.00  0.00    +0.000 A 
ATOM     24  N   UNL     1      45.936   1.264   8.507  0.00  0.00    +0.000 NA
ATOM     25  C   UNL     1      45.309   2.349   9.018  0.00  0.00    +0.000 A 
ENDBRANCH  18  20
ENDBRANCH  17  18
ENDBRANCH  14  17
ENDBRANCH   4  14
TORSDOF 5
ENDMDL
MODEL 4
REMARK VINA RESULT:    -6.831      2.078      2.916
REMARK INTER + INTRA:          -9.418
REMARK INTER:                  -8.768
REMARK INTRA:                  -0.649
REMARK UNBOUND:                -0.590
REMARK  Name = 
REMARK  8 active torsions:
REMARK  status: ('A' for Active; 'I' for Inactive)
REMARK    1  A    between atoms: C_1  and  C_2
REMARK    2  A    between atoms: C_5  and  N_6
REMARK    3  A    between atoms: C_9  and  C_10
REMARK    4  A    between atoms: C_10  and  C_11
REMARK    5  A    between atoms: C_10  and  C_12
REMARK    6  A    between atoms: C_10  and  C_13
REMARK    7  A    between atoms: C_13  and  N_14
REMARK    8  A    between atoms: N_14  and  C_15
REMARK                            x       y       z     vdW  Elec       q    Type
REMARK                         _______ _______ _______ _____ _____    ______ ____
ROOT
ATOM      1  N   UNL     1      49.166   7.020  13.812  0.00  0.00    +0.000 N 
ATOM      2  C   UNL     1      48.073   6.137  13.647  0.00  0.00    +0.000 A 
ATOM      3  C   UNL     1      47.256   6.280  12.523  0.00  0.00    +0.000 A 
ATOM      4  C   UNL     1      46.079   5.516  12.385  0.00  0.00    +0.000 A 
ATOM      5  C   UNL     1      45.845   4.556  13.373  0.00  0.00    +0.000 A 
ATOM      6  C   UNL     1      46.730   4.445  14.435  0.00  0.00    +0.000 A 
ATOM      7  N   UNL     1      47.818   5.227  14.601  0.00  0.00    +0.000 NA
ATOM      8  H   UNL     1      49.878   6.782  13.120  0.00  0.00    +0.000 HD
ENDROOT
BRANCH   1  13
ATOM      9  C   UNL     1      48.336   9.534  15.270  0.00  0.00    +0.000 C 
ATOM     10  C   UNL     1      49.449   8.627  15.748  0.00  0.00    +0.000 C 
ATOM     11  O   UNL     1      50.753   9.098  15.286  0.00  0.00    +0.000 OA
ATOM     12  C   UNL     1      51.182   7.713  15.126  0.00  0.00    +0.000 C 
ATOM     13  C   UNL     1      49.723   7.236  15.129  0.00  0.00    +0.000 C 
ENDBRANCH   1  13
BRANCH   4  14
ATOM     14  C   UNL     1      45.097   5.784  11.228  0.00  0.00    +0.000 C 
ATOM     15  C   UNL     1      43.860   4.865  11.377  0.00  0.00    +0.000 C 
ATOM     16  C   UNL     1      44.617   7.254  11.313  0.00  0.00    +0.000 C 
BRANCH  14  17
ATOM     17  C   UNL     1      45.688   5.611   9.784  0.00  0.00    +0.000 C 
BRANCH  17  18
ATOM     18  N   UNL     1      44.962   4.636   8.957  0.00  0.00    +0.000 N 
ATOM     19  H   UNL     1      44.391   5.070   8.232  0.00  0.00    +0.000 HD
BRANCH  18  20
ATOM     20  C   UNL     1      45.649   3.518   8.475  0.00  0.00    +0.000 A 
ATOM     21  C   UNL     1      45.441   2.205   8.872  0.00  0.00    +0.000 A 
ATOM     22  N   UNL     1      46.069   1.122   8.349  0.00  0.00    +0.000 NA
ATOM     23  C   UNL     1      46.930   1.380   7.357  0.00  0.00    +0.000 A 
ATOM     24  N   UNL     1      47.197   2.587   6.842  0.00  0.00    +0.000 NA
ATOM     25  C   UNL     1      46.534   3.620   7.412  0.00  0.00    +0.000 A 
ENDBRANCH  18  20
ENDBRANCH  17  18
ENDBRANCH  14  17
ENDBRANCH   4  14
TORSDOF 5
ENDMDL
MODEL 5
REMARK VINA RESULT:    -6.281      3.022      7.113
REMARK INTER + INTRA:          -8.708
REMARK INTER:                  -7.856
REMARK INTRA:                  -0.852
REMARK UNBOUND:                -0.590
REMARK  Name = 
REMARK  8 active torsions:
REMARK  status: ('A' for Active; 'I' for Inactive)
REMARK    1  A    between atoms: C_1  and  C_2
REMARK    2  A    between atoms: C_5  and  N_6
REMARK    3  A    between atoms: C_9  and  C_10
REMARK    4  A    between atoms: C_10  and  C_11
REMARK    5  A    between atoms: C_10  and  C_12
REMARK    6  A    between atoms: C_10  and  C_13
REMARK    7  A    between atoms: C_13  and  N_14
REMARK    8  A    between atoms: N_14  and  C_15
REMARK                            x       y       z     vdW  Elec       q    Type
REMARK                         _______ _______ _______ _____ _____    ______ ____
ROOT
ATOM      1  N   UNL     1      45.772   5.543  10.609  0.00  0.00    +0.000 N 
ATOM      2  C   UNL     1      46.021   6.686  11.403  0.00  0.00    +0.000 A 
ATOM      3  C   UNL     1      47.334   6.963  11.790  0.00  0.00    +0.000 A 
ATOM      4  C   UNL     1      47.614   8.010  12.693  0.00  0.00    +0.000 A 
ATOM      5  C   UNL     1      46.529   8.799  13.082  0.00  0.00    +0.000 A 
ATOM      6  C   UNL     1      45.260   8.485  12.616  0.00  0.00    +0.000 A 
ATOM      7  N   UNL     1      44.985   7.439  11.809  0.00  0.00    +0.000 NA
ATOM      8  H   UNL     1      46.135   5.718   9.671  0.00  0.00    +0.000 HD
ENDROOT
BRANCH   1  13
ATOM      9  C   UNL     1      45.266   3.219  12.474  0.00  0.00    +0.000 C 
ATOM     10  C   UNL     1      44.295   3.641  11.392  0.00  0.00    +0.000 C 
ATOM     11  O   UNL     1      44.492   2.863  10.170  0.00  0.00    +0.000 OA
ATOM     12  C   UNL     1      44.180   4.049   9.381  0.00  0.00    +0.000 C 
ATOM     13  C   UNL     1      44.451   4.955  10.591  0.00  0.00    +0.000 C 
ENDBRANCH   1  13
BRANCH   4  14
ATOM     14  C   UNL     1      49.039   8.215  13.243  0.00  0.00    +0.000 C 
ATOM     15  C   UNL     1      50.070   7.952  12.117  0.00  0.00    +0.000 C 
ATOM     16  C   UNL     1      49.190   9.688  13.698  0.00  0.00    +0.000 C 
BRANCH  14  17
ATOM     17  C   UNL     1      49.416   7.341  14.491  0.00  0.00    +0.000 C 
BRANCH  17  18
ATOM     18  N   UNL     1      48.266   6.977  15.332  0.00  0.00    +0.000 N 
ATOM     19  H   UNL     1      47.380   7.341  14.980  0.00  0.00    +0.000 HD
BRANCH  18  20
ATOM     20  C   UNL     1      48.146   5.657  15.772  0.00  0.00    +0.000 A 
ATOM     21  C   UNL     1      47.465   4.641  15.117  0.00  0.00    +0.000 A 
ATOM     22  N   UNL     1      47.411   3.348  15.521  0.00  0.00    +0.000 NA
ATOM     23  C   UNL     1      48.103   3.063  16.631  0.00  0.00    +0.000 A 
ATOM     24  N   UNL     1      48.840   3.928  17.340  0.00  0.00    +0.000 NA
ATOM     25  C   UNL     1      48.849   5.199  16.877  0.00  0.00    +0.000 A 
ENDBRANCH  18  20
ENDBRANCH  17  18
ENDBRANCH  14  17
ENDBRANCH   4  14
TORSDOF 5
ENDMDL
MODEL 6
REMARK VINA RESULT:    -5.979      2.805      4.609
REMARK INTER + INTRA:          -8.317
REMARK INTER:                  -7.618
REMARK INTRA:                  -0.700
REMARK UNBOUND:                -0.590
REMARK  Name = 
REMARK  8 active torsions:
REMARK  status: ('A' for Active; 'I' for Inactive)
REMARK    1  A    between atoms: C_1  and  C_2
REMARK    2  A    between atoms: C_5  and  N_6
REMARK    3  A    between atoms: C_9  and  C_10
REMARK    4  A    between atoms: C_10  and  C_11
REMARK    5  A    between atoms: C_10  and  C_12
REMARK    6  A    between atoms: C_10  and  C_13
REMARK    7  A    between atoms: C_13  and  N_14
REMARK    8  A    between atoms: N_14  and  C_15
REMARK                            x       y       z     vdW  Elec       q    Type
REMARK                         _______ _______ _______ _____ _____    ______ ____
ROOT
ATOM      1  N   UNL     1      48.445   5.369  16.993  0.00  0.00    +0.000 N 
ATOM      2  C   UNL     1      48.968   6.220  15.992  0.00  0.00    +0.000 A 
ATOM      3  C   UNL     1      48.152   6.572  14.915  0.00  0.00    +0.000 A 
ATOM      4  C   UNL     1      48.670   7.304  13.827  0.00  0.00    +0.000 A 
ATOM      5  C   UNL     1      49.995   7.733  13.944  0.00  0.00    +0.000 A 
ATOM      6  C   UNL     1      50.725   7.381  15.069  0.00  0.00    +0.000 A 
ATOM      7  N   UNL     1      50.248   6.620  16.076  0.00  0.00    +0.000 NA
ATOM      8  H   UNL     1      47.758   5.894  17.535  0.00  0.00    +0.000 HD
ENDROOT
BRANCH   1  13
ATOM      9  C   UNL     1      48.644   2.399  16.467  0.00  0.00    +0.000 C 
ATOM     10  C   UNL     1      49.257   3.070  17.678  0.00  0.00    +0.000 C 
ATOM     11  O   UNL     1      48.365   2.998  18.833  0.00  0.00    +0.000 OA
ATOM     12  C   UNL     1      48.809   4.326  19.242  0.00  0.00    +0.000 C 
ATOM     13  C   UNL     1      49.345   4.607  17.830  0.00  0.00    +0.000 C 
ENDBRANCH   1  13
BRANCH   4  14
ATOM     14  C   UNL     1      47.816   7.555  12.568  0.00  0.00    +0.000 C 
ATOM     15  C   UNL     1      46.845   8.733  12.830  0.00  0.00    +0.000 C 
ATOM     16  C   UNL     1      48.753   7.956  11.402  0.00  0.00    +0.000 C 
BRANCH  14  17
ATOM     17  C   UNL     1      46.993   6.323  12.051  0.00  0.00    +0.000 C 
BRANCH  17  18
ATOM     18  N   UNL     1      45.545   6.436  12.280  0.00  0.00    +0.000 N 
ATOM     19  H   UNL     1      45.136   7.271  11.862  0.00  0.00    +0.000 HD
BRANCH  18  20
ATOM     20  C   UNL     1      44.742   5.310  12.077  0.00  0.00    +0.000 A 
ATOM     21  C   UNL     1      44.203   4.905  10.865  0.00  0.00    +0.000 A 
ATOM     22  N   UNL     1      43.480   3.774  10.670  0.00  0.00    +0.000 NA
ATOM     23  C   UNL     1      43.318   3.001  11.751  0.00  0.00    +0.000 A 
ATOM     24  N   UNL     1      43.818   3.241  12.970  0.00  0.00    +0.000 NA
ATOM     25  C   UNL     1      44.528   4.386  13.090  0.00  0.00    +0.000 A 
ENDBRANCH  18  20
ENDBRANCH  17  18
ENDBRANCH  14  17
ENDBRANCH   4  14
TORSDOF 5
ENDMDL
MODEL 7
REMARK VINA RESULT:    -5.952      2.024      3.661
REMARK INTER + INTRA:          -8.282
REMARK INTER:                  -7.648
REMARK INTRA:                  -0.634
REMARK UNBOUND:                -0.590
REMARK  Name = 
REMARK  8 active torsions:
REMARK  status: ('A' for Active; 'I' for Inactive)
REMARK    1  A    between atoms: C_1  and  C_2
REMARK    2  A    between atoms: C_5  and  N_6
REMARK    3  A    between atoms: C_9  and  C_10
REMARK    4  A    between atoms: C_10  and  C_11
REMARK    5  A    between atoms: C_10  and  C_12
REMARK    6  A    between atoms: C_10  and  C_13
REMARK    7  A    between atoms: C_13  and  N_14
REMARK    8  A    between atoms: N_14  and  C_15
REMARK                            x       y       z     vdW  Elec       q    Type
REMARK                         _______ _______ _______ _____ _____    ______ ____
ROOT
ATOM      1  N   UNL     1      49.635   6.658  16.257  0.00  0.00    +0.000 N 
ATOM      2  C   UNL     1      48.626   6.000  15.515  0.00  0.00    +0.000 A 
ATOM      3  C   UNL     1      48.111   6.626  14.378  0.00  0.00    +0.000 A 
ATOM      4  C   UNL     1      47.013   6.074  13.687  0.00  0.00    +0.000 A 
ATOM      5  C   UNL     1      46.552   4.836  14.143  0.00  0.00    +0.000 A 
ATOM      6  C   UNL     1      47.149   4.258  15.253  0.00  0.00    +0.000 A 
ATOM      7  N   UNL     1      48.154   4.822  15.955  0.00  0.00    +0.000 NA
ATOM      8  H   UNL     1      50.498   6.639  15.713  0.00  0.00    +0.000 HD
ENDROOT
BRANCH   1  13
ATOM      9  C   UNL     1      48.087   8.226  18.326  0.00  0.00    +0.000 C 
ATOM     10  C   UNL     1      49.210   7.273  18.676  0.00  0.00    +0.000 C 
ATOM     11  O   UNL     1      50.481   7.980  18.816  0.00  0.00    +0.000 OA
ATOM     12  C   UNL     1      51.168   6.834  18.230  0.00  0.00    +0.000 C 
ATOM     13  C   UNL     1      49.847   6.312  17.645  0.00  0.00    +0.000 C 
ENDBRANCH   1  13
BRANCH   4  14
ATOM     14  C   UNL     1      46.344   6.843  12.530  0.00  0.00    +0.000 C 
ATOM     15  C   UNL     1      45.917   8.248  13.023  0.00  0.00    +0.000 C 
ATOM     16  C   UNL     1      47.377   7.027  11.391  0.00  0.00    +0.000 C 
BRANCH  14  17
ATOM     17  C   UNL     1      45.106   6.136  11.874  0.00  0.00    +0.000 C 
BRANCH  17  18
ATOM     18  N   UNL     1      45.216   5.972  10.417  0.00  0.00    +0.000 N 
ATOM     19  H   UNL     1      46.051   6.408  10.026  0.00  0.00    +0.000 HD
BRANCH  18  20
ATOM     20  C   UNL     1      44.982   4.712   9.862  0.00  0.00    +0.000 A 
ATOM     21  C   UNL     1      45.530   4.229   8.682  0.00  0.00    +0.000 A 
ATOM     22  N   UNL     1      45.347   2.979   8.188  0.00  0.00    +0.000 NA
ATOM     23  C   UNL     1      44.592   2.169   8.940  0.00  0.00    +0.000 A 
ATOM     24  N   UNL     1      44.037   2.482  10.118  0.00  0.00    +0.000 NA
ATOM     25  C   UNL     1      44.263   3.744  10.549  0.00  0.00    +0.000 A 
ENDBRANCH  18  20
ENDBRANCH  17  18
ENDBRANCH  14  17
ENDBRANCH   4  14
TORSDOF 5
ENDMDL
MODEL 8
REMARK VINA RESULT:    -5.711      4.465      6.341
REMARK INTER + INTRA:          -7.971
REMARK INTER:                  -7.360
REMARK INTRA:                  -0.611
REMARK UNBOUND:                -0.590
REMARK  Name = 
REMARK  8 active torsions:
REMARK  status: ('A' for Active; 'I' for Inactive)
REMARK    1  A    between atoms: C_1  and  C_2
REMARK    2  A    between atoms: C_5  and  N_6
REMARK    3  A    between atoms: C_9  and  C_10
REMARK    4  A    between atoms: C_10  and  C_11
REMARK    5  A    between atoms: C_10  and  C_12
REMARK    6  A    between atoms: C_10  and  C_13
REMARK    7  A    between atoms: C_13  and  N_14
REMARK    8  A    between atoms: N_14  and  C_15
REMARK                            x       y       z     vdW  Elec       q    Type
REMARK                         _______ _______ _______ _____ _____    ______ ____
ROOT
ATOM      1  N   UNL     1      52.059   7.596  11.377  0.00  0.00    +0.000 N 
ATOM      2  C   UNL     1      50.820   8.256  11.548  0.00  0.00    +0.000 A 
ATOM      3  C   UNL     1      49.736   7.532  12.047  0.00  0.00    +0.000 A 
ATOM      4  C   UNL     1      48.450   8.108  12.106  0.00  0.00    +0.000 A 
ATOM      5  C   UNL     1      48.356   9.453  11.737  0.00  0.00    +0.000 A 
ATOM      6  C   UNL     1      49.491  10.115  11.294  0.00  0.00    +0.000 A 
ATOM      7  N   UNL     1      50.707   9.541  11.172  0.00  0.00    +0.000 NA
ATOM      8  H   UNL     1      52.456   7.414  12.299  0.00  0.00    +0.000 HD
ENDROOT
BRANCH   1  13
ATOM      9  C   UNL     1      53.725   5.602   9.832  0.00  0.00    +0.000 C 
ATOM     10  C   UNL     1      54.009   7.089   9.843  0.00  0.00    +0.000 C 
ATOM     11  O   UNL     1      55.010   7.429  10.852  0.00  0.00    +0.000 OA
ATOM     12  C   UNL     1      54.303   8.678  11.113  0.00  0.00    +0.000 C 
ATOM     13  C   UNL     1      53.033   8.125  10.449  0.00  0.00    +0.000 C 
ENDBRANCH   1  13
BRANCH   4  14
ATOM     14  C   UNL     1      47.225   7.262  12.507  0.00  0.00    +0.000 C 
ATOM     15  C   UNL     1      47.649   6.208  13.560  0.00  0.00    +0.000 C 
ATOM     16  C   UNL     1      46.169   8.191  13.155  0.00  0.00    +0.000 C 
BRANCH  14  17
ATOM     17  C   UNL     1      46.489   6.535  11.327  0.00  0.00    +0.000 C 
BRANCH  17  18
ATOM     18  N   UNL     1      45.028   6.470  11.487  0.00  0.00    +0.000 N 
ATOM     19  H   UNL     1      44.526   7.082  10.843  0.00  0.00    +0.000 HD
BRANCH  18  20
ATOM     20  C   UNL     1      44.418   5.218  11.593  0.00  0.00    +0.000 A 
ATOM     21  C   UNL     1      44.095   4.380  10.535  0.00  0.00    +0.000 A 
ATOM     22  N   UNL     1      43.562   3.138  10.656  0.00  0.00    +0.000 NA
ATOM     23  C   UNL     1      43.373   2.713  11.911  0.00  0.00    +0.000 A 
ATOM     24  N   UNL     1      43.679   3.392  13.024  0.00  0.00    +0.000 NA
ATOM     25  C   UNL     1      44.207   4.622  12.828  0.00  0.00    +0.000 A 
ENDBRANCH  18  20
ENDBRANCH  17  18
ENDBRANCH  14  17
ENDBRANCH   4  14
TORSDOF 5
ENDMDL
MODEL 9
REMARK VINA RESULT:    -5.637      4.006      8.096
REMARK INTER + INTRA:          -7.875
REMARK INTER:                  -6.929
REMARK INTRA:                  -0.946
REMARK UNBOUND:                -0.590
REMARK  Name = 
REMARK  8 active torsions:
REMARK  status: ('A' for Active; 'I' for Inactive)
REMARK    1  A    between atoms: C_1  and  C_2
REMARK    2  A    between atoms: C_5  and  N_6
REMARK    3  A    between atoms: C_9  and  C_10
REMARK    4  A    between atoms: C_10  and  C_11
REMARK    5  A    between atoms: C_10  and  C_12
REMARK    6  A    between atoms: C_10  and  C_13
REMARK    7  A    between atoms: C_13  and  N_14
REMARK    8  A    between atoms: N_14  and  C_15
REMARK                            x       y       z     vdW  Elec       q    Type
REMARK                         _______ _______ _______ _____ _____    ______ ____
ROOT
ATOM      1  N   UNL     1      46.327   4.562  14.766  0.00  0.00    +0.000 N 
ATOM      2  C   UNL     1      47.188   4.036  15.757  0.00  0.00    +0.000 A 
ATOM      3  C   UNL     1      47.303   4.709  16.974  0.00  0.00    +0.000 A 
ATOM      4  C   UNL     1      48.249   4.300  17.938  0.00  0.00    +0.000 A 
ATOM      5  C   UNL     1      48.973   3.143  17.642  0.00  0.00    +0.000 A 
ATOM      6  C   UNL     1      48.767   2.505  16.428  0.00  0.00    +0.000 A 
ATOM      7  N   UNL     1      47.912   2.939  15.478  0.00  0.00    +0.000 NA
ATOM      8  H   UNL     1      45.363   4.418  15.069  0.00  0.00    +0.000 HD
ENDROOT
BRANCH   1  13
ATOM      9  C   UNL     1      46.361   6.821  12.758  0.00  0.00    +0.000 C 
ATOM     10  C   UNL     1      46.324   5.360  12.363  0.00  0.00    +0.000 C 
ATOM     11  O   UNL     1      44.955   4.912  12.119  0.00  0.00    +0.000 OA
ATOM     12  C   UNL     1      45.293   3.613  12.691  0.00  0.00    +0.000 C 
ATOM     13  C   UNL     1      46.529   4.211  13.378  0.00  0.00    +0.000 C 
ENDBRANCH   1  13
BRANCH   4  14
ATOM     14  C   UNL     1      48.486   5.135  19.212  0.00  0.00    +0.000 C 
ATOM     15  C   UNL     1      47.238   6.007  19.497  0.00  0.00    +0.000 C 
ATOM     16  C   UNL     1      48.684   4.172  20.408  0.00  0.00    +0.000 C 
BRANCH  14  17
ATOM     17  C   UNL     1      49.756   6.057  19.190  0.00  0.00    +0.000 C 
BRANCH  17  18
ATOM     18  N   UNL     1      49.507   7.401  18.647  0.00  0.00    +0.000 N 
ATOM     19  H   UNL     1      50.014   8.135  19.143  0.00  0.00    +0.000 HD
BRANCH  18  20
ATOM     20  C   UNL     1      49.551   7.586  17.263  0.00  0.00    +0.000 A 
ATOM     21  C   UNL     1      50.341   6.872  16.373  0.00  0.00    +0.000 A 
ATOM     22  N   UNL     1      50.326   7.016  15.025  0.00  0.00    +0.000 NA
ATOM     23  C   UNL     1      49.448   7.909  14.552  0.00  0.00    +0.000 A 
ATOM     24  N   UNL     1      48.594   8.634  15.285  0.00  0.00    +0.000 NA
ATOM     25  C   UNL     1      48.664   8.438  16.621  0.00  0.00    +0.000 A 
ENDBRANCH  18  20
ENDBRANCH  17  18
ENDBRANCH  14  17
ENDBRANCH   4  14
TORSDOF 5
ENDMDL
