MODEL 1
REMARK VINA RESULT:    -8.289      0.000      0.000
REMARK INTER + INTRA:         -11.043
REMARK INTER:                 -10.955
REMARK INTRA:                  -0.089
REMARK UNBOUND:                -0.089
REMARK  Name = 
REMARK  7 active torsions:
REMARK  status: ('A' for Active; 'I' for Inactive)
REMARK    1  A    between atoms: C_1  and  C_2
REMARK    2  A    between atoms: C_4  and  C_5
REMARK    3  A    between atoms: C_5  and  N_6
REMARK    4  A    between atoms: C_7  and  C_9
REMARK    5  A    between atoms: C_21  and  C_22
REMARK    6  A    between atoms: C_22  and  N_23
REMARK    7  A    between atoms: C_26  and  O_27
REMARK                            x       y       z     vdW  Elec       q    Type
REMARK                         _______ _______ _______ _____ _____    ______ ____
ROOT
ATOM      1  C   UNL     1      45.668   7.256  12.421  0.00  0.00    +0.000 C 
ENDROOT
BRANCH   1   5
ATOM      2  C   UNL     1      43.411   2.878  11.742  0.00  0.00    +0.000 C 
ATOM      3  C   UNL     1      44.342   3.904  11.150  0.00  0.00    +0.000 A 
ATOM      4  C   UNL     1      44.643   5.016  11.961  0.00  0.00    +0.000 A 
ATOM      5  C   UNL     1      45.437   6.075  11.514  0.00  0.00    +0.000 A 
ATOM      6  C   UNL     1      45.937   6.021  10.214  0.00  0.00    +0.000 A 
ATOM      7  C   UNL     1      45.657   4.918   9.393  0.00  0.00    +0.000 A 
ATOM      8  C   UNL     1      44.865   3.835   9.839  0.00  0.00    +0.000 A 
BRANCH   8   9
ATOM      9  C   UNL     1      44.524   2.722   8.847  0.00  0.00    +0.000 C 
BRANCH   9  10
ATOM     10  N   UNL     1      45.459   2.441   7.755  0.00  0.00    +0.000 NA
ATOM     11  C   UNL     1      46.316   1.281   7.893  0.00  0.00    +0.000 C 
ATOM     12  C   UNL     1      47.657   1.615   7.260  0.00  0.00    +0.000 C 
ATOM     13  C   UNL     1      47.503   2.987   6.636  0.00  0.00    +0.000 C 
ATOM     14  C   UNL     1      46.191   3.561   7.179  0.00  0.00    +0.000 C 
BRANCH  13  15
ATOM     15  O   UNL     1      47.488   2.875   5.215  0.00  0.00    +0.000 OA
ATOM     16  H   UNL     1      48.392   2.649   4.933  0.00  0.00    +0.000 HD
ENDBRANCH  13  15
ENDBRANCH   9  10
ENDBRANCH   8   9
ENDBRANCH   1   5
BRANCH   1  17
ATOM     17  N   UNL     1      46.360   6.867  13.627  0.00  0.00    +0.000 N 
ATOM     18  C   UNL     1      47.729   6.775  13.654  0.00  0.00    +0.000 C 
ATOM     19  O   UNL     1      48.413   7.042  12.672  0.00  0.00    +0.000 OA
ATOM     20  H   UNL     1      45.810   6.419  14.363  0.00  0.00    +0.000 HD
BRANCH  18  21
ATOM     21  C   UNL     1      48.347   6.399  14.932  0.00  0.00    +0.000 A 
ATOM     22  C   UNL     1      49.353   7.196  15.465  0.00  0.00    +0.000 A 
ATOM     23  S   UNL     1      49.934   6.654  16.973  0.00  0.00    +0.000 S 
ATOM     24  C   UNL     1      48.903   5.301  16.945  0.00  0.00    +0.000 A 
ATOM     25  N   UNL     1      48.919   4.390  17.955  0.00  0.00    +0.000 NA
ATOM     26  C   UNL     1      48.108   3.400  17.794  0.00  0.00    +0.000 A 
ATOM     27  N   UNL     1      47.279   3.239  16.716  0.00  0.00    +0.000 N 
ATOM     28  C   UNL     1      47.207   4.144  15.682  0.00  0.00    +0.000 A 
ATOM     29  O   UNL     1      46.428   3.984  14.749  0.00  0.00    +0.000 OA
ATOM     30  C   UNL     1      48.110   5.274  15.810  0.00  0.00    +0.000 A 
ATOM     31  H   UNL     1      46.660   2.443  16.652  0.00  0.00    +0.000 HD
ENDBRANCH  18  21
ENDBRANCH   1  17
TORSDOF 6
ENDMDL
MODEL 2
REMARK VINA RESULT:    -7.849      2.378      3.101
REMARK INTER + INTRA:         -10.461
REMARK INTER:                  -9.443
REMARK INTRA:                  -1.018
REMARK UNBOUND:                -0.089
REMARK  Name = 
REMARK  7 active torsions:
REMARK  status: ('A' for Active; 'I' for Inactive)
REMARK    1  A    between atoms: C_1  and  C_2
REMARK    2  A    between atoms: C_4  and  C_5
REMARK    3  A    between atoms: C_5  and  N_6
REMARK    4  A    between atoms: C_7  and  C_9
REMARK    5  A    between atoms: C_21  and  C_22
REMARK    6  A    between atoms: C_22  and  N_23
REMARK    7  A    between atoms: C_26  and  O_27
REMARK                            x       y       z     vdW  Elec       q    Type
REMARK                         _______ _______ _______ _____ _____    ______ ____
ROOT
ATOM      1  C   UNL     1      47.944   7.464  13.815  0.00  0.00    +0.000 C 
ENDROOT
BRANCH   1   5
ATOM      2  C   UNL     1      45.589   3.239  12.661  0.00  0.00    +0.000 C 
ATOM      3  C   UNL     1      45.821   4.679  12.282  0.00  0.00    +0.000 A 
ATOM      4  C   UNL     1      46.735   5.395  13.080  0.00  0.00    +0.000 A 
ATOM      5  C   UNL     1      46.994   6.755  12.884  0.00  0.00    +0.000 A 
ATOM      6  C   UNL     1      46.311   7.416  11.865  0.00  0.00    +0.000 A 
ATOM      7  C   UNL     1      45.403   6.719  11.054  0.00  0.00    +0.000 A 
ATOM      8  C   UNL     1      45.142   5.341  11.234  0.00  0.00    +0.000 A 
BRANCH   8   9
ATOM      9  C   UNL     1      44.064   4.683  10.373  0.00  0.00    +0.000 C 
BRANCH   9  10
ATOM     10  N   UNL     1      44.476   3.890   9.212  0.00  0.00    +0.000 NA
ATOM     11  C   UNL     1      44.489   2.449   9.361  0.00  0.00    +0.000 C 
ATOM     12  C   UNL     1      45.654   1.908   8.550  0.00  0.00    +0.000 C 
ATOM     13  C   UNL     1      46.251   3.094   7.819  0.00  0.00    +0.000 C 
ATOM     14  C   UNL     1      45.633   4.343   8.452  0.00  0.00    +0.000 C 
BRANCH  13  15
ATOM     15  O   UNL     1      45.961   3.002   6.426  0.00  0.00    +0.000 OA
ATOM     16  H   UNL     1      45.863   3.911   6.091  0.00  0.00    +0.000 HD
ENDBRANCH  13  15
ENDBRANCH   9  10
ENDBRANCH   8   9
ENDBRANCH   1   5
BRANCH   1  17
ATOM     17  N   UNL     1      47.885   6.914  15.148  0.00  0.00    +0.000 N 
ATOM     18  C   UNL     1      49.028   6.516  15.796  0.00  0.00    +0.000 C 
ATOM     19  O   UNL     1      50.136   6.635  15.283  0.00  0.00    +0.000 OA
ATOM     20  H   UNL     1      46.976   6.592  15.487  0.00  0.00    +0.000 HD
BRANCH  18  21
ATOM     21  C   UNL     1      48.874   5.994  17.160  0.00  0.00    +0.000 A 
ATOM     22  C   UNL     1      49.191   4.666  17.423  0.00  0.00    +0.000 A 
ATOM     23  S   UNL     1      49.006   4.226  19.060  0.00  0.00    +0.000 S 
ATOM     24  C   UNL     1      48.442   5.778  19.469  0.00  0.00    +0.000 A 
ATOM     25  N   UNL     1      48.073   6.072  20.745  0.00  0.00    +0.000 NA
ATOM     26  C   UNL     1      47.638   7.276  20.911  0.00  0.00    +0.000 A 
ATOM     27  N   UNL     1      47.544   8.214  19.918  0.00  0.00    +0.000 N 
ATOM     28  C   UNL     1      47.928   7.974  18.618  0.00  0.00    +0.000 A 
ATOM     29  O   UNL     1      47.860   8.849  17.763  0.00  0.00    +0.000 OA
ATOM     30  C   UNL     1      48.416   6.628  18.376  0.00  0.00    +0.000 A 
ATOM     31  H   UNL     1      47.201   9.144  20.114  0.00  0.00    +0.000 HD
ENDBRANCH  18  21
ENDBRANCH   1  17
TORSDOF 6
ENDMDL
MODEL 3
REMARK VINA RESULT:    -7.836      4.146      9.382
REMARK INTER + INTRA:         -10.445
REMARK INTER:                  -9.706
REMARK INTRA:                  -0.739
REMARK UNBOUND:                -0.089
REMARK  Name = 
REMARK  7 active torsions:
REMARK  status: ('A' for Active; 'I' for Inactive)
REMARK    1  A    between atoms: C_1  and  C_2
REMARK    2  A    between atoms: C_4  and  C_5
REMARK    3  A    between atoms: C_5  and  N_6
REMARK    4  A    between atoms: C_7  and  C_9
REMARK    5  A    between atoms: C_21  and  C_22
REMARK    6  A    between atoms: C_22  and  N_23
REMARK    7  A    between atoms: C_26  and  O_27
REMARK                            x       y       z     vdW  Elec       q    Type
REMARK                         _______ _______ _______ _____ _____    ______ ____
ROOT
ATOM      1  C   UNL     1      47.184   3.420  16.791  0.00  0.00    +0.000 C 
ENDROOT
BRANCH   1   5
ATOM      2  C   UNL     1      51.065   6.282  17.999  0.00  0.00    +0.000 C 
ATOM      3  C   UNL     1      50.607   4.894  17.636  0.00  0.00    +0.000 A 
ATOM      4  C   UNL     1      49.239   4.746  17.335  0.00  0.00    +0.000 A 
ATOM      5  C   UNL     1      48.666   3.504  17.049  0.00  0.00    +0.000 A 
ATOM      6  C   UNL     1      49.486   2.378  17.073  0.00  0.00    +0.000 A 
ATOM      7  C   UNL     1      50.853   2.504  17.362  0.00  0.00    +0.000 A 
ATOM      8  C   UNL     1      51.447   3.757  17.641  0.00  0.00    +0.000 A 
BRANCH   8   9
ATOM      9  C   UNL     1      52.921   3.793  18.046  0.00  0.00    +0.000 C 
BRANCH   9  10
ATOM     10  N   UNL     1      53.431   2.752  18.942  0.00  0.00    +0.000 NA
ATOM     11  C   UNL     1      53.942   3.174  20.230  0.00  0.00    +0.000 C 
ATOM     12  C   UNL     1      55.116   2.275  20.583  0.00  0.00    +0.000 C 
ATOM     13  C   UNL     1      55.191   1.226  19.491  0.00  0.00    +0.000 C 
ATOM     14  C   UNL     1      54.271   1.710  18.367  0.00  0.00    +0.000 C 
BRANCH  13  15
ATOM     15  O   UNL     1      54.784  -0.040  20.006  0.00  0.00    +0.000 OA
ATOM     16  H   UNL     1      55.235  -0.724  19.481  0.00  0.00    +0.000 HD
ENDBRANCH  13  15
ENDBRANCH   9  10
ENDBRANCH   8   9
ENDBRANCH   1   5
BRANCH   1  17
ATOM     17  N   UNL     1      46.758   4.413  15.833  0.00  0.00    +0.000 N 
ATOM     18  C   UNL     1      46.805   4.157  14.485  0.00  0.00    +0.000 C 
ATOM     19  O   UNL     1      47.181   3.074  14.047  0.00  0.00    +0.000 OA
ATOM     20  H   UNL     1      46.673   5.378  16.159  0.00  0.00    +0.000 HD
BRANCH  18  21
ATOM     21  C   UNL     1      46.326   5.215  13.587  0.00  0.00    +0.000 A 
ATOM     22  C   UNL     1      47.148   6.301  13.312  0.00  0.00    +0.000 A 
ATOM     23  S   UNL     1      46.470   7.417  12.217  0.00  0.00    +0.000 S 
ATOM     24  C   UNL     1      45.028   6.520  12.112  0.00  0.00    +0.000 A 
ATOM     25  N   UNL     1      43.994   6.950  11.340  0.00  0.00    +0.000 NA
ATOM     26  C   UNL     1      42.951   6.190  11.373  0.00  0.00    +0.000 A 
ATOM     27  N   UNL     1      42.851   5.037  12.105  0.00  0.00    +0.000 N 
ATOM     28  C   UNL     1      43.877   4.547  12.879  0.00  0.00    +0.000 A 
ATOM     29  O   UNL     1      43.762   3.493  13.495  0.00  0.00    +0.000 OA
ATOM     30  C   UNL     1      45.071   5.372  12.886  0.00  0.00    +0.000 A 
ATOM     31  H   UNL     1      42.008   4.480  12.082  0.00  0.00    +0.000 HD
ENDBRANCH  18  21
ENDBRANCH   1  17
TORSDOF 6
ENDMDL
MODEL 4
REMARK VINA RESULT:    -7.709      2.568      3.283
REMARK INTER + INTRA:         -10.277
REMARK INTER:                  -9.421
REMARK INTRA:                  -0.855
REMARK UNBOUND:                -0.089
REMARK  Name = 
REMARK  7 active torsions:
REMARK  status: ('A' for Active; 'I' for Inactive)
REMARK    1  A    between atoms: C_1  and  C_2
REMARK    2  A    between atoms: C_4  and  C_5
REMARK    3  A    between atoms: C_5  and  N_6
REMARK    4  A    between atoms: C_7  and  C_9
REMARK    5  A    between atoms: C_21  and  C_22
REMARK    6  A    between atoms: C_22  and  N_23
REMARK    7  A    between atoms: C_26  and  O_27
REMARK                            x       y       z     vdW  Elec       q    Type
REMARK                         _______ _______ _______ _____ _____    ______ ____
ROOT
ATOM      1  C   UNL     1      45.879   6.083  13.171  0.00  0.00    +0.000 C 
ENDROOT
BRANCH   1   5
ATOM      2  C   UNL     1      43.865   2.330  10.604  0.00  0.00    +0.000 C 
ATOM      3  C   UNL     1      44.679   3.596  10.528  0.00  0.00    +0.000 A 
ATOM      4  C   UNL     1      44.969   4.227  11.754  0.00  0.00    +0.000 A 
ATOM      5  C   UNL     1      45.655   5.442  11.825  0.00  0.00    +0.000 A 
ATOM      6  C   UNL     1      46.055   6.045  10.634  0.00  0.00    +0.000 A 
ATOM      7  C   UNL     1      45.785   5.429   9.403  0.00  0.00    +0.000 A 
ATOM      8  C   UNL     1      45.102   4.193   9.319  0.00  0.00    +0.000 A 
BRANCH   8   9
ATOM      9  C   UNL     1      44.758   3.642   7.935  0.00  0.00    +0.000 C 
BRANCH   9  10
ATOM     10  N   UNL     1      45.750   2.820   7.237  0.00  0.00    +0.000 NA
ATOM     11  C   UNL     1      46.061   1.525   7.808  0.00  0.00    +0.000 C 
ATOM     12  C   UNL     1      47.538   1.255   7.573  0.00  0.00    +0.000 C 
ATOM     13  C   UNL     1      48.051   2.404   6.727  0.00  0.00    +0.000 C 
ATOM     14  C   UNL     1      46.956   3.474   6.748  0.00  0.00    +0.000 C 
BRANCH  13  15
ATOM     15  O   UNL     1      48.326   1.948   5.405  0.00  0.00    +0.000 OA
ATOM     16  H   UNL     1      48.052   2.653   4.793  0.00  0.00    +0.000 HD
ENDBRANCH  13  15
ENDBRANCH   9  10
ENDBRANCH   8   9
ENDBRANCH   1   5
BRANCH   1  17
ATOM     17  N   UNL     1      47.097   6.858  13.191  0.00  0.00    +0.000 N 
ATOM     18  C   UNL     1      47.059   8.225  13.299  0.00  0.00    +0.000 C 
ATOM     19  O   UNL     1      46.000   8.835  13.409  0.00  0.00    +0.000 OA
ATOM     20  H   UNL     1      47.952   6.402  12.866  0.00  0.00    +0.000 HD
BRANCH  18  21
ATOM     21  C   UNL     1      48.347   8.928  13.338  0.00  0.00    +0.000 A 
ATOM     22  C   UNL     1      48.476  10.156  12.701  0.00  0.00    +0.000 A 
ATOM     23  S   UNL     1      50.015  10.866  12.878  0.00  0.00    +0.000 S 
ATOM     24  C   UNL     1      50.587   9.532  13.766  0.00  0.00    +0.000 A 
ATOM     25  N   UNL     1      51.872   9.489  14.211  0.00  0.00    +0.000 NA
ATOM     26  C   UNL     1      52.182   8.409  14.845  0.00  0.00    +0.000 A 
ATOM     27  N   UNL     1      51.321   7.370  15.080  0.00  0.00    +0.000 N 
ATOM     28  C   UNL     1      50.007   7.376  14.674  0.00  0.00    +0.000 A 
ATOM     29  O   UNL     1      49.257   6.441  14.931  0.00  0.00    +0.000 OA
ATOM     30  C   UNL     1      49.610   8.567  13.944  0.00  0.00    +0.000 A 
ATOM     31  H   UNL     1      51.623   6.553  15.591  0.00  0.00    +0.000 HD
ENDBRANCH  18  21
ENDBRANCH   1  17
TORSDOF 6
ENDMDL
MODEL 5
REMARK VINA RESULT:    -7.669      2.287      3.848
REMARK INTER + INTRA:         -10.224
REMARK INTER:                  -9.188
REMARK INTRA:                  -1.036
REMARK UNBOUND:                -0.089
REMARK  Name = 
REMARK  7 active torsions:
REMARK  status: ('A' for Active; 'I' for Inactive)
REMARK    1  A    between atoms: C_1  and  C_2
REMARK    2  A    between atoms: C_4  and  C_5
REMARK    3  A    between atoms: C_5  and  N_6
REMARK    4  A    between atoms: C_7  and  C_9
REMARK    5  A    between atoms: C_21  and  C_22
REMARK    6  A    between atoms: C_22  and  N_23
REMARK    7  A    between atoms: C_26  and  O_27
REMARK                            x       y       z     vdW  Elec       q    Type
REMARK                         _______ _______ _______ _____ _____    ______ ____
ROOT
ATOM      1  C   UNL     1      47.096   4.472  14.909  0.00  0.00    +0.000 C 
ENDROOT
BRANCH   1   5
ATOM      2  C   UNL     1      44.756   7.156  11.439  0.00  0.00    +0.000 C 
ATOM      3  C   UNL     1      45.051   5.771  11.953  0.00  0.00    +0.000 A 
ATOM      4  C   UNL     1      45.821   5.693  13.130  0.00  0.00    +0.000 A 
ATOM      5  C   UNL     1      46.226   4.473  13.679  0.00  0.00    +0.000 A 
ATOM      6  C   UNL     1      45.855   3.299  13.025  0.00  0.00    +0.000 A 
ATOM      7  C   UNL     1      45.080   3.356  11.856  0.00  0.00    +0.000 A 
ATOM      8  C   UNL     1      44.654   4.583  11.299  0.00  0.00    +0.000 A 
BRANCH   8   9
ATOM      9  C   UNL     1      43.900   4.558   9.969  0.00  0.00    +0.000 C 
BRANCH   9  10
ATOM     10  N   UNL     1      44.607   4.114   8.765  0.00  0.00    +0.000 NA
ATOM     11  C   UNL     1      44.710   2.686   8.542  0.00  0.00    +0.000 C 
ATOM     12  C   UNL     1      46.060   2.412   7.898  0.00  0.00    +0.000 C 
ATOM     13  C   UNL     1      46.693   3.766   7.644  0.00  0.00    +0.000 C 
ATOM     14  C   UNL     1      45.854   4.784   8.421  0.00  0.00    +0.000 C 
BRANCH  13  15
ATOM     15  O   UNL     1      46.705   4.041   6.245  0.00  0.00    +0.000 OA
ATOM     16  H   UNL     1      47.314   4.787   6.103  0.00  0.00    +0.000 HD
ENDBRANCH  13  15
ENDBRANCH   9  10
ENDBRANCH   8   9
ENDBRANCH   1   5
BRANCH   1  17
ATOM     17  N   UNL     1      47.633   5.786  15.176  0.00  0.00    +0.000 N 
ATOM     18  C   UNL     1      48.704   5.950  16.018  0.00  0.00    +0.000 C 
ATOM     19  O   UNL     1      49.259   4.994  16.550  0.00  0.00    +0.000 OA
ATOM     20  H   UNL     1      47.050   6.592  14.940  0.00  0.00    +0.000 HD
BRANCH  18  21
ATOM     21  C   UNL     1      49.200   7.319  16.208  0.00  0.00    +0.000 A 
ATOM     22  C   UNL     1      49.207   7.872  17.484  0.00  0.00    +0.000 A 
ATOM     23  S   UNL     1      49.855   9.447  17.548  0.00  0.00    +0.000 S 
ATOM     24  C   UNL     1      50.099   9.473  15.864  0.00  0.00    +0.000 A 
ATOM     25  N   UNL     1      50.615  10.572  15.250  0.00  0.00    +0.000 NA
ATOM     26  C   UNL     1      50.721  10.467  13.969  0.00  0.00    +0.000 A 
ATOM     27  N   UNL     1      50.362   9.362  13.245  0.00  0.00    +0.000 N 
ATOM     28  C   UNL     1      49.861   8.217  13.821  0.00  0.00    +0.000 A 
ATOM     29  O   UNL     1      49.582   7.233  13.144  0.00  0.00    +0.000 OA
ATOM     30  C   UNL     1      49.711   8.287  15.263  0.00  0.00    +0.000 A 
ATOM     31  H   UNL     1      50.478   9.339  12.242  0.00  0.00    +0.000 HD
ENDBRANCH  18  21
ENDBRANCH   1  17
TORSDOF 6
ENDMDL
MODEL 6
REMARK VINA RESULT:    -7.613      3.844      5.841
REMARK INTER + INTRA:         -10.149
REMARK INTER:                  -9.037
REMARK INTRA:                  -1.112
REMARK UNBOUND:                -0.089
REMARK  Name = 
REMARK  7 active torsions:
REMARK  status: ('A' for Active; 'I' for Inactive)
REMARK    1  A    between atoms: C_1  and  C_2
REMARK    2  A    between atoms: C_4  and  C_5
REMARK    3  A    between atoms: C_5  and  N_6
REMARK    4  A    between atoms: C_7  and  C_9
REMARK    5  A    between atoms: C_21  and  C_22
REMARK    6  A    between atoms: C_22  and  N_23
REMARK    7  A    between atoms: C_26  and  O_27
REMARK                            x       y       z     vdW  Elec       q    Type
REMARK                         _______ _______ _______ _____ _____    ______ ____
ROOT
ATOM      1  C   UNL     1      49.318   6.368  17.554  0.00  0.00    +0.000 C 
ENDROOT
BRANCH   1   5
ATOM      2  C   UNL     1      48.089   7.102  12.793  0.00  0.00    +0.000 C 
ATOM      3  C   UNL     1      47.870   6.255  14.019  0.00  0.00    +0.000 A 
ATOM      4  C   UNL     1      48.562   6.647  15.181  0.00  0.00    +0.000 A 
ATOM      5  C   UNL     1      48.504   5.914  16.370  0.00  0.00    +0.000 A 
ATOM      6  C   UNL     1      47.737   4.751  16.390  0.00  0.00    +0.000 A 
ATOM      7  C   UNL     1      47.033   4.347  15.246  0.00  0.00    +0.000 A 
ATOM      8  C   UNL     1      47.074   5.088  14.042  0.00  0.00    +0.000 A 
BRANCH   8   9
ATOM      9  C   UNL     1      46.359   4.524  12.814  0.00  0.00    +0.000 C 
BRANCH   9  10
ATOM     10  N   UNL     1      44.937   4.819  12.627  0.00  0.00    +0.000 NA
ATOM     11  C   UNL     1      44.037   3.693  12.477  0.00  0.00    +0.000 C 
ATOM     12  C   UNL     1      42.948   4.096  11.496  0.00  0.00    +0.000 C 
ATOM     13  C   UNL     1      43.186   5.557  11.172  0.00  0.00    +0.000 C 
ATOM     14  C   UNL     1      44.578   5.895  11.714  0.00  0.00    +0.000 C 
BRANCH  13  15
ATOM     15  O   UNL     1      42.171   6.359  11.770  0.00  0.00    +0.000 OA
ATOM     16  H   UNL     1      41.318   5.924  11.596  0.00  0.00    +0.000 HD
ENDBRANCH  13  15
ENDBRANCH   9  10
ENDBRANCH   8   9
ENDBRANCH   1   5
BRANCH   1  17
ATOM     17  N   UNL     1      50.290   5.372  17.939  0.00  0.00    +0.000 N 
ATOM     18  C   UNL     1      51.545   5.363  17.385  0.00  0.00    +0.000 C 
ATOM     19  O   UNL     1      51.896   6.209  16.568  0.00  0.00    +0.000 OA
ATOM     20  H   UNL     1      49.947   4.539  18.423  0.00  0.00    +0.000 HD
BRANCH  18  21
ATOM     21  C   UNL     1      52.476   4.331  17.856  0.00  0.00    +0.000 A 
ATOM     22  C   UNL     1      53.690   4.709  18.418  0.00  0.00    +0.000 A 
ATOM     23  S   UNL     1      54.636   3.399  18.959  0.00  0.00    +0.000 S 
ATOM     24  C   UNL     1      53.485   2.272  18.414  0.00  0.00    +0.000 A 
ATOM     25  N   UNL     1      53.698   0.935  18.551  0.00  0.00    +0.000 NA
ATOM     26  C   UNL     1      52.758   0.193  18.069  0.00  0.00    +0.000 A 
ATOM     27  N   UNL     1      51.623   0.666  17.468  0.00  0.00    +0.000 N 
ATOM     28  C   UNL     1      51.349   2.007  17.329  0.00  0.00    +0.000 A 
ATOM     29  O   UNL     1      50.306   2.394  16.814  0.00  0.00    +0.000 OA
ATOM     30  C   UNL     1      52.382   2.888  17.845  0.00  0.00    +0.000 A 
ATOM     31  H   UNL     1      50.919   0.032  17.117  0.00  0.00    +0.000 HD
ENDBRANCH  18  21
ENDBRANCH   1  17
TORSDOF 6
ENDMDL
MODEL 7
REMARK VINA RESULT:    -7.510      1.606      2.487
REMARK INTER + INTRA:         -10.014
REMARK INTER:                  -9.293
REMARK INTRA:                  -0.721
REMARK UNBOUND:                -0.089
REMARK  Name = 
REMARK  7 active torsions:
REMARK  status: ('A' for Active; 'I' for Inactive)
REMARK    1  A    between atoms: C_1  and  C_2
REMARK    2  A    between atoms: C_4  and  C_5
REMARK    3  A    between atoms: C_5  and  N_6
REMARK    4  A    between atoms: C_7  and  C_9
REMARK    5  A    between atoms: C_21  and  C_22
REMARK    6  A    between atoms: C_22  and  N_23
REMARK    7  A    between atoms: C_26  and  O_27
REMARK                            x       y       z     vdW  Elec       q    Type
REMARK                         _______ _______ _______ _____ _____    ______ ____
ROOT
ATOM      1  C   UNL     1      44.674   4.015  13.530  0.00  0.00    +0.000 C 
ENDROOT
BRANCH   1   5
ATOM      2  C   UNL     1      46.240   5.888   9.199  0.00  0.00    +0.000 C 
ATOM      3  C   UNL     1      45.372   4.853   9.867  0.00  0.00    +0.000 A 
ATOM      4  C   UNL     1      45.332   4.887  11.275  0.00  0.00    +0.000 A 
ATOM      5  C   UNL     1      44.623   3.945  12.026  0.00  0.00    +0.000 A 
ATOM      6  C   UNL     1      43.942   2.937  11.346  0.00  0.00    +0.000 A 
ATOM      7  C   UNL     1      43.962   2.891   9.944  0.00  0.00    +0.000 A 
ATOM      8  C   UNL     1      44.665   3.845   9.173  0.00  0.00    +0.000 A 
BRANCH   8   9
ATOM      9  C   UNL     1      44.719   3.663   7.657  0.00  0.00    +0.000 C 
BRANCH   9  10
ATOM     10  N   UNL     1      45.755   2.798   7.087  0.00  0.00    +0.000 NA
ATOM     11  C   UNL     1      46.110   1.606   7.830  0.00  0.00    +0.000 C 
ATOM     12  C   UNL     1      47.601   1.371   7.648  0.00  0.00    +0.000 C 
ATOM     13  C   UNL     1      48.079   2.418   6.661  0.00  0.00    +0.000 C 
ATOM     14  C   UNL     1      46.940   3.433   6.527  0.00  0.00    +0.000 C 
BRANCH  13  15
ATOM     15  O   UNL     1      48.395   1.802   5.415  0.00  0.00    +0.000 OA
ATOM     16  H   UNL     1      48.890   0.988   5.613  0.00  0.00    +0.000 HD
ENDBRANCH  13  15
ENDBRANCH   9  10
ENDBRANCH   8   9
ENDBRANCH   1   5
BRANCH   1  17
ATOM     17  N   UNL     1      45.677   4.950  13.982  0.00  0.00    +0.000 N 
ATOM     18  C   UNL     1      46.931   4.520  14.338  0.00  0.00    +0.000 C 
ATOM     19  O   UNL     1      47.253   3.338  14.262  0.00  0.00    +0.000 OA
ATOM     20  H   UNL     1      45.362   5.877  14.274  0.00  0.00    +0.000 HD
BRANCH  18  21
ATOM     21  C   UNL     1      47.894   5.544  14.759  0.00  0.00    +0.000 A 
ATOM     22  C   UNL     1      48.439   6.401  13.810  0.00  0.00    +0.000 A 
ATOM     23  S   UNL     1      49.502   7.564  14.461  0.00  0.00    +0.000 S 
ATOM     24  C   UNL     1      49.318   6.931  16.030  0.00  0.00    +0.000 A 
ATOM     25  N   UNL     1      49.994   7.467  17.082  0.00  0.00    +0.000 NA
ATOM     26  C   UNL     1      49.784   6.874  18.209  0.00  0.00    +0.000 A 
ATOM     27  N   UNL     1      48.956   5.797  18.380  0.00  0.00    +0.000 N 
ATOM     28  C   UNL     1      48.231   5.236  17.354  0.00  0.00    +0.000 A 
ATOM     29  O   UNL     1      47.473   4.293  17.552  0.00  0.00    +0.000 OA
ATOM     30  C   UNL     1      48.440   5.860  16.060  0.00  0.00    +0.000 A 
ATOM     31  H   UNL     1      48.828   5.382  19.292  0.00  0.00    +0.000 HD
ENDBRANCH  18  21
ENDBRANCH   1  17
TORSDOF 6
ENDMDL
MODEL 8
REMARK VINA RESULT:    -7.476      2.238      3.263
REMARK INTER + INTRA:          -9.969
REMARK INTER:                  -9.148
REMARK INTRA:                  -0.821
REMARK UNBOUND:                -0.089
REMARK  Name = 
REMARK  7 active torsions:
REMARK  status: ('A' for Active; 'I' for Inactive)
REMARK    1  A    between atoms: C_1  and  C_2
REMARK    2  A    between atoms: C_4  and  C_5
REMARK    3  A    between atoms: C_5  and  N_6
REMARK    4  A    between atoms: C_7  and  C_9
REMARK    5  A    between atoms: C_21  and  C_22
REMARK    6  A    between atoms: C_22  and  N_23
REMARK    7  A    between atoms: C_26  and  O_27
REMARK                            x       y       z     vdW  Elec       q    Type
REMARK                         _______ _______ _______ _____ _____    ______ ____
ROOT
ATOM      1  C   UNL     1      48.464   7.095  14.016  0.00  0.00    +0.000 C 
ENDROOT
BRANCH   1   5
ATOM      2  C   UNL     1      44.410   7.896  11.252  0.00  0.00    +0.000 C 
ATOM      3  C   UNL     1      45.222   6.874  12.005  0.00  0.00    +0.000 A 
ATOM      4  C   UNL     1      46.359   7.356  12.682  0.00  0.00    +0.000 A 
ATOM      5  C   UNL     1      47.239   6.510  13.363  0.00  0.00    +0.000 A 
ATOM      6  C   UNL     1      46.975   5.141  13.357  0.00  0.00    +0.000 A 
ATOM      7  C   UNL     1      45.842   4.642  12.696  0.00  0.00    +0.000 A 
ATOM      8  C   UNL     1      44.939   5.490  12.015  0.00  0.00    +0.000 A 
BRANCH   8   9
ATOM      9  C   UNL     1      43.787   4.854  11.236  0.00  0.00    +0.000 C 
BRANCH   9  10
ATOM     10  N   UNL     1      44.091   4.112  10.009  0.00  0.00    +0.000 NA
ATOM     11  C   UNL     1      44.117   2.666  10.095  0.00  0.00    +0.000 C 
ATOM     12  C   UNL     1      45.204   2.163   9.158  0.00  0.00    +0.000 C 
ATOM     13  C   UNL     1      45.731   3.382   8.427  0.00  0.00    +0.000 C 
ATOM     14  C   UNL     1      45.173   4.601   9.167  0.00  0.00    +0.000 C 
BRANCH  13  15
ATOM     15  O   UNL     1      45.314   3.348   7.064  0.00  0.00    +0.000 OA
ATOM     16  H   UNL     1      44.630   2.660   6.988  0.00  0.00    +0.000 HD
ENDBRANCH  13  15
ENDBRANCH   9  10
ENDBRANCH   8   9
ENDBRANCH   1   5
BRANCH   1  17
ATOM     17  N   UNL     1      48.329   7.131  15.453  0.00  0.00    +0.000 N 
ATOM     18  C   UNL     1      49.381   6.794  16.267  0.00  0.00    +0.000 C 
ATOM     19  O   UNL     1      50.475   6.477  15.811  0.00  0.00    +0.000 OA
ATOM     20  H   UNL     1      47.383   7.157  15.838  0.00  0.00    +0.000 HD
BRANCH  18  21
ATOM     21  C   UNL     1      49.160   6.887  17.716  0.00  0.00    +0.000 A 
ATOM     22  C   UNL     1      49.164   8.134  18.329  0.00  0.00    +0.000 A 
ATOM     23  S   UNL     1      48.846   8.079  20.003  0.00  0.00    +0.000 S 
ATOM     24  C   UNL     1      48.747   6.380  19.983  0.00  0.00    +0.000 A 
ATOM     25  N   UNL     1      48.516   5.681  21.127  0.00  0.00    +0.000 NA
ATOM     26  C   UNL     1      48.493   4.400  20.974  0.00  0.00    +0.000 A 
ATOM     27  N   UNL     1      48.676   3.755  19.780  0.00  0.00    +0.000 N 
ATOM     28  C   UNL     1      48.887   4.417  18.592  0.00  0.00    +0.000 A 
ATOM     29  O   UNL     1      49.013   3.806  17.537  0.00  0.00    +0.000 OA
ATOM     30  C   UNL     1      48.933   5.863  18.711  0.00  0.00    +0.000 A 
ATOM     31  H   UNL     1      48.639   2.747  19.725  0.00  0.00    +0.000 HD
ENDBRANCH  18  21
ENDBRANCH   1  17
TORSDOF 6
ENDMDL
MODEL 9
REMARK VINA RESULT:    -7.426      3.982      8.770
REMARK INTER + INTRA:          -9.902
REMARK INTER:                  -9.293
REMARK INTRA:                  -0.609
REMARK UNBOUND:                -0.089
REMARK  Name = 
REMARK  7 active torsions:
REMARK  status: ('A' for Active; 'I' for Inactive)
REMARK    1  A    between atoms: C_1  and  C_2
REMARK    2  A    between atoms: C_4  and  C_5
REMARK    3  A    between atoms: C_5  and  N_6
REMARK    4  A    between atoms: C_7  and  C_9
REMARK    5  A    between atoms: C_21  and  C_22
REMARK    6  A    between atoms: C_22  and  N_23
REMARK    7  A    between atoms: C_26  and  O_27
REMARK                            x       y       z     vdW  Elec       q    Type
REMARK                         _______ _______ _______ _____ _____    ______ ____
ROOT
ATOM      1  C   UNL     1      47.208   3.437  16.789  0.00  0.00    +0.000 C 
ENDROOT
BRANCH   1   5
ATOM      2  C   UNL     1      51.692   1.384  17.429  0.00  0.00    +0.000 C 
ATOM      3  C   UNL     1      50.880   2.652  17.503  0.00  0.00    +0.000 A 
ATOM      4  C   UNL     1      49.508   2.533  17.206  0.00  0.00    +0.000 A 
ATOM      5  C   UNL     1      48.652   3.637  17.170  0.00  0.00    +0.000 A 
ATOM      6  C   UNL     1      49.189   4.896  17.433  0.00  0.00    +0.000 A 
ATOM      7  C   UNL     1      50.551   5.035  17.740  0.00  0.00    +0.000 A 
ATOM      8  C   UNL     1      51.424   3.924  17.791  0.00  0.00    +0.000 A 
BRANCH   8   9
ATOM      9  C   UNL     1      52.912   4.175  18.034  0.00  0.00    +0.000 C 
BRANCH   9  10
ATOM     10  N   UNL     1      53.618   5.121  17.165  0.00  0.00    +0.000 NA
ATOM     11  C   UNL     1      54.962   4.771  16.753  0.00  0.00    +0.000 C 
ATOM     12  C   UNL     1      55.775   6.053  16.678  0.00  0.00    +0.000 C 
ATOM     13  C   UNL     1      54.807   7.187  16.951  0.00  0.00    +0.000 C 
ATOM     14  C   UNL     1      53.527   6.539  17.486  0.00  0.00    +0.000 C 
BRANCH  13  15
ATOM     15  O   UNL     1      54.572   7.923  15.753  0.00  0.00    +0.000 OA
ATOM     16  H   UNL     1      55.440   8.118  15.359  0.00  0.00    +0.000 HD
ENDBRANCH  13  15
ENDBRANCH   9  10
ENDBRANCH   8   9
ENDBRANCH   1   5
BRANCH   1  17
ATOM     17  N   UNL     1      46.774   4.424  15.829  0.00  0.00    +0.000 N 
ATOM     18  C   UNL     1      46.852   4.177  14.482  0.00  0.00    +0.000 C 
ATOM     19  O   UNL     1      47.264   3.108  14.044  0.00  0.00    +0.000 OA
ATOM     20  H   UNL     1      46.658   5.385  16.159  0.00  0.00    +0.000 HD
BRANCH  18  21
ATOM     21  C   UNL     1      46.362   5.228  13.581  0.00  0.00    +0.000 A 
ATOM     22  C   UNL     1      47.181   6.312  13.286  0.00  0.00    +0.000 A 
ATOM     23  S   UNL     1      46.489   7.419  12.190  0.00  0.00    +0.000 S 
ATOM     24  C   UNL     1      45.046   6.522  12.111  0.00  0.00    +0.000 A 
ATOM     25  N   UNL     1      44.002   6.945  11.349  0.00  0.00    +0.000 NA
ATOM     26  C   UNL     1      42.960   6.186  11.402  0.00  0.00    +0.000 A 
ATOM     27  N   UNL     1      42.869   5.039  12.144  0.00  0.00    +0.000 N 
ATOM     28  C   UNL     1      43.904   4.555  12.910  0.00  0.00    +0.000 A 
ATOM     29  O   UNL     1      43.797   3.506  13.535  0.00  0.00    +0.000 OA
ATOM     30  C   UNL     1      45.099   5.380  12.894  0.00  0.00    +0.000 A 
ATOM     31  H   UNL     1      42.025   4.483  12.137  0.00  0.00    +0.000 HD
ENDBRANCH  18  21
ENDBRANCH   1  17
TORSDOF 6
ENDMDL
