MODEL 1
REMARK VINA RESULT:    -8.008      0.000      0.000
REMARK INTER + INTRA:         -10.364
REMARK INTER:                  -9.880
REMARK INTRA:                  -0.484
REMARK UNBOUND:                -0.484
REMARK  Name = 
REMARK  4 active torsions:
REMARK  status: ('A' for Active; 'I' for Inactive)
REMARK    1  A    between atoms: C_2  and  C_4
REMARK    2  A    between atoms: N_8  and  C_9
REMARK    3  A    between atoms: C_9  and  C_10
REMARK    4  A    between atoms: C_10  and  C_11
REMARK                            x       y       z     vdW  Elec       q    Type
REMARK                         _______ _______ _______ _____ _____    ______ ____
ROOT
ATOM      1  C   UNL     1      46.213   2.115   7.966  0.00  0.00    +0.000 A 
ATOM      2  C   UNL     1      46.305   3.465   7.640  0.00  0.00    +0.000 A 
ATOM      3  C   UNL     1      45.454   4.372   8.270  0.00  0.00    +0.000 A 
ATOM      4  C   UNL     1      44.551   3.922   9.234  0.00  0.00    +0.000 A 
ATOM      5  N   UNL     1      43.815   4.886   9.935  0.00  0.00    +0.000 N 
ATOM      6  N   UNL     1      44.429   2.611   9.524  0.00  0.00    +0.000 NA
ATOM      7  C   UNL     1      45.238   1.735   8.874  0.00  0.00    +0.000 A 
ATOM      8  H   UNL     1      43.257   5.434   9.289  0.00  0.00    +0.000 HD
ENDROOT
BRANCH   1  10
ATOM      9  N   UNL     1      46.807  -0.216   7.666  0.00  0.00    +0.000 N 
ATOM     10  C   UNL     1      47.115   1.090   7.406  0.00  0.00    +0.000 C 
ATOM     11  O   UNL     1      48.066   1.393   6.692  0.00  0.00    +0.000 OA
ATOM     12  H   UNL     1      47.348  -0.911   7.165  0.00  0.00    +0.000 HD
ATOM     13  H   UNL     1      45.899  -0.497   8.007  0.00  0.00    +0.000 HD
ENDBRANCH   1  10
BRANCH   5  14
ATOM     14  C   UNL     1      43.074   4.392  11.097  0.00  0.00    +0.000 C 
BRANCH  14  15
ATOM     15  C   UNL     1      43.230   5.375  12.264  0.00  0.00    +0.000 C 
BRANCH  15  16
ATOM     16  C   UNL     1      44.670   5.568  12.671  0.00  0.00    +0.000 A 
ATOM     17  C   UNL     1      45.386   4.505  13.239  0.00  0.00    +0.000 A 
ATOM     18  C   UNL     1      46.716   4.673  13.627  0.00  0.00    +0.000 A 
ATOM     19  C   UNL     1      47.340   5.907  13.455  0.00  0.00    +0.000 A 
ATOM     20  C   UNL     1      46.634   6.972  12.899  0.00  0.00    +0.000 A 
ATOM     21  C   UNL     1      45.304   6.807  12.510  0.00  0.00    +0.000 A 
ENDBRANCH  15  16
ENDBRANCH  14  15
ENDBRANCH   5  14
TORSDOF 4
ENDMDL
MODEL 2
REMARK VINA RESULT:    -7.988      0.790      1.381
REMARK INTER + INTRA:         -10.339
REMARK INTER:                  -9.864
REMARK INTRA:                  -0.476
REMARK UNBOUND:                -0.484
REMARK  Name = 
REMARK  4 active torsions:
REMARK  status: ('A' for Active; 'I' for Inactive)
REMARK    1  A    between atoms: C_2  and  C_4
REMARK    2  A    between atoms: N_8  and  C_9
REMARK    3  A    between atoms: C_9  and  C_10
REMARK    4  A    between atoms: C_10  and  C_11
REMARK                            x       y       z     vdW  Elec       q    Type
REMARK                         _______ _______ _______ _____ _____    ______ ____
ROOT
ATOM      1  C   UNL     1      46.214   2.271   7.966  0.00  0.00    +0.000 A 
ATOM      2  C   UNL     1      46.231   3.638   7.705  0.00  0.00    +0.000 A 
ATOM      3  C   UNL     1      45.356   4.470   8.403  0.00  0.00    +0.000 A 
ATOM      4  C   UNL     1      44.506   3.930   9.369  0.00  0.00    +0.000 A 
ATOM      5  N   UNL     1      43.747   4.822  10.138  0.00  0.00    +0.000 N 
ATOM      6  N   UNL     1      44.456   2.602   9.596  0.00  0.00    +0.000 NA
ATOM      7  C   UNL     1      45.286   1.799   8.881  0.00  0.00    +0.000 A 
ATOM      8  H   UNL     1      43.144   5.373   9.535  0.00  0.00    +0.000 HD
ENDROOT
BRANCH   1  10
ATOM      9  N   UNL     1      48.236   1.849   6.696  0.00  0.00    +0.000 N 
ATOM     10  C   UNL     1      47.146   1.320   7.330  0.00  0.00    +0.000 C 
ATOM     11  O   UNL     1      46.980   0.107   7.412  0.00  0.00    +0.000 OA
ATOM     12  H   UNL     1      48.937   1.187   6.385  0.00  0.00    +0.000 HD
ATOM     13  H   UNL     1      48.536   2.801   6.847  0.00  0.00    +0.000 HD
ENDBRANCH   1  10
BRANCH   5  14
ATOM     14  C   UNL     1      43.067   4.236  11.294  0.00  0.00    +0.000 C 
BRANCH  14  15
ATOM     15  C   UNL     1      43.214   5.167  12.505  0.00  0.00    +0.000 C 
BRANCH  15  16
ATOM     16  C   UNL     1      44.655   5.484  12.820  0.00  0.00    +0.000 A 
ATOM     17  C   UNL     1      45.134   6.792  12.663  0.00  0.00    +0.000 A 
ATOM     18  C   UNL     1      46.467   7.098  12.943  0.00  0.00    +0.000 A 
ATOM     19  C   UNL     1      47.333   6.096  13.378  0.00  0.00    +0.000 A 
ATOM     20  C   UNL     1      46.868   4.791  13.529  0.00  0.00    +0.000 A 
ATOM     21  C   UNL     1      45.536   4.483  13.250  0.00  0.00    +0.000 A 
ENDBRANCH  15  16
ENDBRANCH  14  15
ENDBRANCH   5  14
TORSDOF 4
ENDMDL
MODEL 3
REMARK VINA RESULT:    -7.443      3.045      6.586
REMARK INTER + INTRA:          -9.666
REMARK INTER:                  -9.301
REMARK INTRA:                  -0.366
REMARK UNBOUND:                -0.484
REMARK  Name = 
REMARK  4 active torsions:
REMARK  status: ('A' for Active; 'I' for Inactive)
REMARK    1  A    between atoms: C_2  and  C_4
REMARK    2  A    between atoms: N_8  and  C_9
REMARK    3  A    between atoms: C_9  and  C_10
REMARK    4  A    between atoms: C_10  and  C_11
REMARK                            x       y       z     vdW  Elec       q    Type
REMARK                         _______ _______ _______ _____ _____    ______ ____
ROOT
ATOM      1  C   UNL     1      45.750   7.246  12.620  0.00  0.00    +0.000 A 
ATOM      2  C   UNL     1      46.354   6.160  13.247  0.00  0.00    +0.000 A 
ATOM      3  C   UNL     1      46.020   4.870  12.833  0.00  0.00    +0.000 A 
ATOM      4  C   UNL     1      45.119   4.689  11.784  0.00  0.00    +0.000 A 
ATOM      5  N   UNL     1      44.922   3.384  11.315  0.00  0.00    +0.000 N 
ATOM      6  N   UNL     1      44.501   5.735  11.201  0.00  0.00    +0.000 NA
ATOM      7  C   UNL     1      44.805   6.984  11.640  0.00  0.00    +0.000 A 
ATOM      8  H   UNL     1      44.574   2.795  12.065  0.00  0.00    +0.000 HD
ENDROOT
BRANCH   1  10
ATOM      9  N   UNL     1      46.765   8.872  14.105  0.00  0.00    +0.000 N 
ATOM     10  C   UNL     1      46.087   8.647  12.939  0.00  0.00    +0.000 C 
ATOM     11  O   UNL     1      45.819   9.562  12.168  0.00  0.00    +0.000 OA
ATOM     12  H   UNL     1      47.111   9.814  14.246  0.00  0.00    +0.000 HD
ATOM     13  H   UNL     1      47.229   8.130  14.609  0.00  0.00    +0.000 HD
ENDBRANCH   1  10
BRANCH   5  14
ATOM     14  C   UNL     1      44.169   3.269  10.065  0.00  0.00    +0.000 C 
BRANCH  14  15
ATOM     15  C   UNL     1      44.568   1.977   9.340  0.00  0.00    +0.000 C 
BRANCH  15  16
ATOM     16  C   UNL     1      45.643   2.201   8.306  0.00  0.00    +0.000 A 
ATOM     17  C   UNL     1      46.510   1.154   7.959  0.00  0.00    +0.000 A 
ATOM     18  C   UNL     1      47.514   1.350   7.009  0.00  0.00    +0.000 A 
ATOM     19  C   UNL     1      47.663   2.596   6.402  0.00  0.00    +0.000 A 
ATOM     20  C   UNL     1      46.811   3.644   6.746  0.00  0.00    +0.000 A 
ATOM     21  C   UNL     1      45.806   3.450   7.695  0.00  0.00    +0.000 A 
ENDBRANCH  15  16
ENDBRANCH  14  15
ENDBRANCH   5  14
TORSDOF 4
ENDMDL
MODEL 4
REMARK VINA RESULT:    -7.354      3.120      6.374
REMARK INTER + INTRA:          -9.557
REMARK INTER:                  -9.166
REMARK INTRA:                  -0.391
REMARK UNBOUND:                -0.484
REMARK  Name = 
REMARK  4 active torsions:
REMARK  status: ('A' for Active; 'I' for Inactive)
REMARK    1  A    between atoms: C_2  and  C_4
REMARK    2  A    between atoms: N_8  and  C_9
REMARK    3  A    between atoms: C_9  and  C_10
REMARK    4  A    between atoms: C_10  and  C_11
REMARK                            x       y       z     vdW  Elec       q    Type
REMARK                         _______ _______ _______ _____ _____    ______ ____
ROOT
ATOM      1  C   UNL     1      46.717   4.809  14.041  0.00  0.00    +0.000 A 
ATOM      2  C   UNL     1      46.831   6.031  13.384  0.00  0.00    +0.000 A 
ATOM      3  C   UNL     1      46.320   6.154  12.092  0.00  0.00    +0.000 A 
ATOM      4  C   UNL     1      45.679   5.069  11.493  0.00  0.00    +0.000 A 
ATOM      5  N   UNL     1      45.064   5.283  10.253  0.00  0.00    +0.000 N 
ATOM      6  N   UNL     1      45.602   3.872  12.108  0.00  0.00    +0.000 NA
ATOM      7  C   UNL     1      46.138   3.756  13.350  0.00  0.00    +0.000 A 
ATOM      8  H   UNL     1      45.752   5.589   9.572  0.00  0.00    +0.000 HD
ENDROOT
BRANCH   1  10
ATOM      9  N   UNL     1      47.885   5.607  16.010  0.00  0.00    +0.000 N 
ATOM     10  C   UNL     1      47.163   4.600  15.432  0.00  0.00    +0.000 C 
ATOM     11  O   UNL     1      46.854   3.592  16.060  0.00  0.00    +0.000 OA
ATOM     12  H   UNL     1      48.066   5.514  17.002  0.00  0.00    +0.000 HD
ATOM     13  H   UNL     1      47.916   6.538  15.621  0.00  0.00    +0.000 HD
ENDBRANCH   1  10
BRANCH   5  14
ATOM     14  C   UNL     1      44.199   4.200   9.783  0.00  0.00    +0.000 C 
BRANCH  14  15
ATOM     15  C   UNL     1      44.342   4.047   8.263  0.00  0.00    +0.000 C 
BRANCH  15  16
ATOM     16  C   UNL     1      45.468   3.120   7.877  0.00  0.00    +0.000 A 
ATOM     17  C   UNL     1      46.458   3.554   6.984  0.00  0.00    +0.000 A 
ATOM     18  C   UNL     1      47.501   2.704   6.612  0.00  0.00    +0.000 A 
ATOM     19  C   UNL     1      47.559   1.410   7.127  0.00  0.00    +0.000 A 
ATOM     20  C   UNL     1      46.575   0.966   8.009  0.00  0.00    +0.000 A 
ATOM     21  C   UNL     1      45.532   1.815   8.382  0.00  0.00    +0.000 A 
ENDBRANCH  15  16
ENDBRANCH  14  15
ENDBRANCH   5  14
TORSDOF 4
ENDMDL
MODEL 5
REMARK VINA RESULT:    -7.166      3.050      6.689
REMARK INTER + INTRA:          -9.325
REMARK INTER:                  -9.027
REMARK INTRA:                  -0.298
REMARK UNBOUND:                -0.484
REMARK  Name = 
REMARK  4 active torsions:
REMARK  status: ('A' for Active; 'I' for Inactive)
REMARK    1  A    between atoms: C_2  and  C_4
REMARK    2  A    between atoms: N_8  and  C_9
REMARK    3  A    between atoms: C_9  and  C_10
REMARK    4  A    between atoms: C_10  and  C_11
REMARK                            x       y       z     vdW  Elec       q    Type
REMARK                         _______ _______ _______ _____ _____    ______ ____
ROOT
ATOM      1  C   UNL     1      47.381   6.167  13.623  0.00  0.00    +0.000 A 
ATOM      2  C   UNL     1      47.002   4.985  14.253  0.00  0.00    +0.000 A 
ATOM      3  C   UNL     1      46.100   4.137  13.612  0.00  0.00    +0.000 A 
ATOM      4  C   UNL     1      45.619   4.466  12.345  0.00  0.00    +0.000 A 
ATOM      5  N   UNL     1      44.824   3.518  11.686  0.00  0.00    +0.000 N 
ATOM      6  N   UNL     1      45.949   5.628  11.748  0.00  0.00    +0.000 NA
ATOM      7  C   UNL     1      46.798   6.463  12.400  0.00  0.00    +0.000 A 
ATOM      8  H   UNL     1      43.996   3.316  12.237  0.00  0.00    +0.000 HD
ENDROOT
BRANCH   1  10
ATOM      9  N   UNL     1      47.902   8.191  14.852  0.00  0.00    +0.000 N 
ATOM     10  C   UNL     1      48.379   7.095  14.188  0.00  0.00    +0.000 C 
ATOM     11  O   UNL     1      49.582   6.865  14.114  0.00  0.00    +0.000 OA
ATOM     12  H   UNL     1      48.588   8.744  15.352  0.00  0.00    +0.000 HD
ATOM     13  H   UNL     1      46.943   8.258  15.159  0.00  0.00    +0.000 HD
ENDBRANCH   1  10
BRANCH   5  14
ATOM     14  C   UNL     1      44.551   3.795  10.275  0.00  0.00    +0.000 C 
BRANCH  14  15
ATOM     15  C   UNL     1      44.504   2.478   9.490  0.00  0.00    +0.000 C 
BRANCH  15  16
ATOM     16  C   UNL     1      45.546   2.414   8.401  0.00  0.00    +0.000 A 
ATOM     17  C   UNL     1      45.800   3.541   7.607  0.00  0.00    +0.000 A 
ATOM     18  C   UNL     1      46.755   3.494   6.591  0.00  0.00    +0.000 A 
ATOM     19  C   UNL     1      47.463   2.316   6.357  0.00  0.00    +0.000 A 
ATOM     20  C   UNL     1      47.212   1.187   7.136  0.00  0.00    +0.000 A 
ATOM     21  C   UNL     1      46.257   1.233   8.153  0.00  0.00    +0.000 A 
ENDBRANCH  15  16
ENDBRANCH  14  15
ENDBRANCH   5  14
TORSDOF 4
ENDMDL
MODEL 6
REMARK VINA RESULT:    -6.652      3.405      6.694
REMARK INTER + INTRA:          -8.690
REMARK INTER:                  -8.395
REMARK INTRA:                  -0.296
REMARK UNBOUND:                -0.484
REMARK  Name = 
REMARK  4 active torsions:
REMARK  status: ('A' for Active; 'I' for Inactive)
REMARK    1  A    between atoms: C_2  and  C_4
REMARK    2  A    between atoms: N_8  and  C_9
REMARK    3  A    between atoms: C_9  and  C_10
REMARK    4  A    between atoms: C_10  and  C_11
REMARK                            x       y       z     vdW  Elec       q    Type
REMARK                         _______ _______ _______ _____ _____    ______ ____
ROOT
ATOM      1  C   UNL     1      46.791   7.829  12.365  0.00  0.00    +0.000 A 
ATOM      2  C   UNL     1      45.438   8.153  12.423  0.00  0.00    +0.000 A 
ATOM      3  C   UNL     1      44.521   7.341  11.757  0.00  0.00    +0.000 A 
ATOM      4  C   UNL     1      44.964   6.207  11.075  0.00  0.00    +0.000 A 
ATOM      5  N   UNL     1      43.992   5.351  10.539  0.00  0.00    +0.000 N 
ATOM      6  N   UNL     1      46.275   5.912  10.981  0.00  0.00    +0.000 NA
ATOM      7  C   UNL     1      47.161   6.733  11.602  0.00  0.00    +0.000 A 
ATOM      8  H   UNL     1      43.419   5.854   9.869  0.00  0.00    +0.000 HD
ENDROOT
BRANCH   1  10
ATOM      9  N   UNL     1      48.959   8.914  12.394  0.00  0.00    +0.000 N 
ATOM     10  C   UNL     1      47.830   8.585  13.091  0.00  0.00    +0.000 C 
ATOM     11  O   UNL     1      47.665   8.949  14.251  0.00  0.00    +0.000 OA
ATOM     12  H   UNL     1      49.600   9.548  12.856  0.00  0.00    +0.000 HD
ATOM     13  H   UNL     1      49.001   8.870  11.386  0.00  0.00    +0.000 HD
ENDBRANCH   1  10
BRANCH   5  14
ATOM     14  C   UNL     1      44.486   4.061  10.057  0.00  0.00    +0.000 C 
BRANCH  14  15
ATOM     15  C   UNL     1      44.538   4.069   8.523  0.00  0.00    +0.000 C 
BRANCH  15  16
ATOM     16  C   UNL     1      45.599   3.148   7.974  0.00  0.00    +0.000 A 
ATOM     17  C   UNL     1      46.478   3.606   6.982  0.00  0.00    +0.000 A 
ATOM     18  C   UNL     1      47.459   2.762   6.459  0.00  0.00    +0.000 A 
ATOM     19  C   UNL     1      47.567   1.451   6.922  0.00  0.00    +0.000 A 
ATOM     20  C   UNL     1      46.693   0.985   7.902  0.00  0.00    +0.000 A 
ATOM     21  C   UNL     1      45.711   1.828   8.427  0.00  0.00    +0.000 A 
ENDBRANCH  15  16
ENDBRANCH  14  15
ENDBRANCH   5  14
TORSDOF 4
ENDMDL
MODEL 7
REMARK VINA RESULT:    -6.149      3.992      5.458
REMARK INTER + INTRA:          -8.070
REMARK INTER:                  -7.815
REMARK INTRA:                  -0.256
REMARK UNBOUND:                -0.484
REMARK  Name = 
REMARK  4 active torsions:
REMARK  status: ('A' for Active; 'I' for Inactive)
REMARK    1  A    between atoms: C_2  and  C_4
REMARK    2  A    between atoms: N_8  and  C_9
REMARK    3  A    between atoms: C_9  and  C_10
REMARK    4  A    between atoms: C_10  and  C_11
REMARK                            x       y       z     vdW  Elec       q    Type
REMARK                         _______ _______ _______ _____ _____    ______ ____
ROOT
ATOM      1  C   UNL     1      45.064   4.090  11.021  0.00  0.00    +0.000 A 
ATOM      2  C   UNL     1      45.485   5.404  11.207  0.00  0.00    +0.000 A 
ATOM      3  C   UNL     1      46.017   5.774  12.442  0.00  0.00    +0.000 A 
ATOM      4  C   UNL     1      46.150   4.822  13.454  0.00  0.00    +0.000 A 
ATOM      5  N   UNL     1      46.814   5.209  14.625  0.00  0.00    +0.000 N 
ATOM      6  N   UNL     1      45.706   3.560  13.293  0.00  0.00    +0.000 NA
ATOM      7  C   UNL     1      45.153   3.224  12.099  0.00  0.00    +0.000 A 
ATOM      8  H   UNL     1      46.329   5.988  15.058  0.00  0.00    +0.000 HD
ENDROOT
BRANCH   1  10
ATOM      9  N   UNL     1      44.485   2.229   9.579  0.00  0.00    +0.000 N 
ATOM     10  C   UNL     1      44.551   3.586   9.732  0.00  0.00    +0.000 C 
ATOM     11  O   UNL     1      44.152   4.349   8.858  0.00  0.00    +0.000 OA
ATOM     12  H   UNL     1      44.005   1.896   8.751  0.00  0.00    +0.000 HD
ATOM     13  H   UNL     1      44.544   1.596  10.364  0.00  0.00    +0.000 HD
ENDBRANCH   1  10
BRANCH   5  14
ATOM     14  C   UNL     1      47.148   4.123  15.548  0.00  0.00    +0.000 C 
BRANCH  14  15
ATOM     15  C   UNL     1      47.813   4.700  16.805  0.00  0.00    +0.000 C 
BRANCH  15  16
ATOM     16  C   UNL     1      49.144   4.058  17.103  0.00  0.00    +0.000 A 
ATOM     17  C   UNL     1      49.270   2.661  17.077  0.00  0.00    +0.000 A 
ATOM     18  C   UNL     1      50.494   2.053  17.359  0.00  0.00    +0.000 A 
ATOM     19  C   UNL     1      51.603   2.837  17.675  0.00  0.00    +0.000 A 
ATOM     20  C   UNL     1      51.486   4.225  17.712  0.00  0.00    +0.000 A 
ATOM     21  C   UNL     1      50.263   4.835  17.430  0.00  0.00    +0.000 A 
ENDBRANCH  15  16
ENDBRANCH  14  15
ENDBRANCH   5  14
TORSDOF 4
ENDMDL
MODEL 8
REMARK VINA RESULT:    -5.950      4.852      7.439
REMARK INTER + INTRA:          -7.825
REMARK INTER:                  -7.566
REMARK INTRA:                  -0.259
REMARK UNBOUND:                -0.484
REMARK  Name = 
REMARK  4 active torsions:
REMARK  status: ('A' for Active; 'I' for Inactive)
REMARK    1  A    between atoms: C_2  and  C_4
REMARK    2  A    between atoms: N_8  and  C_9
REMARK    3  A    between atoms: C_9  and  C_10
REMARK    4  A    between atoms: C_10  and  C_11
REMARK                            x       y       z     vdW  Elec       q    Type
REMARK                         _______ _______ _______ _____ _____    ______ ____
ROOT
ATOM      1  C   UNL     1      48.505   4.397  17.227  0.00  0.00    +0.000 A 
ATOM      2  C   UNL     1      48.784   5.634  16.652  0.00  0.00    +0.000 A 
ATOM      3  C   UNL     1      48.165   5.974  15.450  0.00  0.00    +0.000 A 
ATOM      4  C   UNL     1      47.258   5.092  14.862  0.00  0.00    +0.000 A 
ATOM      5  N   UNL     1      46.561   5.537  13.730  0.00  0.00    +0.000 N 
ATOM      6  N   UNL     1      47.015   3.877  15.392  0.00  0.00    +0.000 NA
ATOM      7  C   UNL     1      47.654   3.543  16.543  0.00  0.00    +0.000 A 
ATOM      8  H   UNL     1      47.216   5.773  12.991  0.00  0.00    +0.000 HD
ENDROOT
BRANCH   1  10
ATOM      9  N   UNL     1      48.284   3.137  19.287  0.00  0.00    +0.000 N 
ATOM     10  C   UNL     1      49.055   3.974  18.530  0.00  0.00    +0.000 C 
ATOM     11  O   UNL     1      50.177   4.313  18.892  0.00  0.00    +0.000 OA
ATOM     12  H   UNL     1      48.726   2.744  20.110  0.00  0.00    +0.000 HD
ATOM     13  H   UNL     1      47.498   2.634  18.901  0.00  0.00    +0.000 HD
ENDBRANCH   1  10
BRANCH   5  14
ATOM     14  C   UNL     1      45.451   4.686  13.299  0.00  0.00    +0.000 C 
BRANCH  14  15
ATOM     15  C   UNL     1      44.722   5.347  12.122  0.00  0.00    +0.000 C 
BRANCH  15  16
ATOM     16  C   UNL     1      44.859   4.563  10.841  0.00  0.00    +0.000 A 
ATOM     17  C   UNL     1      44.383   3.246  10.771  0.00  0.00    +0.000 A 
ATOM     18  C   UNL     1      44.511   2.506   9.594  0.00  0.00    +0.000 A 
ATOM     19  C   UNL     1      45.121   3.076   8.478  0.00  0.00    +0.000 A 
ATOM     20  C   UNL     1      45.605   4.381   8.540  0.00  0.00    +0.000 A 
ATOM     21  C   UNL     1      45.478   5.123   9.716  0.00  0.00    +0.000 A 
ENDBRANCH  15  16
ENDBRANCH  14  15
ENDBRANCH   5  14
TORSDOF 4
ENDMDL
MODEL 9
REMARK VINA RESULT:    -5.188      3.705      5.779
REMARK INTER + INTRA:          -6.884
REMARK INTER:                  -6.520
REMARK INTRA:                  -0.364
REMARK UNBOUND:                -0.484
REMARK  Name = 
REMARK  4 active torsions:
REMARK  status: ('A' for Active; 'I' for Inactive)
REMARK    1  A    between atoms: C_2  and  C_4
REMARK    2  A    between atoms: N_8  and  C_9
REMARK    3  A    between atoms: C_9  and  C_10
REMARK    4  A    between atoms: C_10  and  C_11
REMARK                            x       y       z     vdW  Elec       q    Type
REMARK                         _______ _______ _______ _____ _____    ______ ____
ROOT
ATOM      1  C   UNL     1      44.948   4.452  11.526  0.00  0.00    +0.000 A 
ATOM      2  C   UNL     1      45.377   3.788  12.672  0.00  0.00    +0.000 A 
ATOM      3  C   UNL     1      46.319   4.403  13.496  0.00  0.00    +0.000 A 
ATOM      4  C   UNL     1      46.790   5.678  13.181  0.00  0.00    +0.000 A 
ATOM      5  N   UNL     1      47.629   6.308  14.109  0.00  0.00    +0.000 N 
ATOM      6  N   UNL     1      46.410   6.308  12.051  0.00  0.00    +0.000 NA
ATOM      7  C   UNL     1      45.522   5.681  11.238  0.00  0.00    +0.000 A 
ATOM      8  H   UNL     1      48.463   5.749  14.259  0.00  0.00    +0.000 HD
ENDROOT
BRANCH   1  10
ATOM      9  N   UNL     1      43.923   4.346   9.332  0.00  0.00    +0.000 N 
ATOM     10  C   UNL     1      43.906   3.916  10.629  0.00  0.00    +0.000 C 
ATOM     11  O   UNL     1      43.095   3.079  11.016  0.00  0.00    +0.000 OA
ATOM     12  H   UNL     1      43.295   3.869   8.695  0.00  0.00    +0.000 HD
ATOM     13  H   UNL     1      44.725   4.808   8.928  0.00  0.00    +0.000 HD
ENDBRANCH   1  10
BRANCH   5  14
ATOM     14  C   UNL     1      47.895   7.725  13.859  0.00  0.00    +0.000 C 
BRANCH  14  15
ATOM     15  C   UNL     1      49.317   7.894  13.308  0.00  0.00    +0.000 C 
BRANCH  15  16
ATOM     16  C   UNL     1      49.431   9.048  12.344  0.00  0.00    +0.000 A 
ATOM     17  C   UNL     1      48.296   9.803  12.016  0.00  0.00    +0.000 A 
ATOM     18  C   UNL     1      48.386  10.869  11.119  0.00  0.00    +0.000 A 
ATOM     19  C   UNL     1      49.613  11.186  10.538  0.00  0.00    +0.000 A 
ATOM     20  C   UNL     1      50.746  10.436  10.851  0.00  0.00    +0.000 A 
ATOM     21  C   UNL     1      50.658   9.371  11.748  0.00  0.00    +0.000 A 
ENDBRANCH  15  16
ENDBRANCH  14  15
ENDBRANCH   5  14
TORSDOF 4
ENDMDL
