MODEL 1
REMARK VINA RESULT:    -8.232      0.000      0.000
REMARK INTER + INTRA:         -11.861
REMARK INTER:                 -11.119
REMARK INTRA:                  -0.741
REMARK UNBOUND:                -0.741
REMARK  Name = 
REMARK  6 active torsions:
REMARK  status: ('A' for Active; 'I' for Inactive)
REMARK    1  A    between atoms: C_2  and  C_3
REMARK    2  A    between atoms: N_7  and  C_8
REMARK    3  A    between atoms: C_8  and  C_9
REMARK    4  A    between atoms: C_9  and  C_12
REMARK    5  A    between atoms: C_16  and  N_17
REMARK    6  A    between atoms: N_17  and  C_18
REMARK                            x       y       z     vdW  Elec       q    Type
REMARK                         _______ _______ _______ _____ _____    ______ ____
ROOT
ATOM      1  C   UNL     1      43.712   4.916  12.080  0.00  0.00    +0.000 C 
ATOM      2  F   UNL     1      42.786   5.853  12.448  0.00  0.00    +0.000 F 
ATOM      3  F   UNL     1      43.352   3.780  12.758  0.00  0.00    +0.000 F 
ENDROOT
BRANCH   1   4
ATOM      4  C   UNL     1      45.120   5.359  12.427  0.00  0.00    +0.000 A 
ATOM      5  C   UNL     1      45.840   6.195  11.564  0.00  0.00    +0.000 A 
ATOM      6  C   UNL     1      47.121   6.622  11.907  0.00  0.00    +0.000 A 
ATOM      7  C   UNL     1      47.697   6.213  13.113  0.00  0.00    +0.000 A 
ATOM      8  C   UNL     1      46.999   5.380  13.996  0.00  0.00    +0.000 A 
ATOM      9  C   UNL     1      45.712   4.963  13.640  0.00  0.00    +0.000 A 
BRANCH   8  10
ATOM     10  N   UNL     1      47.560   5.092  15.252  0.00  0.00    +0.000 N 
ATOM     11  H   UNL     1      48.526   5.396  15.353  0.00  0.00    +0.000 HD
BRANCH  10  12
ATOM     12  C   UNL     1      47.089   4.111  16.184  0.00  0.00    +0.000 C 
ATOM     13  C   UNL     1      47.136   4.562  17.661  0.00  0.00    +0.000 C 
ATOM     14  N   UNL     1      47.643   3.215  18.024  0.00  0.00    +0.000 NA
ATOM     15  C   UNL     1      48.120   3.057  16.627  0.00  0.00    +0.000 C 
ATOM     16  H   UNL     1      46.897   2.561  18.266  0.00  0.00    +0.000 HD
ENDBRANCH  10  12
ENDBRANCH   8  10
ENDBRANCH   1   4
BRANCH   1  17
ATOM     17  C   UNL     1      43.553   4.633  10.566  0.00  0.00    +0.000 C 
BRANCH  17  22
ATOM     18  C   UNL     1      46.698   2.425   7.371  0.00  0.00    +0.000 A 
ATOM     19  C   UNL     1      46.303   3.709   7.652  0.00  0.00    +0.000 A 
ATOM     20  N   UNL     1      45.391   4.019   8.598  0.00  0.00    +0.000 NA
ATOM     21  C   UNL     1      44.862   3.005   9.299  0.00  0.00    +0.000 A 
ATOM     22  N   UNL     1      43.877   3.252  10.218  0.00  0.00    +0.000 N 
ATOM     23  N   UNL     1      45.210   1.724   9.123  0.00  0.00    +0.000 NA
ATOM     24  C   UNL     1      46.110   1.456   8.149  0.00  0.00    +0.000 A 
ATOM     25  H   UNL     1      43.772   2.519  10.909  0.00  0.00    +0.000 HD
BRANCH  18  27
ATOM     26  N   UNL     1      48.407   1.873   5.514  0.00  0.00    +0.000 NA
ATOM     27  C   UNL     1      47.634   2.122   6.347  0.00  0.00    +0.000 C 
ENDBRANCH  18  27
ENDBRANCH  17  22
ENDBRANCH   1  17
TORSDOF 6
ENDMDL
MODEL 2
REMARK VINA RESULT:    -7.572      1.631      7.873
REMARK INTER + INTRA:         -10.970
REMARK INTER:                 -10.523
REMARK INTRA:                  -0.447
REMARK UNBOUND:                -0.741
REMARK  Name = 
REMARK  6 active torsions:
REMARK  status: ('A' for Active; 'I' for Inactive)
REMARK    1  A    between atoms: C_2  and  C_3
REMARK    2  A    between atoms: N_7  and  C_8
REMARK    3  A    between atoms: C_8  and  C_9
REMARK    4  A    between atoms: C_9  and  C_12
REMARK    5  A    between atoms: C_16  and  N_17
REMARK    6  A    between atoms: N_17  and  C_18
REMARK                            x       y       z     vdW  Elec       q    Type
REMARK                         _______ _______ _______ _____ _____    ______ ____
ROOT
ATOM      1  C   UNL     1      45.219   5.900  11.524  0.00  0.00    +0.000 C 
ATOM      2  F   UNL     1      44.149   6.104  12.351  0.00  0.00    +0.000 F 
ATOM      3  F   UNL     1      45.314   7.050  10.783  0.00  0.00    +0.000 F 
ENDROOT
BRANCH   1   4
ATOM      4  C   UNL     1      45.019   4.679  10.648  0.00  0.00    +0.000 A 
ATOM      5  C   UNL     1      44.233   3.605  11.087  0.00  0.00    +0.000 A 
ATOM      6  C   UNL     1      44.030   2.501  10.262  0.00  0.00    +0.000 A 
ATOM      7  C   UNL     1      44.614   2.457   8.993  0.00  0.00    +0.000 A 
ATOM      8  C   UNL     1      45.401   3.517   8.527  0.00  0.00    +0.000 A 
ATOM      9  C   UNL     1      45.592   4.621   9.365  0.00  0.00    +0.000 A 
BRANCH   8  10
ATOM     10  N   UNL     1      45.866   3.492   7.202  0.00  0.00    +0.000 N 
ATOM     11  H   UNL     1      45.133   3.360   6.508  0.00  0.00    +0.000 HD
BRANCH  10  12
ATOM     12  C   UNL     1      47.210   3.224   6.781  0.00  0.00    +0.000 C 
ATOM     13  C   UNL     1      47.345   2.828   5.294  0.00  0.00    +0.000 C 
ATOM     14  N   UNL     1      48.319   1.782   5.693  0.00  0.00    +0.000 NA
ATOM     15  C   UNL     1      47.728   1.800   7.054  0.00  0.00    +0.000 C 
ATOM     16  H   UNL     1      49.285   2.111   5.675  0.00  0.00    +0.000 HD
ENDBRANCH  10  12
ENDBRANCH   8  10
ENDBRANCH   1   4
BRANCH   1  17
ATOM     17  C   UNL     1      46.498   5.787  12.388  0.00  0.00    +0.000 C 
BRANCH  17  22
ATOM     18  C   UNL     1      48.484   4.882  16.883  0.00  0.00    +0.000 A 
ATOM     19  C   UNL     1      48.605   5.850  15.919  0.00  0.00    +0.000 A 
ATOM     20  N   UNL     1      47.926   5.830  14.752  0.00  0.00    +0.000 NA
ATOM     21  C   UNL     1      47.085   4.805  14.546  0.00  0.00    +0.000 A 
ATOM     22  N   UNL     1      46.429   4.690  13.350  0.00  0.00    +0.000 N 
ATOM     23  N   UNL     1      46.873   3.832  15.443  0.00  0.00    +0.000 NA
ATOM     24  C   UNL     1      47.590   3.879  16.588  0.00  0.00    +0.000 A 
ATOM     25  H   UNL     1      45.600   4.109  13.394  0.00  0.00    +0.000 HD
BRANCH  18  27
ATOM     26  N   UNL     1      49.844   4.926  19.080  0.00  0.00    +0.000 NA
ATOM     27  C   UNL     1      49.234   4.908  18.089  0.00  0.00    +0.000 C 
ENDBRANCH  18  27
ENDBRANCH  17  22
ENDBRANCH   1  17
TORSDOF 6
ENDMDL
MODEL 3
REMARK VINA RESULT:    -7.495      2.333      2.842
REMARK INTER + INTRA:         -10.866
REMARK INTER:                 -10.198
REMARK INTRA:                  -0.668
REMARK UNBOUND:                -0.741
REMARK  Name = 
REMARK  6 active torsions:
REMARK  status: ('A' for Active; 'I' for Inactive)
REMARK    1  A    between atoms: C_2  and  C_3
REMARK    2  A    between atoms: N_7  and  C_8
REMARK    3  A    between atoms: C_8  and  C_9
REMARK    4  A    between atoms: C_9  and  C_12
REMARK    5  A    between atoms: C_16  and  N_17
REMARK    6  A    between atoms: N_17  and  C_18
REMARK                            x       y       z     vdW  Elec       q    Type
REMARK                         _______ _______ _______ _____ _____    ______ ____
ROOT
ATOM      1  C   UNL     1      43.817   5.417  11.937  0.00  0.00    +0.000 C 
ATOM      2  F   UNL     1      42.645   5.355  12.640  0.00  0.00    +0.000 F 
ATOM      3  F   UNL     1      44.616   4.456  12.501  0.00  0.00    +0.000 F 
ENDROOT
BRANCH   1   4
ATOM      4  C   UNL     1      44.443   6.795  12.022  0.00  0.00    +0.000 A 
ATOM      5  C   UNL     1      44.010   7.830  11.183  0.00  0.00    +0.000 A 
ATOM      6  C   UNL     1      44.570   9.101  11.290  0.00  0.00    +0.000 A 
ATOM      7  C   UNL     1      45.573   9.348  12.233  0.00  0.00    +0.000 A 
ATOM      8  C   UNL     1      46.023   8.333  13.085  0.00  0.00    +0.000 A 
ATOM      9  C   UNL     1      45.448   7.063  12.969  0.00  0.00    +0.000 A 
BRANCH   8  10
ATOM     10  N   UNL     1      46.942   8.650  14.100  0.00  0.00    +0.000 N 
ATOM     11  H   UNL     1      46.617   9.371  14.741  0.00  0.00    +0.000 HD
BRANCH  10  12
ATOM     12  C   UNL     1      48.351   8.391  14.079  0.00  0.00    +0.000 C 
ATOM     13  C   UNL     1      48.899   7.964  12.698  0.00  0.00    +0.000 C 
ATOM     14  N   UNL     1      49.730   6.941  13.380  0.00  0.00    +0.000 NA
ATOM     15  C   UNL     1      48.783   6.981  14.521  0.00  0.00    +0.000 C 
ATOM     16  H   UNL     1      50.661   7.283  13.623  0.00  0.00    +0.000 HD
ENDBRANCH  10  12
ENDBRANCH   8  10
ENDBRANCH   1   4
BRANCH   1  17
ATOM     17  C   UNL     1      43.537   4.999  10.473  0.00  0.00    +0.000 C 
BRANCH  17  22
ATOM     18  C   UNL     1      46.662   2.490   7.487  0.00  0.00    +0.000 A 
ATOM     19  C   UNL     1      46.298   3.800   7.671  0.00  0.00    +0.000 A 
ATOM     20  N   UNL     1      45.383   4.200   8.580  0.00  0.00    +0.000 NA
ATOM     21  C   UNL     1      44.819   3.252   9.343  0.00  0.00    +0.000 A 
ATOM     22  N   UNL     1      43.829   3.589  10.228  0.00  0.00    +0.000 N 
ATOM     23  N   UNL     1      45.135   1.953   9.263  0.00  0.00    +0.000 NA
ATOM     24  C   UNL     1      46.039   1.593   8.324  0.00  0.00    +0.000 A 
ATOM     25  H   UNL     1      43.696   2.909  10.968  0.00  0.00    +0.000 HD
BRANCH  18  27
ATOM     26  N   UNL     1      48.376   1.771   5.692  0.00  0.00    +0.000 NA
ATOM     27  C   UNL     1      47.603   2.091   6.502  0.00  0.00    +0.000 C 
ENDBRANCH  18  27
ENDBRANCH  17  22
ENDBRANCH   1  17
TORSDOF 6
ENDMDL
MODEL 4
REMARK VINA RESULT:    -7.353      2.314      3.884
REMARK INTER + INTRA:         -10.674
REMARK INTER:                 -10.032
REMARK INTRA:                  -0.642
REMARK UNBOUND:                -0.741
REMARK  Name = 
REMARK  6 active torsions:
REMARK  status: ('A' for Active; 'I' for Inactive)
REMARK    1  A    between atoms: C_2  and  C_3
REMARK    2  A    between atoms: N_7  and  C_8
REMARK    3  A    between atoms: C_8  and  C_9
REMARK    4  A    between atoms: C_9  and  C_12
REMARK    5  A    between atoms: C_16  and  N_17
REMARK    6  A    between atoms: N_17  and  C_18
REMARK                            x       y       z     vdW  Elec       q    Type
REMARK                         _______ _______ _______ _____ _____    ______ ____
ROOT
ATOM      1  C   UNL     1      43.600   4.508  12.281  0.00  0.00    +0.000 C 
ATOM      2  F   UNL     1      42.497   5.218  12.669  0.00  0.00    +0.000 F 
ATOM      3  F   UNL     1      43.432   3.266  12.837  0.00  0.00    +0.000 F 
ENDROOT
BRANCH   1   4
ATOM      4  C   UNL     1      44.880   5.169  12.752  0.00  0.00    +0.000 A 
ATOM      5  C   UNL     1      45.936   4.402  13.262  0.00  0.00    +0.000 A 
ATOM      6  C   UNL     1      47.120   5.016  13.664  0.00  0.00    +0.000 A 
ATOM      7  C   UNL     1      47.259   6.403  13.565  0.00  0.00    +0.000 A 
ATOM      8  C   UNL     1      46.222   7.194  13.057  0.00  0.00    +0.000 A 
ATOM      9  C   UNL     1      45.040   6.563  12.654  0.00  0.00    +0.000 A 
BRANCH   8  10
ATOM     10  N   UNL     1      46.444   8.568  12.857  0.00  0.00    +0.000 N 
ATOM     11  H   UNL     1      46.746   9.064  13.693  0.00  0.00    +0.000 HD
BRANCH  10  12
ATOM     12  C   UNL     1      45.920   9.363  11.786  0.00  0.00    +0.000 C 
ATOM     13  C   UNL     1      46.489  10.799  11.722  0.00  0.00    +0.000 C 
ATOM     14  N   UNL     1      45.119  11.294  11.433  0.00  0.00    +0.000 NA
ATOM     15  C   UNL     1      44.579  10.065  12.066  0.00  0.00    +0.000 C 
ATOM     16  H   UNL     1      44.919  11.348  10.434  0.00  0.00    +0.000 HD
ENDBRANCH  10  12
ENDBRANCH   8  10
ENDBRANCH   1   4
BRANCH   1  17
ATOM     17  C   UNL     1      43.567   4.346  10.742  0.00  0.00    +0.000 C 
BRANCH  17  22
ATOM     18  C   UNL     1      46.669   2.378   7.354  0.00  0.00    +0.000 A 
ATOM     19  C   UNL     1      46.254   3.636   7.711  0.00  0.00    +0.000 A 
ATOM     20  N   UNL     1      45.362   3.876   8.697  0.00  0.00    +0.000 NA
ATOM     21  C   UNL     1      44.876   2.815   9.359  0.00  0.00    +0.000 A 
ATOM     22  N   UNL     1      43.912   2.992  10.315  0.00  0.00    +0.000 N 
ATOM     23  N   UNL     1      45.248   1.553   9.107  0.00  0.00    +0.000 NA
ATOM     24  C   UNL     1      46.125   1.356   8.097  0.00  0.00    +0.000 A 
ATOM     25  H   UNL     1      43.842   2.222  10.970  0.00  0.00    +0.000 HD
BRANCH  18  27
ATOM     26  N   UNL     1      48.335   1.957   5.425  0.00  0.00    +0.000 NA
ATOM     27  C   UNL     1      47.583   2.149   6.292  0.00  0.00    +0.000 C 
ENDBRANCH  18  27
ENDBRANCH  17  22
ENDBRANCH   1  17
TORSDOF 6
ENDMDL
MODEL 5
REMARK VINA RESULT:    -7.093      2.471      7.460
REMARK INTER + INTRA:         -10.323
REMARK INTER:                  -9.742
REMARK INTRA:                  -0.581
REMARK UNBOUND:                -0.741
REMARK  Name = 
REMARK  6 active torsions:
REMARK  status: ('A' for Active; 'I' for Inactive)
REMARK    1  A    between atoms: C_2  and  C_3
REMARK    2  A    between atoms: N_7  and  C_8
REMARK    3  A    between atoms: C_8  and  C_9
REMARK    4  A    between atoms: C_9  and  C_12
REMARK    5  A    between atoms: C_16  and  N_17
REMARK    6  A    between atoms: N_17  and  C_18
REMARK                            x       y       z     vdW  Elec       q    Type
REMARK                         _______ _______ _______ _____ _____    ______ ____
ROOT
ATOM      1  C   UNL     1      44.206   5.885  11.250  0.00  0.00    +0.000 C 
ATOM      2  F   UNL     1      42.904   6.300  11.197  0.00  0.00    +0.000 F 
ATOM      3  F   UNL     1      44.923   6.903  10.677  0.00  0.00    +0.000 F 
ENDROOT
BRANCH   1   4
ATOM      4  C   UNL     1      44.400   4.573  10.515  0.00  0.00    +0.000 A 
ATOM      5  C   UNL     1      43.900   3.376  11.044  0.00  0.00    +0.000 A 
ATOM      6  C   UNL     1      44.057   2.181  10.345  0.00  0.00    +0.000 A 
ATOM      7  C   UNL     1      44.720   2.169   9.115  0.00  0.00    +0.000 A 
ATOM      8  C   UNL     1      45.228   3.351   8.562  0.00  0.00    +0.000 A 
ATOM      9  C   UNL     1      45.059   4.544   9.273  0.00  0.00    +0.000 A 
BRANCH   8  10
ATOM     10  N   UNL     1      45.778   3.320   7.269  0.00  0.00    +0.000 N 
ATOM     11  H   UNL     1      45.093   3.157   6.533  0.00  0.00    +0.000 HD
BRANCH  10  12
ATOM     12  C   UNL     1      47.152   3.083   6.938  0.00  0.00    +0.000 C 
ATOM     13  C   UNL     1      47.414   2.854   5.433  0.00  0.00    +0.000 C 
ATOM     14  N   UNL     1      48.348   1.758   5.795  0.00  0.00    +0.000 NA
ATOM     15  C   UNL     1      47.641   1.632   7.094  0.00  0.00    +0.000 C 
ATOM     16  H   UNL     1      49.312   2.075   5.897  0.00  0.00    +0.000 HD
ENDBRANCH  10  12
ENDBRANCH   8  10
ENDBRANCH   1   4
BRANCH   1  17
ATOM     17  C   UNL     1      44.632   5.783  12.734  0.00  0.00    +0.000 C 
BRANCH  17  22
ATOM     18  C   UNL     1      48.799   8.340  13.771  0.00  0.00    +0.000 A 
ATOM     19  C   UNL     1      47.483   8.640  13.525  0.00  0.00    +0.000 A 
ATOM     20  N   UNL     1      46.544   7.708  13.252  0.00  0.00    +0.000 NA
ATOM     21  C   UNL     1      46.935   6.425  13.236  0.00  0.00    +0.000 A 
ATOM     22  N   UNL     1      46.045   5.445  12.889  0.00  0.00    +0.000 N 
ATOM     23  N   UNL     1      48.189   6.032  13.499  0.00  0.00    +0.000 NA
ATOM     24  C   UNL     1      49.102   6.999  13.744  0.00  0.00    +0.000 A 
ATOM     25  H   UNL     1      46.311   4.521  13.210  0.00  0.00    +0.000 HD
BRANCH  18  27
ATOM     26  N   UNL     1      50.570  10.166  14.225  0.00  0.00    +0.000 NA
ATOM     27  C   UNL     1      49.774   9.341  14.023  0.00  0.00    +0.000 C 
ENDBRANCH  18  27
ENDBRANCH  17  22
ENDBRANCH   1  17
TORSDOF 6
ENDMDL
MODEL 6
REMARK VINA RESULT:    -6.563      2.100      8.105
REMARK INTER + INTRA:          -9.607
REMARK INTER:                  -8.995
REMARK INTRA:                  -0.612
REMARK UNBOUND:                -0.741
REMARK  Name = 
REMARK  6 active torsions:
REMARK  status: ('A' for Active; 'I' for Inactive)
REMARK    1  A    between atoms: C_2  and  C_3
REMARK    2  A    between atoms: N_7  and  C_8
REMARK    3  A    between atoms: C_8  and  C_9
REMARK    4  A    between atoms: C_9  and  C_12
REMARK    5  A    between atoms: C_16  and  N_17
REMARK    6  A    between atoms: N_17  and  C_18
REMARK                            x       y       z     vdW  Elec       q    Type
REMARK                         _______ _______ _______ _____ _____    ______ ____
ROOT
ATOM      1  C   UNL     1      47.112   6.887  12.163  0.00  0.00    +0.000 C 
ATOM      2  F   UNL     1      46.690   8.047  12.753  0.00  0.00    +0.000 F 
ATOM      3  F   UNL     1      47.710   7.285  10.995  0.00  0.00    +0.000 F 
ENDROOT
BRANCH   1   4
ATOM      4  C   UNL     1      45.957   5.939  11.912  0.00  0.00    +0.000 A 
ATOM      5  C   UNL     1      45.183   5.457  12.976  0.00  0.00    +0.000 A 
ATOM      6  C   UNL     1      44.104   4.611  12.732  0.00  0.00    +0.000 A 
ATOM      7  C   UNL     1      43.790   4.233  11.423  0.00  0.00    +0.000 A 
ATOM      8  C   UNL     1      44.545   4.702  10.341  0.00  0.00    +0.000 A 
ATOM      9  C   UNL     1      45.623   5.554  10.601  0.00  0.00    +0.000 A 
BRANCH   8  10
ATOM     10  N   UNL     1      44.125   4.402   9.033  0.00  0.00    +0.000 N 
ATOM     11  H   UNL     1      43.208   4.775   8.798  0.00  0.00    +0.000 HD
BRANCH  10  12
ATOM     12  C   UNL     1      44.625   3.344   8.205  0.00  0.00    +0.000 C 
ATOM     13  C   UNL     1      45.287   2.185   8.983  0.00  0.00    +0.000 C 
ATOM     14  N   UNL     1      46.359   2.151   7.957  0.00  0.00    +0.000 NA
ATOM     15  C   UNL     1      46.032   3.558   7.618  0.00  0.00    +0.000 C 
ATOM     16  H   UNL     1      46.159   1.502   7.195  0.00  0.00    +0.000 HD
ENDBRANCH  10  12
ENDBRANCH   8  10
ENDBRANCH   1   4
BRANCH   1  17
ATOM     17  C   UNL     1      48.202   6.246  13.057  0.00  0.00    +0.000 C 
BRANCH  17  22
ATOM     18  C   UNL     1      48.655   5.319  17.947  0.00  0.00    +0.000 A 
ATOM     19  C   UNL     1      48.286   4.612  16.830  0.00  0.00    +0.000 A 
ATOM     20  N   UNL     1      48.243   5.145  15.590  0.00  0.00    +0.000 NA
ATOM     21  C   UNL     1      48.596   6.433  15.461  0.00  0.00    +0.000 A 
ATOM     22  N   UNL     1      48.498   7.048  14.241  0.00  0.00    +0.000 N 
ATOM     23  N   UNL     1      49.005   7.193  16.485  0.00  0.00    +0.000 NA
ATOM     24  C   UNL     1      49.010   6.627  17.712  0.00  0.00    +0.000 A 
ATOM     25  H   UNL     1      49.071   7.880  14.157  0.00  0.00    +0.000 HD
BRANCH  18  27
ATOM     26  N   UNL     1      48.666   4.280  20.312  0.00  0.00    +0.000 NA
ATOM     27  C   UNL     1      48.660   4.745  19.245  0.00  0.00    +0.000 C 
ENDBRANCH  18  27
ENDBRANCH  17  22
ENDBRANCH   1  17
TORSDOF 6
ENDMDL
MODEL 7
REMARK VINA RESULT:    -6.247      4.065      7.896
REMARK INTER + INTRA:          -9.180
REMARK INTER:                  -8.487
REMARK INTRA:                  -0.693
REMARK UNBOUND:                -0.741
REMARK  Name = 
REMARK  6 active torsions:
REMARK  status: ('A' for Active; 'I' for Inactive)
REMARK    1  A    between atoms: C_2  and  C_3
REMARK    2  A    between atoms: N_7  and  C_8
REMARK    3  A    between atoms: C_8  and  C_9
REMARK    4  A    between atoms: C_9  and  C_12
REMARK    5  A    between atoms: C_16  and  N_17
REMARK    6  A    between atoms: N_17  and  C_18
REMARK                            x       y       z     vdW  Elec       q    Type
REMARK                         _______ _______ _______ _____ _____    ______ ____
ROOT
ATOM      1  C   UNL     1      45.934   5.129  12.710  0.00  0.00    +0.000 C 
ATOM      2  F   UNL     1      45.596   4.569  11.509  0.00  0.00    +0.000 F 
ATOM      3  F   UNL     1      44.841   4.920  13.513  0.00  0.00    +0.000 F 
ENDROOT
BRANCH   1   4
ATOM      4  C   UNL     1      46.256   6.603  12.566  0.00  0.00    +0.000 A 
ATOM      5  C   UNL     1      47.560   7.024  12.276  0.00  0.00    +0.000 A 
ATOM      6  C   UNL     1      47.840   8.379  12.115  0.00  0.00    +0.000 A 
ATOM      7  C   UNL     1      46.821   9.327  12.247  0.00  0.00    +0.000 A 
ATOM      8  C   UNL     1      45.508   8.934  12.534  0.00  0.00    +0.000 A 
ATOM      9  C   UNL     1      45.242   7.569  12.690  0.00  0.00    +0.000 A 
BRANCH   8  10
ATOM     10  N   UNL     1      44.490   9.902  12.537  0.00  0.00    +0.000 N 
ATOM     11  H   UNL     1      43.979   9.963  13.416  0.00  0.00    +0.000 HD
BRANCH  10  12
ATOM     12  C   UNL     1      43.859  10.471  11.382  0.00  0.00    +0.000 C 
ATOM     13  C   UNL     1      42.536  11.211  11.679  0.00  0.00    +0.000 C 
ATOM     14  N   UNL     1      41.954  10.594  10.461  0.00  0.00    +0.000 NA
ATOM     15  C   UNL     1      42.971   9.517  10.563  0.00  0.00    +0.000 C 
ATOM     16  H   UNL     1      42.071  11.173   9.628  0.00  0.00    +0.000 HD
ENDBRANCH  10  12
ENDBRANCH   8  10
ENDBRANCH   1   4
BRANCH   1  17
ATOM     17  C   UNL     1      47.119   4.334  13.310  0.00  0.00    +0.000 C 
BRANCH  17  22
ATOM     18  C   UNL     1      48.360   5.027  18.101  0.00  0.00    +0.000 A 
ATOM     19  C   UNL     1      48.735   5.551  16.890  0.00  0.00    +0.000 A 
ATOM     20  N   UNL     1      48.218   5.148  15.710  0.00  0.00    +0.000 NA
ATOM     21  C   UNL     1      47.280   4.189  15.743  0.00  0.00    +0.000 A 
ATOM     22  N   UNL     1      46.777   3.686  14.573  0.00  0.00    +0.000 N 
ATOM     23  N   UNL     1      46.823   3.642  16.878  0.00  0.00    +0.000 NA
ATOM     24  C   UNL     1      47.384   4.059  18.035  0.00  0.00    +0.000 A 
ATOM     25  H   UNL     1      45.879   3.230  14.680  0.00  0.00    +0.000 HD
BRANCH  18  27
ATOM     26  N   UNL     1      49.423   5.793  20.328  0.00  0.00    +0.000 NA
ATOM     27  C   UNL     1      48.942   5.445  19.327  0.00  0.00    +0.000 C 
ENDBRANCH  18  27
ENDBRANCH  17  22
ENDBRANCH   1  17
TORSDOF 6
ENDMDL
MODEL 8
REMARK VINA RESULT:    -6.237      3.038      8.075
REMARK INTER + INTRA:          -9.166
REMARK INTER:                  -8.600
REMARK INTRA:                  -0.566
REMARK UNBOUND:                -0.741
REMARK  Name = 
REMARK  6 active torsions:
REMARK  status: ('A' for Active; 'I' for Inactive)
REMARK    1  A    between atoms: C_2  and  C_3
REMARK    2  A    between atoms: N_7  and  C_8
REMARK    3  A    between atoms: C_8  and  C_9
REMARK    4  A    between atoms: C_9  and  C_12
REMARK    5  A    between atoms: C_16  and  N_17
REMARK    6  A    between atoms: N_17  and  C_18
REMARK                            x       y       z     vdW  Elec       q    Type
REMARK                         _______ _______ _______ _____ _____    ______ ____
ROOT
ATOM      1  C   UNL     1      46.673   4.623  13.758  0.00  0.00    +0.000 C 
ATOM      2  F   UNL     1      47.455   3.501  13.748  0.00  0.00    +0.000 F 
ATOM      3  F   UNL     1      46.418   4.860  15.085  0.00  0.00    +0.000 F 
ENDROOT
BRANCH   1   4
ATOM      4  C   UNL     1      45.397   4.417  12.965  0.00  0.00    +0.000 A 
ATOM      5  C   UNL     1      44.294   5.260  13.155  0.00  0.00    +0.000 A 
ATOM      6  C   UNL     1      43.137   5.083  12.399  0.00  0.00    +0.000 A 
ATOM      7  C   UNL     1      43.069   4.059  11.451  0.00  0.00    +0.000 A 
ATOM      8  C   UNL     1      44.157   3.203  11.239  0.00  0.00    +0.000 A 
ATOM      9  C   UNL     1      45.313   3.396  12.002  0.00  0.00    +0.000 A 
BRANCH   8  10
ATOM     10  N   UNL     1      44.097   2.267  10.193  0.00  0.00    +0.000 N 
ATOM     11  H   UNL     1      44.063   1.299  10.506  0.00  0.00    +0.000 HD
BRANCH  10  12
ATOM     12  C   UNL     1      44.481   2.493   8.830  0.00  0.00    +0.000 C 
ATOM     13  C   UNL     1      45.887   1.964   8.470  0.00  0.00    +0.000 C 
ATOM     14  N   UNL     1      46.123   3.211   7.699  0.00  0.00    +0.000 NA
ATOM     15  C   UNL     1      45.083   3.876   8.523  0.00  0.00    +0.000 C 
ATOM     16  H   UNL     1      45.859   3.127   6.717  0.00  0.00    +0.000 HD
ENDBRANCH  10  12
ENDBRANCH   8  10
ENDBRANCH   1   4
BRANCH   1  17
ATOM     17  C   UNL     1      47.504   5.811  13.217  0.00  0.00    +0.000 C 
BRANCH  17  22
ATOM     18  C   UNL     1      50.491   8.266  16.383  0.00  0.00    +0.000 A 
ATOM     19  C   UNL     1      50.545   7.096  15.668  0.00  0.00    +0.000 A 
ATOM     20  N   UNL     1      49.545   6.661  14.871  0.00  0.00    +0.000 NA
ATOM     21  C   UNL     1      48.453   7.434  14.777  0.00  0.00    +0.000 A 
ATOM     22  N   UNL     1      47.377   7.007  14.045  0.00  0.00    +0.000 N 
ATOM     23  N   UNL     1      48.322   8.609  15.406  0.00  0.00    +0.000 NA
ATOM     24  C   UNL     1      49.337   8.995  16.212  0.00  0.00    +0.000 A 
ATOM     25  H   UNL     1      46.756   7.755  13.761  0.00  0.00    +0.000 HD
BRANCH  18  27
ATOM     26  N   UNL     1      52.408   9.023  17.941  0.00  0.00    +0.000 NA
ATOM     27  C   UNL     1      51.542   8.685  17.240  0.00  0.00    +0.000 C 
ENDBRANCH  18  27
ENDBRANCH  17  22
ENDBRANCH   1  17
TORSDOF 6
ENDMDL
MODEL 9
REMARK VINA RESULT:    -6.084      3.149      7.089
REMARK INTER + INTRA:          -8.959
REMARK INTER:                  -8.362
REMARK INTRA:                  -0.597
REMARK UNBOUND:                -0.741
REMARK  Name = 
REMARK  6 active torsions:
REMARK  status: ('A' for Active; 'I' for Inactive)
REMARK    1  A    between atoms: C_2  and  C_3
REMARK    2  A    between atoms: N_7  and  C_8
REMARK    3  A    between atoms: C_8  and  C_9
REMARK    4  A    between atoms: C_9  and  C_12
REMARK    5  A    between atoms: C_16  and  N_17
REMARK    6  A    between atoms: N_17  and  C_18
REMARK                            x       y       z     vdW  Elec       q    Type
REMARK                         _______ _______ _______ _____ _____    ______ ____
ROOT
ATOM      1  C   UNL     1      46.500   5.061  13.691  0.00  0.00    +0.000 C 
ATOM      2  F   UNL     1      47.603   4.373  13.266  0.00  0.00    +0.000 F 
ATOM      3  F   UNL     1      46.387   4.752  15.023  0.00  0.00    +0.000 F 
ENDROOT
BRANCH   1   4
ATOM      4  C   UNL     1      45.262   4.664  12.912  0.00  0.00    +0.000 A 
ATOM      5  C   UNL     1      44.071   5.390  13.044  0.00  0.00    +0.000 A 
ATOM      6  C   UNL     1      42.948   5.036  12.299  0.00  0.00    +0.000 A 
ATOM      7  C   UNL     1      43.003   3.951  11.420  0.00  0.00    +0.000 A 
ATOM      8  C   UNL     1      44.180   3.210  11.266  0.00  0.00    +0.000 A 
ATOM      9  C   UNL     1      45.301   3.580  12.017  0.00  0.00    +0.000 A 
BRANCH   8  10
ATOM     10  N   UNL     1      44.234   2.207  10.283  0.00  0.00    +0.000 N 
ATOM     11  H   UNL     1      44.389   1.272  10.655  0.00  0.00    +0.000 HD
BRANCH  10  12
ATOM     12  C   UNL     1      44.502   2.401   8.888  0.00  0.00    +0.000 C 
ATOM     13  C   UNL     1      45.922   1.981   8.449  0.00  0.00    +0.000 C 
ATOM     14  N   UNL     1      45.991   3.206   7.612  0.00  0.00    +0.000 NA
ATOM     15  C   UNL     1      44.953   3.815   8.481  0.00  0.00    +0.000 C 
ATOM     16  H   UNL     1      45.668   3.052   6.656  0.00  0.00    +0.000 HD
ENDBRANCH  10  12
ENDBRANCH   8  10
ENDBRANCH   1   4
BRANCH   1  17
ATOM     17  C   UNL     1      46.790   6.578  13.581  0.00  0.00    +0.000 C 
BRANCH  17  22
ATOM     18  C   UNL     1      51.268   8.337  12.228  0.00  0.00    +0.000 A 
ATOM     19  C   UNL     1      50.146   7.874  11.588  0.00  0.00    +0.000 A 
ATOM     20  N   UNL     1      49.045   7.434  12.236  0.00  0.00    +0.000 NA
ATOM     21  C   UNL     1      49.064   7.471  13.577  0.00  0.00    +0.000 A 
ATOM     22  N   UNL     1      48.008   6.967  14.288  0.00  0.00    +0.000 N 
ATOM     23  N   UNL     1      50.098   7.940  14.288  0.00  0.00    +0.000 NA
ATOM     24  C   UNL     1      51.188   8.348  13.601  0.00  0.00    +0.000 A 
ATOM     25  H   UNL     1      47.951   7.319  15.236  0.00  0.00    +0.000 HD
BRANCH  18  27
ATOM     26  N   UNL     1      53.370   9.114  10.942  0.00  0.00    +0.000 NA
ATOM     27  C   UNL     1      52.425   8.762  11.524  0.00  0.00    +0.000 C 
ENDBRANCH  18  27
ENDBRANCH  17  22
ENDBRANCH   1  17
TORSDOF 6
ENDMDL
