MODEL 1
REMARK VINA RESULT:    -6.920      0.000      0.000
REMARK INTER + INTRA:         -11.537
REMARK INTER:                 -10.763
REMARK INTRA:                  -0.774
REMARK UNBOUND:                -0.774
REMARK  Name = 
REMARK  10 active torsions:
REMARK  status: ('A' for Active; 'I' for Inactive)
REMARK    1  A    between atoms: N_1  and  C_2
REMARK    2  A    between atoms: C_2  and  C_3
REMARK    3  A    between atoms: C_3  and  C_4
REMARK    4  A    between atoms: C_4  and  C_5
REMARK    5  A    between atoms: C_5  and  N_6
REMARK    6  A    between atoms: N_6  and  C_7
REMARK    7  A    between atoms: C_7  and  C_8
REMARK    8  A    between atoms: C_8  and  C_9
REMARK    9  A    between atoms: N_11  and  C_12
REMARK   10  A    between atoms: C_12  and  C_13
REMARK                            x       y       z     vdW  Elec       q    Type
REMARK                         _______ _______ _______ _____ _____    ______ ____
ROOT
ATOM      1  C   UNL     1      46.379   4.169  13.230  0.00  0.00    +0.000 A 
ATOM      2  C   UNL     1      45.710   3.375  12.315  0.00  0.00    +0.000 A 
ATOM      3  N   UNL     1      45.014   4.192  11.454  0.00  0.00    +0.000 N 
ATOM      4  C   UNL     1      45.271   5.512  11.754  0.00  0.00    +0.000 A 
ATOM      5  C   UNL     1      44.840   6.710  11.175  0.00  0.00    +0.000 A 
ATOM      6  C   UNL     1      45.297   7.884  11.768  0.00  0.00    +0.000 A 
ATOM      7  C   UNL     1      46.132   7.801  12.872  0.00  0.00    +0.000 A 
ATOM      8  N   UNL     1      46.566   6.659  13.445  0.00  0.00    +0.000 NA
ATOM      9  C   UNL     1      46.119   5.518  12.860  0.00  0.00    +0.000 A 
ENDROOT
BRANCH   1  10
ATOM     10  C   UNL     1      47.208   3.698  14.384  0.00  0.00    +0.000 C 
BRANCH  10  11
ATOM     11  C   UNL     1      46.884   4.461  15.674  0.00  0.00    +0.000 C 
BRANCH  11  12
ATOM     12  N   UNL     1      46.858   3.570  16.843  0.00  0.00    +0.000 NA
ATOM     13  H   UNL     1      45.894   3.341  17.078  0.00  0.00    +0.000 HD
BRANCH  12  14
ATOM     14  C   UNL     1      47.502   4.234  17.976  0.00  0.00    +0.000 C 
BRANCH  14  15
ATOM     15  C   UNL     1      48.604   3.347  18.547  0.00  0.00    +0.000 C 
BRANCH  15  16
ATOM     16  C   UNL     1      49.890   3.511  17.737  0.00  0.00    +0.000 C 
BRANCH  16  17
ATOM     17  C   UNL     1      50.376   2.167  17.209  0.00  0.00    +0.000 C 
BRANCH  17  18
ATOM     18  N   UNL     1      49.501   1.705  16.140  0.00  0.00    +0.000 NA
ATOM     19  H   UNL     1      49.200   2.503  15.582  0.00  0.00    +0.000 HD
ATOM     20  H   UNL     1      48.656   1.298  16.539  0.00  0.00    +0.000 HD
ENDBRANCH  17  18
ENDBRANCH  16  17
ENDBRANCH  15  16
ENDBRANCH  14  15
ENDBRANCH  12  14
ENDBRANCH  11  12
ENDBRANCH  10  11
ENDBRANCH   1  10
BRANCH   3  21
ATOM     21  C   UNL     1      44.197   3.719  10.346  0.00  0.00    +0.000 C 
BRANCH  21  22
ATOM     22  C   UNL     1      45.039   3.271   9.181  0.00  0.00    +0.000 A 
ATOM     23  N   UNL     1      45.458   4.207   8.302  0.00  0.00    +0.000 NA
ATOM     24  C   UNL     1      46.239   3.780   7.290  0.00  0.00    +0.000 A 
ATOM     25  C   UNL     1      46.628   2.472   7.130  0.00  0.00    +0.000 A 
ATOM     26  C   UNL     1      46.161   1.597   8.080  0.00  0.00    +0.000 A 
ATOM     27  N   UNL     1      45.375   1.964   9.110  0.00  0.00    +0.000 NA
ENDBRANCH  21  22
ENDBRANCH   3  21
TORSDOF 10
ENDMDL
MODEL 2
REMARK VINA RESULT:    -6.780      1.906      3.278
REMARK INTER + INTRA:         -11.319
REMARK INTER:                 -10.250
REMARK INTRA:                  -1.069
REMARK UNBOUND:                -0.774
REMARK  Name = 
REMARK  10 active torsions:
REMARK  status: ('A' for Active; 'I' for Inactive)
REMARK    1  A    between atoms: N_1  and  C_2
REMARK    2  A    between atoms: C_2  and  C_3
REMARK    3  A    between atoms: C_3  and  C_4
REMARK    4  A    between atoms: C_4  and  C_5
REMARK    5  A    between atoms: C_5  and  N_6
REMARK    6  A    between atoms: N_6  and  C_7
REMARK    7  A    between atoms: C_7  and  C_8
REMARK    8  A    between atoms: C_8  and  C_9
REMARK    9  A    between atoms: N_11  and  C_12
REMARK   10  A    between atoms: C_12  and  C_13
REMARK                            x       y       z     vdW  Elec       q    Type
REMARK                         _______ _______ _______ _____ _____    ______ ____
ROOT
ATOM      1  C   UNL     1      46.043   6.104  11.210  0.00  0.00    +0.000 A 
ATOM      2  C   UNL     1      45.993   5.850   9.851  0.00  0.00    +0.000 A 
ATOM      3  N   UNL     1      45.174   4.765   9.639  0.00  0.00    +0.000 N 
ATOM      4  C   UNL     1      44.636   4.346  10.837  0.00  0.00    +0.000 A 
ATOM      5  C   UNL     1      43.742   3.320  11.158  0.00  0.00    +0.000 A 
ATOM      6  C   UNL     1      43.430   3.172  12.507  0.00  0.00    +0.000 A 
ATOM      7  C   UNL     1      44.010   4.028  13.432  0.00  0.00    +0.000 A 
ATOM      8  N   UNL     1      44.870   5.027  13.146  0.00  0.00    +0.000 NA
ATOM      9  C   UNL     1      45.168   5.168  11.829  0.00  0.00    +0.000 A 
ENDROOT
BRANCH   1  10
ATOM     10  C   UNL     1      46.861   7.155  11.893  0.00  0.00    +0.000 C 
BRANCH  10  11
ATOM     11  C   UNL     1      48.222   6.616  12.351  0.00  0.00    +0.000 C 
BRANCH  11  12
ATOM     12  N   UNL     1      48.100   5.772  13.548  0.00  0.00    +0.000 NA
ATOM     13  H   UNL     1      47.173   5.352  13.577  0.00  0.00    +0.000 HD
BRANCH  12  14
ATOM     14  C   UNL     1      48.316   6.586  14.743  0.00  0.00    +0.000 C 
BRANCH  14  15
ATOM     15  C   UNL     1      48.430   5.692  15.974  0.00  0.00    +0.000 C 
BRANCH  15  16
ATOM     16  C   UNL     1      47.405   4.561  15.904  0.00  0.00    +0.000 C 
BRANCH  16  17
ATOM     17  C   UNL     1      47.203   3.923  17.273  0.00  0.00    +0.000 C 
BRANCH  17  18
ATOM     18  N   UNL     1      46.678   4.908  18.209  0.00  0.00    +0.000 NA
ATOM     19  H   UNL     1      45.667   4.799  18.281  0.00  0.00    +0.000 HD
ATOM     20  H   UNL     1      46.841   5.847  17.848  0.00  0.00    +0.000 HD
ENDBRANCH  17  18
ENDBRANCH  16  17
ENDBRANCH  15  16
ENDBRANCH  14  15
ENDBRANCH  12  14
ENDBRANCH  11  12
ENDBRANCH  10  11
ENDBRANCH   1  10
BRANCH   3  21
ATOM     21  C   UNL     1      44.867   4.205   8.331  0.00  0.00    +0.000 C 
BRANCH  21  22
ATOM     22  C   UNL     1      45.882   3.176   7.910  0.00  0.00    +0.000 A 
ATOM     23  N   UNL     1      45.691   1.897   8.301  0.00  0.00    +0.000 NA
ATOM     24  C   UNL     1      46.598   0.993   7.880  0.00  0.00    +0.000 A 
ATOM     25  C   UNL     1      47.668   1.308   7.077  0.00  0.00    +0.000 A 
ATOM     26  C   UNL     1      47.770   2.631   6.722  0.00  0.00    +0.000 A 
ATOM     27  N   UNL     1      46.898   3.579   7.116  0.00  0.00    +0.000 NA
ENDBRANCH  21  22
ENDBRANCH   3  21
TORSDOF 10
ENDMDL
MODEL 3
REMARK VINA RESULT:    -6.575      1.303      1.932
REMARK INTER + INTRA:         -11.001
REMARK INTER:                 -10.189
REMARK INTRA:                  -0.812
REMARK UNBOUND:                -0.774
REMARK  Name = 
REMARK  10 active torsions:
REMARK  status: ('A' for Active; 'I' for Inactive)
REMARK    1  A    between atoms: N_1  and  C_2
REMARK    2  A    between atoms: C_2  and  C_3
REMARK    3  A    between atoms: C_3  and  C_4
REMARK    4  A    between atoms: C_4  and  C_5
REMARK    5  A    between atoms: C_5  and  N_6
REMARK    6  A    between atoms: N_6  and  C_7
REMARK    7  A    between atoms: C_7  and  C_8
REMARK    8  A    between atoms: C_8  and  C_9
REMARK    9  A    between atoms: N_11  and  C_12
REMARK   10  A    between atoms: C_12  and  C_13
REMARK                            x       y       z     vdW  Elec       q    Type
REMARK                         _______ _______ _______ _____ _____    ______ ____
ROOT
ATOM      1  C   UNL     1      46.491   5.683  12.927  0.00  0.00    +0.000 A 
ATOM      2  C   UNL     1      45.861   4.746  12.127  0.00  0.00    +0.000 A 
ATOM      3  N   UNL     1      44.905   5.387  11.373  0.00  0.00    +0.000 N 
ATOM      4  C   UNL     1      44.945   6.742  11.623  0.00  0.00    +0.000 A 
ATOM      5  C   UNL     1      44.213   7.815  11.107  0.00  0.00    +0.000 A 
ATOM      6  C   UNL     1      44.518   9.074  11.619  0.00  0.00    +0.000 A 
ATOM      7  C   UNL     1      45.503   9.188  12.587  0.00  0.00    +0.000 A 
ATOM      8  N   UNL     1      46.226   8.170  13.097  0.00  0.00    +0.000 NA
ATOM      9  C   UNL     1      45.927   6.946  12.592  0.00  0.00    +0.000 A 
ENDROOT
BRANCH   1  10
ATOM     10  C   UNL     1      47.553   5.417  13.949  0.00  0.00    +0.000 C 
BRANCH  10  11
ATOM     11  C   UNL     1      47.060   4.481  15.059  0.00  0.00    +0.000 C 
BRANCH  11  12
ATOM     12  N   UNL     1      47.686   3.154  14.973  0.00  0.00    +0.000 NA
ATOM     13  H   UNL     1      47.002   2.473  14.648  0.00  0.00    +0.000 HD
BRANCH  12  14
ATOM     14  C   UNL     1      48.189   2.765  16.290  0.00  0.00    +0.000 C 
BRANCH  14  15
ATOM     15  C   UNL     1      48.764   3.981  17.011  0.00  0.00    +0.000 C 
BRANCH  15  16
ATOM     16  C   UNL     1      48.414   3.928  18.498  0.00  0.00    +0.000 C 
BRANCH  16  17
ATOM     17  C   UNL     1      47.886   5.274  18.981  0.00  0.00    +0.000 C 
BRANCH  17  18
ATOM     18  N   UNL     1      46.459   5.378  18.703  0.00  0.00    +0.000 NA
ATOM     19  H   UNL     1      46.000   4.507  18.967  0.00  0.00    +0.000 HD
ATOM     20  H   UNL     1      46.312   5.489  17.700  0.00  0.00    +0.000 HD
ENDBRANCH  17  18
ENDBRANCH  16  17
ENDBRANCH  15  16
ENDBRANCH  14  15
ENDBRANCH  12  14
ENDBRANCH  11  12
ENDBRANCH  10  11
ENDBRANCH   1  10
BRANCH   3  21
ATOM     21  C   UNL     1      44.043   4.730  10.401  0.00  0.00    +0.000 C 
BRANCH  21  22
ATOM     22  C   UNL     1      44.833   3.910   9.416  0.00  0.00    +0.000 A 
ATOM     23  N   UNL     1      45.539   4.563   8.466  0.00  0.00    +0.000 NA
ATOM     24  C   UNL     1      46.263   3.803   7.621  0.00  0.00    +0.000 A 
ATOM     25  C   UNL     1      46.324   2.432   7.695  0.00  0.00    +0.000 A 
ATOM     26  C   UNL     1      45.583   1.861   8.700  0.00  0.00    +0.000 A 
ATOM     27  N   UNL     1      44.837   2.568   9.571  0.00  0.00    +0.000 NA
ENDBRANCH  21  22
ENDBRANCH   3  21
TORSDOF 10
ENDMDL
MODEL 4
REMARK VINA RESULT:    -6.471      1.625      2.132
REMARK INTER + INTRA:         -10.839
REMARK INTER:                 -10.078
REMARK INTRA:                  -0.761
REMARK UNBOUND:                -0.774
REMARK  Name = 
REMARK  10 active torsions:
REMARK  status: ('A' for Active; 'I' for Inactive)
REMARK    1  A    between atoms: N_1  and  C_2
REMARK    2  A    between atoms: C_2  and  C_3
REMARK    3  A    between atoms: C_3  and  C_4
REMARK    4  A    between atoms: C_4  and  C_5
REMARK    5  A    between atoms: C_5  and  N_6
REMARK    6  A    between atoms: N_6  and  C_7
REMARK    7  A    between atoms: C_7  and  C_8
REMARK    8  A    between atoms: C_8  and  C_9
REMARK    9  A    between atoms: N_11  and  C_12
REMARK   10  A    between atoms: C_12  and  C_13
REMARK                            x       y       z     vdW  Elec       q    Type
REMARK                         _______ _______ _______ _____ _____    ______ ____
ROOT
ATOM      1  C   UNL     1      46.835   4.604  13.991  0.00  0.00    +0.000 A 
ATOM      2  C   UNL     1      45.708   4.432  13.208  0.00  0.00    +0.000 A 
ATOM      3  N   UNL     1      45.706   5.397  12.227  0.00  0.00    +0.000 N 
ATOM      4  C   UNL     1      46.852   6.157  12.318  0.00  0.00    +0.000 A 
ATOM      5  C   UNL     1      47.335   7.226  11.558  0.00  0.00    +0.000 A 
ATOM      6  C   UNL     1      48.548   7.776  11.963  0.00  0.00    +0.000 A 
ATOM      7  C   UNL     1      49.192   7.245  13.071  0.00  0.00    +0.000 A 
ATOM      8  N   UNL     1      48.750   6.212  13.817  0.00  0.00    +0.000 NA
ATOM      9  C   UNL     1      47.569   5.679  13.415  0.00  0.00    +0.000 A 
ENDROOT
BRANCH   1  10
ATOM     10  C   UNL     1      47.206   3.815  15.209  0.00  0.00    +0.000 C 
BRANCH  10  11
ATOM     11  C   UNL     1      47.667   4.718  16.360  0.00  0.00    +0.000 C 
BRANCH  11  12
ATOM     12  N   UNL     1      49.131   4.730  16.492  0.00  0.00    +0.000 NA
ATOM     13  H   UNL     1      49.543   4.116  15.791  0.00  0.00    +0.000 HD
BRANCH  12  14
ATOM     14  C   UNL     1      49.503   4.277  17.832  0.00  0.00    +0.000 C 
BRANCH  14  15
ATOM     15  C   UNL     1      49.298   2.770  17.951  0.00  0.00    +0.000 C 
BRANCH  15  16
ATOM     16  C   UNL     1      50.091   2.040  16.866  0.00  0.00    +0.000 C 
BRANCH  16  17
ATOM     17  C   UNL     1      51.504   1.724  17.343  0.00  0.00    +0.000 C 
BRANCH  17  18
ATOM     18  N   UNL     1      51.517   0.452  18.054  0.00  0.00    +0.000 NA
ATOM     19  H   UNL     1      52.321  -0.095  17.750  0.00  0.00    +0.000 HD
ATOM     20  H   UNL     1      50.690  -0.089  17.805  0.00  0.00    +0.000 HD
ENDBRANCH  17  18
ENDBRANCH  16  17
ENDBRANCH  15  16
ENDBRANCH  14  15
ENDBRANCH  12  14
ENDBRANCH  11  12
ENDBRANCH  10  11
ENDBRANCH   1  10
BRANCH   3  21
ATOM     21  C   UNL     1      44.681   5.530  11.202  0.00  0.00    +0.000 C 
BRANCH  21  22
ATOM     22  C   UNL     1      44.913   4.586  10.052  0.00  0.00    +0.000 A 
ATOM     23  N   UNL     1      44.334   3.366  10.104  0.00  0.00    +0.000 NA
ATOM     24  C   UNL     1      44.531   2.557   9.045  0.00  0.00    +0.000 A 
ATOM     25  C   UNL     1      45.262   2.918   7.939  0.00  0.00    +0.000 A 
ATOM     26  C   UNL     1      45.801   4.181   7.973  0.00  0.00    +0.000 A 
ATOM     27  N   UNL     1      45.642   5.032   9.006  0.00  0.00    +0.000 NA
ENDBRANCH  21  22
ENDBRANCH   3  21
TORSDOF 10
ENDMDL
MODEL 5
REMARK VINA RESULT:    -6.380      2.638      6.663
REMARK INTER + INTRA:         -10.696
REMARK INTER:                  -9.859
REMARK INTRA:                  -0.837
REMARK UNBOUND:                -0.774
REMARK  Name = 
REMARK  10 active torsions:
REMARK  status: ('A' for Active; 'I' for Inactive)
REMARK    1  A    between atoms: N_1  and  C_2
REMARK    2  A    between atoms: C_2  and  C_3
REMARK    3  A    between atoms: C_3  and  C_4
REMARK    4  A    between atoms: C_4  and  C_5
REMARK    5  A    between atoms: C_5  and  N_6
REMARK    6  A    between atoms: N_6  and  C_7
REMARK    7  A    between atoms: C_7  and  C_8
REMARK    8  A    between atoms: C_8  and  C_9
REMARK    9  A    between atoms: N_11  and  C_12
REMARK   10  A    between atoms: C_12  and  C_13
REMARK                            x       y       z     vdW  Elec       q    Type
REMARK                         _______ _______ _______ _____ _____    ______ ____
ROOT
ATOM      1  C   UNL     1      45.217   6.883  12.027  0.00  0.00    +0.000 A 
ATOM      2  C   UNL     1      44.432   6.311  11.042  0.00  0.00    +0.000 A 
ATOM      3  N   UNL     1      44.597   4.946  11.089  0.00  0.00    +0.000 N 
ATOM      4  C   UNL     1      45.430   4.613  12.135  0.00  0.00    +0.000 A 
ATOM      5  C   UNL     1      45.888   3.383  12.618  0.00  0.00    +0.000 A 
ATOM      6  C   UNL     1      46.755   3.430  13.706  0.00  0.00    +0.000 A 
ATOM      7  C   UNL     1      47.109   4.663  14.234  0.00  0.00    +0.000 A 
ATOM      8  N   UNL     1      46.677   5.861  13.790  0.00  0.00    +0.000 NA
ATOM      9  C   UNL     1      45.829   5.808  12.731  0.00  0.00    +0.000 A 
ENDROOT
BRANCH   1  10
ATOM     10  C   UNL     1      45.390   8.346  12.295  0.00  0.00    +0.000 C 
BRANCH  10  11
ATOM     11  C   UNL     1      44.366   9.195  11.532  0.00  0.00    +0.000 C 
BRANCH  11  12
ATOM     12  N   UNL     1      44.743  10.615  11.509  0.00  0.00    +0.000 NA
ATOM     13  H   UNL     1      44.630  11.014  12.440  0.00  0.00    +0.000 HD
BRANCH  12  14
ATOM     14  C   UNL     1      43.895  11.329  10.555  0.00  0.00    +0.000 C 
BRANCH  14  15
ATOM     15  C   UNL     1      42.813  10.398  10.017  0.00  0.00    +0.000 C 
BRANCH  15  16
ATOM     16  C   UNL     1      41.483  11.143   9.903  0.00  0.00    +0.000 C 
BRANCH  16  17
ATOM     17  C   UNL     1      40.502  10.674  10.971  0.00  0.00    +0.000 C 
BRANCH  17  18
ATOM     18  N   UNL     1      40.807   9.303  11.360  0.00  0.00    +0.000 NA
ATOM     19  H   UNL     1      41.311   9.308  12.246  0.00  0.00    +0.000 HD
ATOM     20  H   UNL     1      41.434   8.883  10.676  0.00  0.00    +0.000 HD
ENDBRANCH  17  18
ENDBRANCH  16  17
ENDBRANCH  15  16
ENDBRANCH  14  15
ENDBRANCH  12  14
ENDBRANCH  11  12
ENDBRANCH  10  11
ENDBRANCH   1  10
BRANCH   3  21
ATOM     21  C   UNL     1      43.922   4.001  10.210  0.00  0.00    +0.000 C 
BRANCH  21  22
ATOM     22  C   UNL     1      44.859   3.425   9.182  0.00  0.00    +0.000 A 
ATOM     23  N   UNL     1      45.411   4.267   8.282  0.00  0.00    +0.000 NA
ATOM     24  C   UNL     1      46.272   3.727   7.397  0.00  0.00    +0.000 A 
ATOM     25  C   UNL     1      46.613   2.396   7.384  0.00  0.00    +0.000 A 
ATOM     26  C   UNL     1      46.009   1.622   8.345  0.00  0.00    +0.000 A 
ATOM     27  N   UNL     1      45.138   2.105   9.252  0.00  0.00    +0.000 NA
ENDBRANCH  21  22
ENDBRANCH   3  21
TORSDOF 10
ENDMDL
MODEL 6
REMARK VINA RESULT:    -6.358      1.888      7.157
REMARK INTER + INTRA:         -10.663
REMARK INTER:                 -10.073
REMARK INTRA:                  -0.589
REMARK UNBOUND:                -0.774
REMARK  Name = 
REMARK  10 active torsions:
REMARK  status: ('A' for Active; 'I' for Inactive)
REMARK    1  A    between atoms: N_1  and  C_2
REMARK    2  A    between atoms: C_2  and  C_3
REMARK    3  A    between atoms: C_3  and  C_4
REMARK    4  A    between atoms: C_4  and  C_5
REMARK    5  A    between atoms: C_5  and  N_6
REMARK    6  A    between atoms: N_6  and  C_7
REMARK    7  A    between atoms: C_7  and  C_8
REMARK    8  A    between atoms: C_8  and  C_9
REMARK    9  A    between atoms: N_11  and  C_12
REMARK   10  A    between atoms: C_12  and  C_13
REMARK                            x       y       z     vdW  Elec       q    Type
REMARK                         _______ _______ _______ _____ _____    ______ ____
ROOT
ATOM      1  C   UNL     1      44.706   6.156  11.547  0.00  0.00    +0.000 A 
ATOM      2  C   UNL     1      45.804   5.455  12.014  0.00  0.00    +0.000 A 
ATOM      3  N   UNL     1      46.778   6.358  12.373  0.00  0.00    +0.000 N 
ATOM      4  C   UNL     1      46.307   7.642  12.209  0.00  0.00    +0.000 A 
ATOM      5  C   UNL     1      46.883   8.893  12.450  0.00  0.00    +0.000 A 
ATOM      6  C   UNL     1      46.102  10.004  12.140  0.00  0.00    +0.000 A 
ATOM      7  C   UNL     1      44.831   9.811  11.621  0.00  0.00    +0.000 A 
ATOM      8  N   UNL     1      44.252   8.616  11.385  0.00  0.00    +0.000 NA
ATOM      9  C   UNL     1      45.017   7.537  11.692  0.00  0.00    +0.000 A 
ENDROOT
BRANCH   1  10
ATOM     10  C   UNL     1      43.442   5.573  10.994  0.00  0.00    +0.000 C 
BRANCH  10  11
ATOM     11  C   UNL     1      43.685   4.224  10.306  0.00  0.00    +0.000 C 
BRANCH  11  12
ATOM     12  N   UNL     1      44.035   4.390   8.888  0.00  0.00    +0.000 NA
ATOM     13  H   UNL     1      43.197   4.296   8.316  0.00  0.00    +0.000 HD
BRANCH  12  14
ATOM     14  C   UNL     1      45.015   3.374   8.507  0.00  0.00    +0.000 C 
BRANCH  14  15
ATOM     15  C   UNL     1      46.154   4.014   7.719  0.00  0.00    +0.000 C 
BRANCH  15  16
ATOM     16  C   UNL     1      46.541   3.129   6.534  0.00  0.00    +0.000 C 
BRANCH  16  17
ATOM     17  C   UNL     1      47.924   2.520   6.738  0.00  0.00    +0.000 C 
BRANCH  17  18
ATOM     18  N   UNL     1      47.815   1.076   6.892  0.00  0.00    +0.000 NA
ATOM     19  H   UNL     1      48.694   0.708   7.254  0.00  0.00    +0.000 HD
ATOM     20  H   UNL     1      47.677   0.642   5.980  0.00  0.00    +0.000 HD
ENDBRANCH  17  18
ENDBRANCH  16  17
ENDBRANCH  15  16
ENDBRANCH  14  15
ENDBRANCH  12  14
ENDBRANCH  11  12
ENDBRANCH  10  11
ENDBRANCH   1  10
BRANCH   3  21
ATOM     21  C   UNL     1      48.078   5.996  12.921  0.00  0.00    +0.000 C 
BRANCH  21  22
ATOM     22  C   UNL     1      47.981   5.583  14.366  0.00  0.00    +0.000 A 
ATOM     23  N   UNL     1      47.273   4.471  14.664  0.00  0.00    +0.000 NA
ATOM     24  C   UNL     1      47.234   4.109  15.961  0.00  0.00    +0.000 A 
ATOM     25  C   UNL     1      47.880   4.794  16.962  0.00  0.00    +0.000 A 
ATOM     26  C   UNL     1      48.583   5.904  16.559  0.00  0.00    +0.000 A 
ATOM     27  N   UNL     1      48.654   6.317  15.279  0.00  0.00    +0.000 NA
ENDBRANCH  21  22
ENDBRANCH   3  21
TORSDOF 10
ENDMDL
MODEL 7
REMARK VINA RESULT:    -6.290      2.329      4.639
REMARK INTER + INTRA:         -10.557
REMARK INTER:                  -9.335
REMARK INTRA:                  -1.222
REMARK UNBOUND:                -0.774
REMARK  Name = 
REMARK  10 active torsions:
REMARK  status: ('A' for Active; 'I' for Inactive)
REMARK    1  A    between atoms: N_1  and  C_2
REMARK    2  A    between atoms: C_2  and  C_3
REMARK    3  A    between atoms: C_3  and  C_4
REMARK    4  A    between atoms: C_4  and  C_5
REMARK    5  A    between atoms: C_5  and  N_6
REMARK    6  A    between atoms: N_6  and  C_7
REMARK    7  A    between atoms: C_7  and  C_8
REMARK    8  A    between atoms: C_8  and  C_9
REMARK    9  A    between atoms: N_11  and  C_12
REMARK   10  A    between atoms: C_12  and  C_13
REMARK                            x       y       z     vdW  Elec       q    Type
REMARK                         _______ _______ _______ _____ _____    ______ ____
ROOT
ATOM      1  C   UNL     1      45.374   7.036  12.457  0.00  0.00    +0.000 A 
ATOM      2  C   UNL     1      44.574   6.659  11.393  0.00  0.00    +0.000 A 
ATOM      3  N   UNL     1      44.648   5.292  11.254  0.00  0.00    +0.000 N 
ATOM      4  C   UNL     1      45.435   4.763  12.253  0.00  0.00    +0.000 A 
ATOM      5  C   UNL     1      45.801   3.451  12.569  0.00  0.00    +0.000 A 
ATOM      6  C   UNL     1      46.647   3.290  13.663  0.00  0.00    +0.000 A 
ATOM      7  C   UNL     1      47.069   4.413  14.360  0.00  0.00    +0.000 A 
ATOM      8  N   UNL     1      46.727   5.687  14.079  0.00  0.00    +0.000 NA
ATOM      9  C   UNL     1      45.899   5.837  13.013  0.00  0.00    +0.000 A 
ENDROOT
BRANCH   1  10
ATOM     10  C   UNL     1      45.638   8.434  12.925  0.00  0.00    +0.000 C 
BRANCH  10  11
ATOM     11  C   UNL     1      46.510   9.217  11.935  0.00  0.00    +0.000 C 
BRANCH  11  12
ATOM     12  N   UNL     1      47.001  10.474  12.517  0.00  0.00    +0.000 NA
ATOM     13  H   UNL     1      47.012  11.200  11.802  0.00  0.00    +0.000 HD
BRANCH  12  14
ATOM     14  C   UNL     1      48.350  10.273  13.044  0.00  0.00    +0.000 C 
BRANCH  14  15
ATOM     15  C   UNL     1      49.249   9.671  11.969  0.00  0.00    +0.000 C 
BRANCH  15  16
ATOM     16  C   UNL     1      50.374   8.861  12.611  0.00  0.00    +0.000 C 
BRANCH  16  17
ATOM     17  C   UNL     1      49.813   7.790  13.539  0.00  0.00    +0.000 C 
BRANCH  17  18
ATOM     18  N   UNL     1      49.409   6.623  12.766  0.00  0.00    +0.000 NA
ATOM     19  H   UNL     1      48.987   6.928  11.890  0.00  0.00    +0.000 HD
ATOM     20  H   UNL     1      48.687   6.109  13.270  0.00  0.00    +0.000 HD
ENDBRANCH  17  18
ENDBRANCH  16  17
ENDBRANCH  15  16
ENDBRANCH  14  15
ENDBRANCH  12  14
ENDBRANCH  11  12
ENDBRANCH  10  11
ENDBRANCH   1  10
BRANCH   3  21
ATOM     21  C   UNL     1      43.931   4.524  10.246  0.00  0.00    +0.000 C 
BRANCH  21  22
ATOM     22  C   UNL     1      44.871   3.832   9.295  0.00  0.00    +0.000 A 
ATOM     23  N   UNL     1      44.933   2.482   9.332  0.00  0.00    +0.000 NA
ATOM     24  C   UNL     1      45.758   1.890   8.446  0.00  0.00    +0.000 A 
ATOM     25  C   UNL     1      46.504   2.582   7.522  0.00  0.00    +0.000 A 
ATOM     26  C   UNL     1      46.364   3.948   7.554  0.00  0.00    +0.000 A 
ATOM     27  N   UNL     1      45.560   4.596   8.420  0.00  0.00    +0.000 NA
ENDBRANCH  21  22
ENDBRANCH   3  21
TORSDOF 10
ENDMDL
MODEL 8
REMARK VINA RESULT:    -6.267      1.758      7.234
REMARK INTER + INTRA:         -10.520
REMARK INTER:                  -9.716
REMARK INTRA:                  -0.805
REMARK UNBOUND:                -0.774
REMARK  Name = 
REMARK  10 active torsions:
REMARK  status: ('A' for Active; 'I' for Inactive)
REMARK    1  A    between atoms: N_1  and  C_2
REMARK    2  A    between atoms: C_2  and  C_3
REMARK    3  A    between atoms: C_3  and  C_4
REMARK    4  A    between atoms: C_4  and  C_5
REMARK    5  A    between atoms: C_5  and  N_6
REMARK    6  A    between atoms: N_6  and  C_7
REMARK    7  A    between atoms: C_7  and  C_8
REMARK    8  A    between atoms: C_8  and  C_9
REMARK    9  A    between atoms: N_11  and  C_12
REMARK   10  A    between atoms: C_12  and  C_13
REMARK                            x       y       z     vdW  Elec       q    Type
REMARK                         _______ _______ _______ _____ _____    ______ ____
ROOT
ATOM      1  C   UNL     1      44.404   5.711  12.869  0.00  0.00    +0.000 A 
ATOM      2  C   UNL     1      45.120   4.647  13.387  0.00  0.00    +0.000 A 
ATOM      3  N   UNL     1      46.433   5.032  13.529  0.00  0.00    +0.000 N 
ATOM      4  C   UNL     1      46.573   6.356  13.172  0.00  0.00    +0.000 A 
ATOM      5  C   UNL     1      47.675   7.216  13.161  0.00  0.00    +0.000 A 
ATOM      6  C   UNL     1      47.443   8.512  12.708  0.00  0.00    +0.000 A 
ATOM      7  C   UNL     1      46.165   8.867  12.303  0.00  0.00    +0.000 A 
ATOM      8  N   UNL     1      45.086   8.058  12.310  0.00  0.00    +0.000 NA
ATOM      9  C   UNL     1      45.317   6.797  12.755  0.00  0.00    +0.000 A 
ENDROOT
BRANCH   1  10
ATOM     10  C   UNL     1      42.953   5.716  12.497  0.00  0.00    +0.000 C 
BRANCH  10  11
ATOM     11  C   UNL     1      42.636   4.687  11.406  0.00  0.00    +0.000 C 
BRANCH  11  12
ATOM     12  N   UNL     1      43.350   4.980  10.155  0.00  0.00    +0.000 NA
ATOM     13  H   UNL     1      42.678   5.104   9.399  0.00  0.00    +0.000 HD
BRANCH  12  14
ATOM     14  C   UNL     1      44.256   3.877   9.840  0.00  0.00    +0.000 C 
BRANCH  14  15
ATOM     15  C   UNL     1      44.751   3.998   8.402  0.00  0.00    +0.000 C 
BRANCH  15  16
ATOM     16  C   UNL     1      45.428   2.699   7.964  0.00  0.00    +0.000 C 
BRANCH  16  17
ATOM     17  C   UNL     1      46.415   2.955   6.832  0.00  0.00    +0.000 C 
BRANCH  17  18
ATOM     18  N   UNL     1      47.009   4.277   6.977  0.00  0.00    +0.000 NA
ATOM     19  H   UNL     1      47.620   4.285   7.793  0.00  0.00    +0.000 HD
ATOM     20  H   UNL     1      46.278   4.964   7.159  0.00  0.00    +0.000 HD
ENDBRANCH  17  18
ENDBRANCH  16  17
ENDBRANCH  15  16
ENDBRANCH  14  15
ENDBRANCH  12  14
ENDBRANCH  11  12
ENDBRANCH  10  11
ENDBRANCH   1  10
BRANCH   3  21
ATOM     21  C   UNL     1      47.491   4.182  14.057  0.00  0.00    +0.000 C 
BRANCH  21  22
ATOM     22  C   UNL     1      47.683   4.380  15.537  0.00  0.00    +0.000 A 
ATOM     23  N   UNL     1      47.013   3.564  16.380  0.00  0.00    +0.000 NA
ATOM     24  C   UNL     1      47.232   3.743  17.698  0.00  0.00    +0.000 A 
ATOM     25  C   UNL     1      48.097   4.684  18.203  0.00  0.00    +0.000 A 
ATOM     26  C   UNL     1      48.740   5.458  17.267  0.00  0.00    +0.000 A 
ATOM     27  N   UNL     1      48.558   5.327  15.939  0.00  0.00    +0.000 NA
ENDBRANCH  21  22
ENDBRANCH   3  21
TORSDOF 10
ENDMDL
MODEL 9
REMARK VINA RESULT:    -5.951      2.909      7.097
REMARK INTER + INTRA:         -10.030
REMARK INTER:                  -9.469
REMARK INTRA:                  -0.560
REMARK UNBOUND:                -0.774
REMARK  Name = 
REMARK  10 active torsions:
REMARK  status: ('A' for Active; 'I' for Inactive)
REMARK    1  A    between atoms: N_1  and  C_2
REMARK    2  A    between atoms: C_2  and  C_3
REMARK    3  A    between atoms: C_3  and  C_4
REMARK    4  A    between atoms: C_4  and  C_5
REMARK    5  A    between atoms: C_5  and  N_6
REMARK    6  A    between atoms: N_6  and  C_7
REMARK    7  A    between atoms: C_7  and  C_8
REMARK    8  A    between atoms: C_8  and  C_9
REMARK    9  A    between atoms: N_11  and  C_12
REMARK   10  A    between atoms: C_12  and  C_13
REMARK                            x       y       z     vdW  Elec       q    Type
REMARK                         _______ _______ _______ _____ _____    ______ ____
ROOT
ATOM      1  C   UNL     1      45.458   5.412  12.292  0.00  0.00    +0.000 A 
ATOM      2  C   UNL     1      46.566   5.251  13.105  0.00  0.00    +0.000 A 
ATOM      3  N   UNL     1      47.084   6.494  13.390  0.00  0.00    +0.000 N 
ATOM      4  C   UNL     1      46.289   7.470  12.827  0.00  0.00    +0.000 A 
ATOM      5  C   UNL     1      46.362   8.866  12.842  0.00  0.00    +0.000 A 
ATOM      6  C   UNL     1      45.376   9.544  12.131  0.00  0.00    +0.000 A 
ATOM      7  C   UNL     1      44.403   8.815  11.464  0.00  0.00    +0.000 A 
ATOM      8  N   UNL     1      44.309   7.470  11.439  0.00  0.00    +0.000 NA
ATOM      9  C   UNL     1      45.271   6.814  12.137  0.00  0.00    +0.000 A 
ENDROOT
BRANCH   1  10
ATOM     10  C   UNL     1      44.624   4.323  11.692  0.00  0.00    +0.000 C 
BRANCH  10  11
ATOM     11  C   UNL     1      44.886   4.161  10.190  0.00  0.00    +0.000 C 
BRANCH  11  12
ATOM     12  N   UNL     1      44.498   2.827   9.709  0.00  0.00    +0.000 NA
ATOM     13  H   UNL     1      44.534   2.162  10.480  0.00  0.00    +0.000 HD
BRANCH  12  14
ATOM     14  C   UNL     1      45.411   2.408   8.647  0.00  0.00    +0.000 C 
BRANCH  14  15
ATOM     15  C   UNL     1      45.774   3.600   7.766  0.00  0.00    +0.000 C 
BRANCH  15  16
ATOM     16  C   UNL     1      46.493   3.126   6.504  0.00  0.00    +0.000 C 
BRANCH  16  17
ATOM     17  C   UNL     1      47.858   2.538   6.843  0.00  0.00    +0.000 C 
BRANCH  17  18
ATOM     18  N   UNL     1      48.388   1.815   5.694  0.00  0.00    +0.000 NA
ATOM     19  H   UNL     1      48.220   0.818   5.816  0.00  0.00    +0.000 HD
ATOM     20  H   UNL     1      49.400   1.933   5.651  0.00  0.00    +0.000 HD
ENDBRANCH  17  18
ENDBRANCH  16  17
ENDBRANCH  15  16
ENDBRANCH  14  15
ENDBRANCH  12  14
ENDBRANCH  11  12
ENDBRANCH  10  11
ENDBRANCH   1  10
BRANCH   3  21
ATOM     21  C   UNL     1      48.249   6.731  14.230  0.00  0.00    +0.000 C 
BRANCH  21  22
ATOM     22  C   UNL     1      49.367   7.388  13.464  0.00  0.00    +0.000 A 
ATOM     23  N   UNL     1      49.500   7.090  12.152  0.00  0.00    +0.000 NA
ATOM     24  C   UNL     1      50.487   7.721  11.486  0.00  0.00    +0.000 A 
ATOM     25  C   UNL     1      51.329   8.639  12.066  0.00  0.00    +0.000 A 
ATOM     26  C   UNL     1      51.107   8.885  13.399  0.00  0.00    +0.000 A 
ATOM     27  N   UNL     1      50.140   8.282  14.117  0.00  0.00    +0.000 NA
ENDBRANCH  21  22
ENDBRANCH   3  21
TORSDOF 10
ENDMDL
