MODEL 1
REMARK VINA RESULT:    -8.491      0.000      0.000
REMARK INTER + INTRA:         -12.298
REMARK INTER:                 -11.470
REMARK INTRA:                  -0.828
REMARK UNBOUND:                -0.828
REMARK  Name = 
REMARK  7 active torsions:
REMARK  status: ('A' for Active; 'I' for Inactive)
REMARK    1  A    between atoms: C_1  and  N_2
REMARK    2  A    between atoms: N_5  and  C_6
REMARK    3  A    between atoms: C_10  and  C_11
REMARK    4  A    between atoms: C_11  and  C_12
REMARK    5  A    between atoms: C_12  and  N_13
REMARK    6  A    between atoms: N_13  and  C_14
REMARK    7  A    between atoms: C_17  and  C_18
REMARK                            x       y       z     vdW  Elec       q    Type
REMARK                         _______ _______ _______ _____ _____    ______ ____
ROOT
ATOM      1  C   UNL     1      43.693   5.658  12.236  0.00  0.00    +0.000 C 
ENDROOT
BRANCH   1   6
ATOM      2  C   UNL     1      47.139   5.696  13.914  0.00  0.00    +0.000 A 
ATOM      3  C   UNL     1      47.891   6.373  12.944  0.00  0.00    +0.000 A 
ATOM      4  C   UNL     1      47.313   6.845  11.765  0.00  0.00    +0.000 A 
ATOM      5  C   UNL     1      45.960   6.639  11.518  0.00  0.00    +0.000 A 
ATOM      6  C   UNL     1      45.169   5.948  12.441  0.00  0.00    +0.000 A 
ATOM      7  C   UNL     1      45.777   5.496  13.628  0.00  0.00    +0.000 A 
BRANCH   2  12
ATOM      8  C   UNL     1      48.175   4.863  19.310  0.00  0.00    +0.000 C 
ATOM      9  N   UNL     1      48.404   4.716  17.876  0.00  0.00    +0.000 NA
ATOM     10  C   UNL     1      47.228   4.095  17.223  0.00  0.00    +0.000 C 
ATOM     11  C   UNL     1      47.403   3.969  15.692  0.00  0.00    +0.000 C 
ATOM     12  N   UNL     1      47.677   5.298  15.121  0.00  0.00    +0.000 N 
ATOM     13  C   UNL     1      48.845   5.961  15.720  0.00  0.00    +0.000 C 
ATOM     14  C   UNL     1      48.664   6.036  17.255  0.00  0.00    +0.000 C 
ENDBRANCH   2  12
ENDBRANCH   1   6
BRANCH   1  15
ATOM     15  C   UNL     1      43.401   4.457  11.336  0.00  0.00    +0.000 C 
BRANCH  15  16
ATOM     16  N   UNL     1      43.670   4.731   9.927  0.00  0.00    +0.000 N 
ATOM     17  H   UNL     1      43.785   5.717   9.702  0.00  0.00    +0.000 HD
BRANCH  16  18
ATOM     18  C   UNL     1      44.613   3.922   9.275  0.00  0.00    +0.000 A 
ATOM     19  C   UNL     1      44.620   2.522   9.363  0.00  0.00    +0.000 A 
ATOM     20  C   UNL     1      45.534   1.750   8.639  0.00  0.00    +0.000 A 
ATOM     21  C   UNL     1      46.435   2.362   7.771  0.00  0.00    +0.000 A 
ATOM     22  C   UNL     1      46.428   3.755   7.647  0.00  0.00    +0.000 A 
ATOM     23  C   UNL     1      45.517   4.521   8.389  0.00  0.00    +0.000 A 
BRANCH  21  24
ATOM     24  C   UNL     1      47.369   1.493   7.009  0.00  0.00    +0.000 C 
ATOM     25  N   UNL     1      48.435   2.099   6.403  0.00  0.00    +0.000 N 
ATOM     26  O   UNL     1      47.175   0.293   6.882  0.00  0.00    +0.000 OA
ATOM     27  H   UNL     1      48.480   3.098   6.269  0.00  0.00    +0.000 HD
ATOM     28  H   UNL     1      48.978   1.516   5.781  0.00  0.00    +0.000 HD
ENDBRANCH  21  24
ENDBRANCH  16  18
ENDBRANCH  15  16
ENDBRANCH   1  15
TORSDOF 6
ENDMDL
MODEL 2
REMARK VINA RESULT:    -8.224      2.250      3.700
REMARK INTER + INTRA:         -11.937
REMARK INTER:                 -10.889
REMARK INTRA:                  -1.048
REMARK UNBOUND:                -0.828
REMARK  Name = 
REMARK  7 active torsions:
REMARK  status: ('A' for Active; 'I' for Inactive)
REMARK    1  A    between atoms: C_1  and  N_2
REMARK    2  A    between atoms: N_5  and  C_6
REMARK    3  A    between atoms: C_10  and  C_11
REMARK    4  A    between atoms: C_11  and  C_12
REMARK    5  A    between atoms: C_12  and  N_13
REMARK    6  A    between atoms: N_13  and  C_14
REMARK    7  A    between atoms: C_17  and  C_18
REMARK                            x       y       z     vdW  Elec       q    Type
REMARK                         _______ _______ _______ _____ _____    ______ ____
ROOT
ATOM      1  C   UNL     1      43.268   4.960  12.424  0.00  0.00    +0.000 C 
ENDROOT
BRANCH   1   6
ATOM      2  C   UNL     1      46.690   6.465  13.273  0.00  0.00    +0.000 A 
ATOM      3  C   UNL     1      47.413   5.305  13.580  0.00  0.00    +0.000 A 
ATOM      4  C   UNL     1      46.836   4.036  13.498  0.00  0.00    +0.000 A 
ATOM      5  C   UNL     1      45.506   3.897  13.115  0.00  0.00    +0.000 A 
ATOM      6  C   UNL     1      44.732   5.024  12.821  0.00  0.00    +0.000 A 
ATOM      7  C   UNL     1      45.345   6.289  12.900  0.00  0.00    +0.000 A 
BRANCH   2  12
ATOM      8  C   UNL     1      49.242  11.188  11.836  0.00  0.00    +0.000 C 
ATOM      9  N   UNL     1      48.565  10.268  12.744  0.00  0.00    +0.000 NA
ATOM     10  C   UNL     1      47.202   9.960  12.252  0.00  0.00    +0.000 C 
ATOM     11  C   UNL     1      46.465   8.944  13.155  0.00  0.00    +0.000 C 
ATOM     12  N   UNL     1      47.270   7.717  13.268  0.00  0.00    +0.000 N 
ATOM     13  C   UNL     1      48.633   7.957  13.767  0.00  0.00    +0.000 C 
ATOM     14  C   UNL     1      49.332   9.007  12.872  0.00  0.00    +0.000 C 
ENDBRANCH   2  12
ENDBRANCH   1   6
BRANCH   1  15
ATOM     15  C   UNL     1      43.008   4.324  11.059  0.00  0.00    +0.000 C 
BRANCH  15  16
ATOM     16  N   UNL     1      43.810   4.926   9.996  0.00  0.00    +0.000 N 
ATOM     17  H   UNL     1      44.289   5.783  10.261  0.00  0.00    +0.000 HD
BRANCH  16  18
ATOM     18  C   UNL     1      44.624   4.073   9.235  0.00  0.00    +0.000 A 
ATOM     19  C   UNL     1      45.577   4.535   8.315  0.00  0.00    +0.000 A 
ATOM     20  C   UNL     1      46.419   3.653   7.631  0.00  0.00    +0.000 A 
ATOM     21  C   UNL     1      46.356   2.284   7.887  0.00  0.00    +0.000 A 
ATOM     22  C   UNL     1      45.431   1.804   8.819  0.00  0.00    +0.000 A 
ATOM     23  C   UNL     1      44.582   2.696   9.489  0.00  0.00    +0.000 A 
BRANCH  21  24
ATOM     24  C   UNL     1      47.288   1.394   7.148  0.00  0.00    +0.000 C 
ATOM     25  N   UNL     1      48.357   1.982   6.530  0.00  0.00    +0.000 N 
ATOM     26  O   UNL     1      47.089   0.192   7.049  0.00  0.00    +0.000 OA
ATOM     27  H   UNL     1      48.407   2.977   6.373  0.00  0.00    +0.000 HD
ATOM     28  H   UNL     1      48.900   1.382   5.922  0.00  0.00    +0.000 HD
ENDBRANCH  21  24
ENDBRANCH  16  18
ENDBRANCH  15  16
ENDBRANCH   1  15
TORSDOF 6
ENDMDL
MODEL 3
REMARK VINA RESULT:    -7.638      3.146      4.423
REMARK INTER + INTRA:         -11.145
REMARK INTER:                 -10.311
REMARK INTRA:                  -0.834
REMARK UNBOUND:                -0.828
REMARK  Name = 
REMARK  7 active torsions:
REMARK  status: ('A' for Active; 'I' for Inactive)
REMARK    1  A    between atoms: C_1  and  N_2
REMARK    2  A    between atoms: N_5  and  C_6
REMARK    3  A    between atoms: C_10  and  C_11
REMARK    4  A    between atoms: C_11  and  C_12
REMARK    5  A    between atoms: C_12  and  N_13
REMARK    6  A    between atoms: N_13  and  C_14
REMARK    7  A    between atoms: C_17  and  C_18
REMARK                            x       y       z     vdW  Elec       q    Type
REMARK                         _______ _______ _______ _____ _____    ______ ____
ROOT
ATOM      1  C   UNL     1      45.477   5.050  11.874  0.00  0.00    +0.000 C 
ENDROOT
BRANCH   1   6
ATOM      2  C   UNL     1      47.668   8.192  12.011  0.00  0.00    +0.000 A 
ATOM      3  C   UNL     1      46.697   9.173  12.255  0.00  0.00    +0.000 A 
ATOM      4  C   UNL     1      45.347   8.850  12.403  0.00  0.00    +0.000 A 
ATOM      5  C   UNL     1      44.930   7.527  12.298  0.00  0.00    +0.000 A 
ATOM      6  C   UNL     1      45.854   6.512  12.031  0.00  0.00    +0.000 A 
ATOM      7  C   UNL     1      47.210   6.867  11.900  0.00  0.00    +0.000 A 
BRANCH   2  12
ATOM      8  C   UNL     1      52.763   9.662  10.349  0.00  0.00    +0.000 C 
ATOM      9  N   UNL     1      51.753   9.228  11.309  0.00  0.00    +0.000 NA
ATOM     10  C   UNL     1      50.668  10.232  11.413  0.00  0.00    +0.000 C 
ATOM     11  C   UNL     1      49.546   9.789  12.380  0.00  0.00    +0.000 C 
ATOM     12  N   UNL     1      49.014   8.486  11.947  0.00  0.00    +0.000 N 
ATOM     13  C   UNL     1      50.044   7.441  11.839  0.00  0.00    +0.000 C 
ATOM     14  C   UNL     1      51.175   7.927  10.900  0.00  0.00    +0.000 C 
ENDBRANCH   2  12
ENDBRANCH   1   6
BRANCH   1  15
ATOM     15  C   UNL     1      44.011   4.806  11.516  0.00  0.00    +0.000 C 
BRANCH  15  16
ATOM     16  N   UNL     1      43.772   4.831  10.076  0.00  0.00    +0.000 N 
ATOM     17  H   UNL     1      43.583   5.755   9.694  0.00  0.00    +0.000 HD
BRANCH  16  18
ATOM     18  C   UNL     1      44.636   4.085   9.261  0.00  0.00    +0.000 A 
ATOM     19  C   UNL     1      45.606   4.665   8.429  0.00  0.00    +0.000 A 
ATOM     20  C   UNL     1      46.496   3.882   7.688  0.00  0.00    +0.000 A 
ATOM     21  C   UNL     1      46.466   2.493   7.799  0.00  0.00    +0.000 A 
ATOM     22  C   UNL     1      45.525   1.893   8.641  0.00  0.00    +0.000 A 
ATOM     23  C   UNL     1      44.627   2.688   9.369  0.00  0.00    +0.000 A 
BRANCH  21  24
ATOM     24  C   UNL     1      47.449   1.710   7.006  0.00  0.00    +0.000 C 
ATOM     25  N   UNL     1      48.411   2.411   6.332  0.00  0.00    +0.000 N 
ATOM     26  O   UNL     1      47.379   0.493   6.912  0.00  0.00    +0.000 OA
ATOM     27  H   UNL     1      48.341   3.405   6.177  0.00  0.00    +0.000 HD
ATOM     28  H   UNL     1      48.982   1.874   5.694  0.00  0.00    +0.000 HD
ENDBRANCH  21  24
ENDBRANCH  16  18
ENDBRANCH  15  16
ENDBRANCH   1  15
TORSDOF 6
ENDMDL
MODEL 4
REMARK VINA RESULT:    -7.160      3.005      8.333
REMARK INTER + INTRA:         -10.500
REMARK INTER:                  -9.768
REMARK INTRA:                  -0.732
REMARK UNBOUND:                -0.828
REMARK  Name = 
REMARK  7 active torsions:
REMARK  status: ('A' for Active; 'I' for Inactive)
REMARK    1  A    between atoms: C_1  and  N_2
REMARK    2  A    between atoms: N_5  and  C_6
REMARK    3  A    between atoms: C_10  and  C_11
REMARK    4  A    between atoms: C_11  and  C_12
REMARK    5  A    between atoms: C_12  and  N_13
REMARK    6  A    between atoms: N_13  and  C_14
REMARK    7  A    between atoms: C_17  and  C_18
REMARK                            x       y       z     vdW  Elec       q    Type
REMARK                         _______ _______ _______ _____ _____    ______ ____
ROOT
ATOM      1  C   UNL     1      44.999   6.762  12.610  0.00  0.00    +0.000 C 
ENDROOT
BRANCH   1   6
ATOM      2  C   UNL     1      44.799   3.587  10.472  0.00  0.00    +0.000 A 
ATOM      3  C   UNL     1      43.982   2.784  11.278  0.00  0.00    +0.000 A 
ATOM      4  C   UNL     1      43.466   3.244  12.491  0.00  0.00    +0.000 A 
ATOM      5  C   UNL     1      43.768   4.527  12.936  0.00  0.00    +0.000 A 
ATOM      6  C   UNL     1      44.599   5.361  12.182  0.00  0.00    +0.000 A 
ATOM      7  C   UNL     1      45.093   4.874  10.957  0.00  0.00    +0.000 A 
BRANCH   2  12
ATOM      8  C   UNL     1      47.905   1.988   6.150  0.00  0.00    +0.000 C 
ATOM      9  N   UNL     1      46.663   2.309   6.846  0.00  0.00    +0.000 NA
ATOM     10  C   UNL     1      46.481   1.424   8.020  0.00  0.00    +0.000 C 
ATOM     11  C   UNL     1      45.203   1.764   8.820  0.00  0.00    +0.000 C 
ATOM     12  N   UNL     1      45.246   3.177   9.233  0.00  0.00    +0.000 N 
ATOM     13  C   UNL     1      45.411   4.108   8.106  0.00  0.00    +0.000 C 
ATOM     14  C   UNL     1      46.673   3.720   7.297  0.00  0.00    +0.000 C 
ENDBRANCH   2  12
ENDBRANCH   1   6
BRANCH   1  15
ATOM     15  C   UNL     1      46.498   6.951  12.845  0.00  0.00    +0.000 C 
BRANCH  15  16
ATOM     16  N   UNL     1      47.188   5.692  13.113  0.00  0.00    +0.000 N 
ATOM     17  H   UNL     1      47.950   5.482  12.472  0.00  0.00    +0.000 HD
BRANCH  16  18
ATOM     18  C   UNL     1      47.519   5.404  14.446  0.00  0.00    +0.000 A 
ATOM     19  C   UNL     1      48.343   6.224  15.231  0.00  0.00    +0.000 A 
ATOM     20  C   UNL     1      48.588   5.938  16.577  0.00  0.00    +0.000 A 
ATOM     21  C   UNL     1      47.974   4.844  17.184  0.00  0.00    +0.000 A 
ATOM     22  C   UNL     1      47.128   4.027  16.427  0.00  0.00    +0.000 A 
ATOM     23  C   UNL     1      46.901   4.315  15.074  0.00  0.00    +0.000 A 
BRANCH  21  24
ATOM     24  C   UNL     1      48.252   4.598  18.623  0.00  0.00    +0.000 C 
ATOM     25  N   UNL     1      48.541   3.313  18.994  0.00  0.00    +0.000 N 
ATOM     26  O   UNL     1      48.180   5.490  19.455  0.00  0.00    +0.000 OA
ATOM     27  H   UNL     1      48.356   2.526  18.392  0.00  0.00    +0.000 HD
ATOM     28  H   UNL     1      48.592   3.143  19.989  0.00  0.00    +0.000 HD
ENDBRANCH  21  24
ENDBRANCH  16  18
ENDBRANCH  15  16
ENDBRANCH   1  15
TORSDOF 6
ENDMDL
MODEL 5
REMARK VINA RESULT:    -6.957      1.770      2.236
REMARK INTER + INTRA:         -10.225
REMARK INTER:                  -9.530
REMARK INTRA:                  -0.695
REMARK UNBOUND:                -0.828
REMARK  Name = 
REMARK  7 active torsions:
REMARK  status: ('A' for Active; 'I' for Inactive)
REMARK    1  A    between atoms: C_1  and  N_2
REMARK    2  A    between atoms: N_5  and  C_6
REMARK    3  A    between atoms: C_10  and  C_11
REMARK    4  A    between atoms: C_11  and  C_12
REMARK    5  A    between atoms: C_12  and  N_13
REMARK    6  A    between atoms: N_13  and  C_14
REMARK    7  A    between atoms: C_17  and  C_18
REMARK                            x       y       z     vdW  Elec       q    Type
REMARK                         _______ _______ _______ _____ _____    ______ ____
ROOT
ATOM      1  C   UNL     1      46.001   5.998  12.091  0.00  0.00    +0.000 C 
ENDROOT
BRANCH   1   6
ATOM      2  C   UNL     1      49.095   7.166  14.031  0.00  0.00    +0.000 A 
ATOM      3  C   UNL     1      49.819   7.791  13.008  0.00  0.00    +0.000 A 
ATOM      4  C   UNL     1      49.329   7.873  11.704  0.00  0.00    +0.000 A 
ATOM      5  C   UNL     1      48.095   7.315  11.386  0.00  0.00    +0.000 A 
ATOM      6  C   UNL     1      47.342   6.657  12.363  0.00  0.00    +0.000 A 
ATOM      7  C   UNL     1      47.857   6.603  13.672  0.00  0.00    +0.000 A 
BRANCH   2  12
ATOM      8  C   UNL     1      50.405   5.706  19.231  0.00  0.00    +0.000 C 
ATOM      9  N   UNL     1      50.307   6.612  18.091  0.00  0.00    +0.000 NA
ATOM     10  C   UNL     1      51.070   6.083  16.937  0.00  0.00    +0.000 C 
ATOM     11  C   UNL     1      50.949   6.984  15.687  0.00  0.00    +0.000 C 
ATOM     12  N   UNL     1      49.527   7.151  15.341  0.00  0.00    +0.000 N 
ATOM     13  C   UNL     1      48.718   7.690  16.445  0.00  0.00    +0.000 C 
ATOM     14  C   UNL     1      48.890   6.794  17.695  0.00  0.00    +0.000 C 
ENDBRANCH   2  12
ENDBRANCH   1   6
BRANCH   1  15
ATOM     15  C   UNL     1      45.346   6.412  10.774  0.00  0.00    +0.000 C 
BRANCH  15  16
ATOM     16  N   UNL     1      44.496   5.363  10.215  0.00  0.00    +0.000 N 
ATOM     17  H   UNL     1      43.671   5.703   9.728  0.00  0.00    +0.000 HD
BRANCH  16  18
ATOM     18  C   UNL     1      45.126   4.314   9.528  0.00  0.00    +0.000 A 
ATOM     19  C   UNL     1      44.914   2.960   9.825  0.00  0.00    +0.000 A 
ATOM     20  C   UNL     1      45.506   1.944   9.069  0.00  0.00    +0.000 A 
ATOM     21  C   UNL     1      46.291   2.263   7.963  0.00  0.00    +0.000 A 
ATOM     22  C   UNL     1      46.496   3.606   7.632  0.00  0.00    +0.000 A 
ATOM     23  C   UNL     1      45.909   4.617   8.407  0.00  0.00    +0.000 A 
BRANCH  21  24
ATOM     24  C   UNL     1      46.879   1.144   7.180  0.00  0.00    +0.000 C 
ATOM     25  N   UNL     1      46.700  -0.121   7.667  0.00  0.00    +0.000 N 
ATOM     26  O   UNL     1      47.538   1.340   6.170  0.00  0.00    +0.000 OA
ATOM     27  H   UNL     1      46.395  -0.295   8.612  0.00  0.00    +0.000 HD
ATOM     28  H   UNL     1      47.219  -0.851   7.198  0.00  0.00    +0.000 HD
ENDBRANCH  21  24
ENDBRANCH  16  18
ENDBRANCH  15  16
ENDBRANCH   1  15
TORSDOF 6
ENDMDL
MODEL 6
REMARK VINA RESULT:    -6.750      3.733      7.416
REMARK INTER + INTRA:          -9.946
REMARK INTER:                  -8.949
REMARK INTRA:                  -0.997
REMARK UNBOUND:                -0.828
REMARK  Name = 
REMARK  7 active torsions:
REMARK  status: ('A' for Active; 'I' for Inactive)
REMARK    1  A    between atoms: C_1  and  N_2
REMARK    2  A    between atoms: N_5  and  C_6
REMARK    3  A    between atoms: C_10  and  C_11
REMARK    4  A    between atoms: C_11  and  C_12
REMARK    5  A    between atoms: C_12  and  N_13
REMARK    6  A    between atoms: N_13  and  C_14
REMARK    7  A    between atoms: C_17  and  C_18
REMARK                            x       y       z     vdW  Elec       q    Type
REMARK                         _______ _______ _______ _____ _____    ______ ____
ROOT
ATOM      1  C   UNL     1      42.877   6.932  11.395  0.00  0.00    +0.000 C 
ENDROOT
BRANCH   1   6
ATOM      2  C   UNL     1      44.397   3.615  10.220  0.00  0.00    +0.000 A 
ATOM      3  C   UNL     1      44.158   2.810  11.341  0.00  0.00    +0.000 A 
ATOM      4  C   UNL     1      43.494   3.298  12.467  0.00  0.00    +0.000 A 
ATOM      5  C   UNL     1      43.059   4.619  12.505  0.00  0.00    +0.000 A 
ATOM      6  C   UNL     1      43.294   5.472  11.423  0.00  0.00    +0.000 A 
ATOM      7  C   UNL     1      43.954   4.948  10.295  0.00  0.00    +0.000 A 
BRANCH   2  12
ATOM      8  C   UNL     1      47.968   1.857   6.341  0.00  0.00    +0.000 C 
ATOM      9  N   UNL     1      46.651   2.145   6.900  0.00  0.00    +0.000 NA
ATOM     10  C   UNL     1      46.430   1.365   8.140  0.00  0.00    +0.000 C 
ATOM     11  C   UNL     1      45.068   1.680   8.799  0.00  0.00    +0.000 C 
ATOM     12  N   UNL     1      44.977   3.125   9.068  0.00  0.00    +0.000 N 
ATOM     13  C   UNL     1      45.173   3.954   7.869  0.00  0.00    +0.000 C 
ATOM     14  C   UNL     1      46.523   3.590   7.205  0.00  0.00    +0.000 C 
ENDBRANCH   2  12
ENDBRANCH   1   6
BRANCH   1  15
ATOM     15  C   UNL     1      44.040   7.924  11.394  0.00  0.00    +0.000 C 
BRANCH  15  16
ATOM     16  N   UNL     1      44.876   7.813  12.587  0.00  0.00    +0.000 N 
ATOM     17  H   UNL     1      44.587   7.088  13.239  0.00  0.00    +0.000 HD
BRANCH  16  18
ATOM     18  C   UNL     1      46.267   7.849  12.411  0.00  0.00    +0.000 A 
ATOM     19  C   UNL     1      46.982   9.029  12.155  0.00  0.00    +0.000 A 
ATOM     20  C   UNL     1      48.377   9.031  12.058  0.00  0.00    +0.000 A 
ATOM     21  C   UNL     1      49.095   7.854  12.262  0.00  0.00    +0.000 A 
ATOM     22  C   UNL     1      48.405   6.671  12.544  0.00  0.00    +0.000 A 
ATOM     23  C   UNL     1      47.005   6.678  12.625  0.00  0.00    +0.000 A 
BRANCH  21  24
ATOM     24  C   UNL     1      50.577   7.917  12.170  0.00  0.00    +0.000 C 
ATOM     25  N   UNL     1      51.157   7.388  11.050  0.00  0.00    +0.000 N 
ATOM     26  O   UNL     1      51.260   8.375  13.073  0.00  0.00    +0.000 OA
ATOM     27  H   UNL     1      50.654   6.780  10.421  0.00  0.00    +0.000 HD
ATOM     28  H   UNL     1      52.165   7.317  11.067  0.00  0.00    +0.000 HD
ENDBRANCH  21  24
ENDBRANCH  16  18
ENDBRANCH  15  16
ENDBRANCH   1  15
TORSDOF 6
ENDMDL
MODEL 7
REMARK VINA RESULT:    -6.346      3.761      7.751
REMARK INTER + INTRA:          -9.400
REMARK INTER:                  -8.160
REMARK INTRA:                  -1.240
REMARK UNBOUND:                -0.828
REMARK  Name = 
REMARK  7 active torsions:
REMARK  status: ('A' for Active; 'I' for Inactive)
REMARK    1  A    between atoms: C_1  and  N_2
REMARK    2  A    between atoms: N_5  and  C_6
REMARK    3  A    between atoms: C_10  and  C_11
REMARK    4  A    between atoms: C_11  and  C_12
REMARK    5  A    between atoms: C_12  and  N_13
REMARK    6  A    between atoms: N_13  and  C_14
REMARK    7  A    between atoms: C_17  and  C_18
REMARK                            x       y       z     vdW  Elec       q    Type
REMARK                         _______ _______ _______ _____ _____    ______ ____
ROOT
ATOM      1  C   UNL     1      48.251   9.218  16.440  0.00  0.00    +0.000 C 
ENDROOT
BRANCH   1   6
ATOM      2  C   UNL     1      47.736   7.049  13.322  0.00  0.00    +0.000 A 
ATOM      3  C   UNL     1      49.033   7.046  12.792  0.00  0.00    +0.000 A 
ATOM      4  C   UNL     1      50.087   7.705  13.426  0.00  0.00    +0.000 A 
ATOM      5  C   UNL     1      49.864   8.402  14.610  0.00  0.00    +0.000 A 
ATOM      6  C   UNL     1      48.583   8.458  15.168  0.00  0.00    +0.000 A 
ATOM      7  C   UNL     1      47.543   7.771  14.513  0.00  0.00    +0.000 A 
BRANCH   2  12
ATOM      8  C   UNL     1      42.759   5.159  11.726  0.00  0.00    +0.000 C 
ATOM      9  N   UNL     1      44.217   5.178  11.780  0.00  0.00    +0.000 NA
ATOM     10  C   UNL     1      44.740   6.467  11.270  0.00  0.00    +0.000 C 
ATOM     11  C   UNL     1      46.281   6.553  11.359  0.00  0.00    +0.000 C 
ATOM     12  N   UNL     1      46.703   6.332  12.752  0.00  0.00    +0.000 N 
ATOM     13  C   UNL     1      46.226   5.058  13.311  0.00  0.00    +0.000 C 
ATOM     14  C   UNL     1      44.686   4.979  13.171  0.00  0.00    +0.000 C 
ENDBRANCH   2  12
ENDBRANCH   1   6
BRANCH   1  15
ATOM     15  C   UNL     1      48.701   8.529  17.728  0.00  0.00    +0.000 C 
BRANCH  15  16
ATOM     16  N   UNL     1      47.851   7.397  18.088  0.00  0.00    +0.000 N 
ATOM     17  H   UNL     1      46.887   7.476  17.772  0.00  0.00    +0.000 HD
BRANCH  16  18
ATOM     18  C   UNL     1      48.370   6.108  17.898  0.00  0.00    +0.000 A 
ATOM     19  C   UNL     1      47.571   4.957  17.819  0.00  0.00    +0.000 A 
ATOM     20  C   UNL     1      48.124   3.701  17.557  0.00  0.00    +0.000 A 
ATOM     21  C   UNL     1      49.491   3.573  17.321  0.00  0.00    +0.000 A 
ATOM     22  C   UNL     1      50.304   4.709  17.369  0.00  0.00    +0.000 A 
ATOM     23  C   UNL     1      49.741   5.963  17.647  0.00  0.00    +0.000 A 
BRANCH  21  24
ATOM     24  C   UNL     1      50.023   2.217  17.025  0.00  0.00    +0.000 C 
ATOM     25  N   UNL     1      50.925   1.692  17.909  0.00  0.00    +0.000 N 
ATOM     26  O   UNL     1      49.711   1.608  16.012  0.00  0.00    +0.000 OA
ATOM     27  H   UNL     1      51.394   2.259  18.599  0.00  0.00    +0.000 HD
ATOM     28  H   UNL     1      51.376   0.834  17.622  0.00  0.00    +0.000 HD
ENDBRANCH  21  24
ENDBRANCH  16  18
ENDBRANCH  15  16
ENDBRANCH   1  15
TORSDOF 6
ENDMDL
MODEL 8
REMARK VINA RESULT:    -5.590      3.868      8.057
REMARK INTER + INTRA:          -8.379
REMARK INTER:                  -7.241
REMARK INTRA:                  -1.138
REMARK UNBOUND:                -0.828
REMARK  Name = 
REMARK  7 active torsions:
REMARK  status: ('A' for Active; 'I' for Inactive)
REMARK    1  A    between atoms: C_1  and  N_2
REMARK    2  A    between atoms: N_5  and  C_6
REMARK    3  A    between atoms: C_10  and  C_11
REMARK    4  A    between atoms: C_11  and  C_12
REMARK    5  A    between atoms: C_12  and  N_13
REMARK    6  A    between atoms: N_13  and  C_14
REMARK    7  A    between atoms: C_17  and  C_18
REMARK                            x       y       z     vdW  Elec       q    Type
REMARK                         _______ _______ _______ _____ _____    ______ ____
ROOT
ATOM      1  C   UNL     1      47.788   9.028  18.715  0.00  0.00    +0.000 C 
ENDROOT
BRANCH   1   6
ATOM      2  C   UNL     1      48.643   8.605  15.002  0.00  0.00    +0.000 A 
ATOM      3  C   UNL     1      49.981   9.019  14.997  0.00  0.00    +0.000 A 
ATOM      4  C   UNL     1      50.634   9.411  16.167  0.00  0.00    +0.000 A 
ATOM      5  C   UNL     1      49.953   9.410  17.380  0.00  0.00    +0.000 A 
ATOM      6  C   UNL     1      48.609   9.030  17.438  0.00  0.00    +0.000 A 
ATOM      7  C   UNL     1      47.982   8.627  16.244  0.00  0.00    +0.000 A 
BRANCH   2  12
ATOM      8  C   UNL     1      45.191   6.114  11.430  0.00  0.00    +0.000 C 
ATOM      9  N   UNL     1      46.332   6.936  11.819  0.00  0.00    +0.000 NA
ATOM     10  C   UNL     1      45.888   8.099  12.621  0.00  0.00    +0.000 C 
ATOM     11  C   UNL     1      47.071   8.969  13.103  0.00  0.00    +0.000 C 
ATOM     12  N   UNL     1      48.011   8.135  13.870  0.00  0.00    +0.000 N 
ATOM     13  C   UNL     1      48.501   6.968  13.120  0.00  0.00    +0.000 C 
ATOM     14  C   UNL     1      47.297   6.138  12.613  0.00  0.00    +0.000 C 
ENDBRANCH   2  12
ENDBRANCH   1   6
BRANCH   1  15
ATOM     15  C   UNL     1      47.842   7.719  19.502  0.00  0.00    +0.000 C 
BRANCH  15  16
ATOM     16  N   UNL     1      47.062   6.654  18.877  0.00  0.00    +0.000 N 
ATOM     17  H   UNL     1      46.391   6.973  18.183  0.00  0.00    +0.000 HD
BRANCH  16  18
ATOM     18  C   UNL     1      47.750   5.503  18.463  0.00  0.00    +0.000 A 
ATOM     19  C   UNL     1      47.156   4.476  17.714  0.00  0.00    +0.000 A 
ATOM     20  C   UNL     1      47.897   3.381  17.261  0.00  0.00    +0.000 A 
ATOM     21  C   UNL     1      49.266   3.311  17.508  0.00  0.00    +0.000 A 
ATOM     22  C   UNL     1      49.885   4.336  18.230  0.00  0.00    +0.000 A 
ATOM     23  C   UNL     1      49.130   5.423  18.692  0.00  0.00    +0.000 A 
BRANCH  21  24
ATOM     24  C   UNL     1      50.010   2.135  16.983  0.00  0.00    +0.000 C 
ATOM     25  N   UNL     1      51.026   1.643  17.755  0.00  0.00    +0.000 N 
ATOM     26  O   UNL     1      49.764   1.653  15.888  0.00  0.00    +0.000 OA
ATOM     27  H   UNL     1      51.419   2.166  18.523  0.00  0.00    +0.000 HD
ATOM     28  H   UNL     1      51.604   0.935  17.323  0.00  0.00    +0.000 HD
ENDBRANCH  21  24
ENDBRANCH  16  18
ENDBRANCH  15  16
ENDBRANCH   1  15
TORSDOF 6
ENDMDL
