MODEL 1
REMARK VINA RESULT:    -8.852      0.000      0.000
REMARK INTER + INTRA:         -12.073
REMARK INTER:                 -11.439
REMARK INTRA:                  -0.634
REMARK UNBOUND:                -0.634
REMARK  Name = 
REMARK  5 active torsions:
REMARK  status: ('A' for Active; 'I' for Inactive)
REMARK    1  A    between atoms: C_2  and  C_4
REMARK    2  A    between atoms: C_7  and  O_8
REMARK    3  A    between atoms: O_8  and  C_9
REMARK    4  A    between atoms: C_9  and  C_10
REMARK    5  A    between atoms: C_14  and  C_15
REMARK                            x       y       z     vdW  Elec       q    Type
REMARK                         _______ _______ _______ _____ _____    ______ ____
ROOT
ATOM      1  C   UNL     1      43.510   4.165  11.151  0.00  0.00    +0.000 C 
ENDROOT
BRANCH   1   2
ATOM      2  C   UNL     1      44.756   4.621  11.862  0.00  0.00    +0.000 A 
ATOM      3  C   UNL     1      45.346   3.812  12.824  0.00  0.00    +0.000 A 
ATOM      4  N   UNL     1      46.426   4.168  13.548  0.00  0.00    +0.000 NA
ATOM      5  C   UNL     1      46.938   5.401  13.310  0.00  0.00    +0.000 A 
ATOM      6  C   UNL     1      46.442   6.315  12.377  0.00  0.00    +0.000 A 
ATOM      7  C   UNL     1      45.318   5.887  11.655  0.00  0.00    +0.000 A 
BRANCH   6   8
ATOM      8  C   UNL     1      47.054   7.643  12.157  0.00  0.00    +0.000 A 
ATOM      9  C   UNL     1      48.410   7.780  11.797  0.00  0.00    +0.000 A 
ATOM     10  C   UNL     1      48.988   9.036  11.572  0.00  0.00    +0.000 A 
ATOM     11  C   UNL     1      48.216  10.186  11.694  0.00  0.00    +0.000 A 
ATOM     12  C   UNL     1      46.881  10.071  12.045  0.00  0.00    +0.000 A 
ATOM     13  F   UNL     1      46.129  11.174  12.157  0.00  0.00    +0.000 F 
ATOM     14  C   UNL     1      46.303   8.826  12.282  0.00  0.00    +0.000 A 
ENDBRANCH   6   8
ENDBRANCH   1   2
BRANCH   1  15
ATOM     15  O   UNL     1      43.547   4.547   9.771  0.00  0.00    +0.000 OA
BRANCH  15  19
ATOM     16  C   UNL     1      46.401   2.432   7.693  0.00  0.00    +0.000 A 
ATOM     17  C   UNL     1      45.574   1.767   8.599  0.00  0.00    +0.000 A 
ATOM     18  C   UNL     1      44.612   2.495   9.302  0.00  0.00    +0.000 A 
ATOM     19  C   UNL     1      44.516   3.860   9.071  0.00  0.00    +0.000 A 
ATOM     20  N   UNL     1      45.311   4.531   8.211  0.00  0.00    +0.000 NA
ATOM     21  C   UNL     1      46.243   3.805   7.550  0.00  0.00    +0.000 A 
BRANCH  16  23
ATOM     22  N   UNL     1      48.470   2.535   6.425  0.00  0.00    +0.000 N 
ATOM     23  C   UNL     1      47.444   1.762   6.891  0.00  0.00    +0.000 C 
ATOM     24  O   UNL     1      47.416   0.557   6.686  0.00  0.00    +0.000 OA
ATOM     25  H   UNL     1      49.234   2.038   5.982  0.00  0.00    +0.000 HD
ATOM     26  H   UNL     1      48.665   3.458   6.784  0.00  0.00    +0.000 HD
ENDBRANCH  16  23
ENDBRANCH  15  19
ENDBRANCH   1  15
TORSDOF 5
ENDMDL
MODEL 2
REMARK VINA RESULT:    -8.730      1.774      1.976
REMARK INTER + INTRA:         -11.915
REMARK INTER:                 -11.123
REMARK INTRA:                  -0.792
REMARK UNBOUND:                -0.634
REMARK  Name = 
REMARK  5 active torsions:
REMARK  status: ('A' for Active; 'I' for Inactive)
REMARK    1  A    between atoms: C_2  and  C_4
REMARK    2  A    between atoms: C_7  and  O_8
REMARK    3  A    between atoms: O_8  and  C_9
REMARK    4  A    between atoms: C_9  and  C_10
REMARK    5  A    between atoms: C_14  and  C_15
REMARK                            x       y       z     vdW  Elec       q    Type
REMARK                         _______ _______ _______ _____ _____    ______ ____
ROOT
ATOM      1  C   UNL     1      43.848   5.190  10.764  0.00  0.00    +0.000 C 
ENDROOT
BRANCH   1   2
ATOM      2  C   UNL     1      44.947   5.115  11.791  0.00  0.00    +0.000 A 
ATOM      3  C   UNL     1      44.851   4.226  12.853  0.00  0.00    +0.000 A 
ATOM      4  N   UNL     1      45.759   4.137  13.845  0.00  0.00    +0.000 NA
ATOM      5  C   UNL     1      46.813   4.989  13.784  0.00  0.00    +0.000 A 
ATOM      6  C   UNL     1      47.029   5.933  12.777  0.00  0.00    +0.000 A 
ATOM      7  C   UNL     1      46.051   5.977  11.773  0.00  0.00    +0.000 A 
BRANCH   6   8
ATOM      8  C   UNL     1      48.208   6.826  12.762  0.00  0.00    +0.000 A 
ATOM      9  C   UNL     1      48.580   7.537  11.603  0.00  0.00    +0.000 A 
ATOM     10  C   UNL     1      49.686   8.397  11.591  0.00  0.00    +0.000 A 
ATOM     11  C   UNL     1      50.440   8.573  12.746  0.00  0.00    +0.000 A 
ATOM     12  C   UNL     1      50.087   7.884  13.896  0.00  0.00    +0.000 A 
ATOM     13  F   UNL     1      50.804   8.055  15.015  0.00  0.00    +0.000 F 
ATOM     14  C   UNL     1      48.996   7.019  13.911  0.00  0.00    +0.000 A 
ENDBRANCH   6   8
ENDBRANCH   1   2
BRANCH   1  15
ATOM     15  O   UNL     1      43.577   3.894  10.220  0.00  0.00    +0.000 OA
BRANCH  15  19
ATOM     16  C   UNL     1      46.414   2.658   7.508  0.00  0.00    +0.000 A 
ATOM     17  C   UNL     1      45.869   1.736   8.403  0.00  0.00    +0.000 A 
ATOM     18  C   UNL     1      44.910   2.168   9.322  0.00  0.00    +0.000 A 
ATOM     19  C   UNL     1      44.535   3.504   9.309  0.00  0.00    +0.000 A 
ATOM     20  N   UNL     1      45.056   4.418   8.464  0.00  0.00    +0.000 NA
ATOM     21  C   UNL     1      45.991   3.978   7.590  0.00  0.00    +0.000 A 
BRANCH  16  23
ATOM     22  N   UNL     1      47.398   3.006   5.314  0.00  0.00    +0.000 N 
ATOM     23  C   UNL     1      47.427   2.311   6.490  0.00  0.00    +0.000 C 
ATOM     24  O   UNL     1      48.284   1.467   6.705  0.00  0.00    +0.000 OA
ATOM     25  H   UNL     1      48.171   2.839   4.681  0.00  0.00    +0.000 HD
ATOM     26  H   UNL     1      46.887   3.870   5.204  0.00  0.00    +0.000 HD
ENDBRANCH  16  23
ENDBRANCH  15  19
ENDBRANCH   1  15
TORSDOF 5
ENDMDL
MODEL 3
REMARK VINA RESULT:    -8.515      2.853      3.976
REMARK INTER + INTRA:         -11.638
REMARK INTER:                 -11.085
REMARK INTRA:                  -0.554
REMARK UNBOUND:                -0.634
REMARK  Name = 
REMARK  5 active torsions:
REMARK  status: ('A' for Active; 'I' for Inactive)
REMARK    1  A    between atoms: C_2  and  C_4
REMARK    2  A    between atoms: C_7  and  O_8
REMARK    3  A    between atoms: O_8  and  C_9
REMARK    4  A    between atoms: C_9  and  C_10
REMARK    5  A    between atoms: C_14  and  C_15
REMARK                            x       y       z     vdW  Elec       q    Type
REMARK                         _______ _______ _______ _____ _____    ______ ____
ROOT
ATOM      1  C   UNL     1      44.029   4.541  11.283  0.00  0.00    +0.000 C 
ENDROOT
BRANCH   1   2
ATOM      2  C   UNL     1      45.181   5.263  11.929  0.00  0.00    +0.000 A 
ATOM      3  C   UNL     1      45.795   6.324  11.276  0.00  0.00    +0.000 A 
ATOM      4  N   UNL     1      46.867   6.985  11.757  0.00  0.00    +0.000 NA
ATOM      5  C   UNL     1      47.362   6.558  12.946  0.00  0.00    +0.000 A 
ATOM      6  C   UNL     1      46.845   5.504  13.703  0.00  0.00    +0.000 A 
ATOM      7  C   UNL     1      45.731   4.856  13.151  0.00  0.00    +0.000 A 
BRANCH   6   8
ATOM      8  C   UNL     1      47.427   5.095  15.000  0.00  0.00    +0.000 A 
ATOM      9  C   UNL     1      48.433   5.853  15.630  0.00  0.00    +0.000 A 
ATOM     10  C   UNL     1      48.973   5.476  16.867  0.00  0.00    +0.000 A 
ATOM     11  C   UNL     1      48.509   4.333  17.506  0.00  0.00    +0.000 A 
ATOM     12  C   UNL     1      47.517   3.575  16.903  0.00  0.00    +0.000 A 
ATOM     13  F   UNL     1      47.060   2.476  17.517  0.00  0.00    +0.000 F 
ATOM     14  C   UNL     1      46.985   3.938  15.668  0.00  0.00    +0.000 A 
ENDBRANCH   6   8
ENDBRANCH   1   2
BRANCH   1  15
ATOM     15  O   UNL     1      43.986   4.814   9.878  0.00  0.00    +0.000 OA
BRANCH  15  19
ATOM     16  C   UNL     1      46.425   2.265   7.759  0.00  0.00    +0.000 A 
ATOM     17  C   UNL     1      45.562   1.748   8.727  0.00  0.00    +0.000 A 
ATOM     18  C   UNL     1      44.743   2.622   9.443  0.00  0.00    +0.000 A 
ATOM     19  C   UNL     1      44.819   3.980   9.163  0.00  0.00    +0.000 A 
ATOM     20  N   UNL     1      45.652   4.508   8.242  0.00  0.00    +0.000 NA
ATOM     21  C   UNL     1      46.445   3.641   7.569  0.00  0.00    +0.000 A 
BRANCH  16  23
ATOM     22  N   UNL     1      48.422   2.045   6.394  0.00  0.00    +0.000 N 
ATOM     23  C   UNL     1      47.328   1.434   6.938  0.00  0.00    +0.000 C 
ATOM     24  O   UNL     1      47.131   0.237   6.786  0.00  0.00    +0.000 OA
ATOM     25  H   UNL     1      49.090   1.435   5.938  0.00  0.00    +0.000 HD
ATOM     26  H   UNL     1      48.755   2.947   6.706  0.00  0.00    +0.000 HD
ENDBRANCH  16  23
ENDBRANCH  15  19
ENDBRANCH   1  15
TORSDOF 5
ENDMDL
MODEL 4
REMARK VINA RESULT:    -8.437      1.626      2.144
REMARK INTER + INTRA:         -11.537
REMARK INTER:                 -10.705
REMARK INTRA:                  -0.833
REMARK UNBOUND:                -0.634
REMARK  Name = 
REMARK  5 active torsions:
REMARK  status: ('A' for Active; 'I' for Inactive)
REMARK    1  A    between atoms: C_2  and  C_4
REMARK    2  A    between atoms: C_7  and  O_8
REMARK    3  A    between atoms: O_8  and  C_9
REMARK    4  A    between atoms: C_9  and  C_10
REMARK    5  A    between atoms: C_14  and  C_15
REMARK                            x       y       z     vdW  Elec       q    Type
REMARK                         _______ _______ _______ _____ _____    ______ ____
ROOT
ATOM      1  C   UNL     1      43.790   3.865  11.591  0.00  0.00    +0.000 C 
ENDROOT
BRANCH   1   2
ATOM      2  C   UNL     1      44.706   4.972  12.042  0.00  0.00    +0.000 A 
ATOM      3  C   UNL     1      45.747   4.702  12.919  0.00  0.00    +0.000 A 
ATOM      4  N   UNL     1      46.574   5.643  13.418  0.00  0.00    +0.000 NA
ATOM      5  C   UNL     1      46.343   6.922  13.031  0.00  0.00    +0.000 A 
ATOM      6  C   UNL     1      45.331   7.332  12.160  0.00  0.00    +0.000 A 
ATOM      7  C   UNL     1      44.504   6.308  11.675  0.00  0.00    +0.000 A 
BRANCH   6   8
ATOM      8  C   UNL     1      45.139   8.745  11.769  0.00  0.00    +0.000 A 
ATOM      9  C   UNL     1      46.058   9.746  12.143  0.00  0.00    +0.000 A 
ATOM     10  C   UNL     1      45.886  11.082  11.760  0.00  0.00    +0.000 A 
ATOM     11  C   UNL     1      44.793  11.446  10.983  0.00  0.00    +0.000 A 
ATOM     12  C   UNL     1      43.880  10.475  10.603  0.00  0.00    +0.000 A 
ATOM     13  F   UNL     1      42.828  10.817   9.847  0.00  0.00    +0.000 F 
ATOM     14  C   UNL     1      44.038   9.146  10.990  0.00  0.00    +0.000 A 
ENDBRANCH   6   8
ENDBRANCH   1   2
BRANCH   1  15
ATOM     15  O   UNL     1      43.462   4.013  10.205  0.00  0.00    +0.000 OA
BRANCH  15  19
ATOM     16  C   UNL     1      46.359   2.428   7.749  0.00  0.00    +0.000 A 
ATOM     17  C   UNL     1      46.091   3.797   7.704  0.00  0.00    +0.000 A 
ATOM     18  C   UNL     1      45.103   4.324   8.539  0.00  0.00    +0.000 A 
ATOM     19  C   UNL     1      44.422   3.459   9.384  0.00  0.00    +0.000 A 
ATOM     20  N   UNL     1      44.650   2.131   9.438  0.00  0.00    +0.000 NA
ATOM     21  C   UNL     1      45.605   1.642   8.611  0.00  0.00    +0.000 A 
BRANCH  16  23
ATOM     22  N   UNL     1      48.451   2.522   6.518  0.00  0.00    +0.000 N 
ATOM     23  C   UNL     1      47.385   1.766   6.918  0.00  0.00    +0.000 C 
ATOM     24  O   UNL     1      47.308   0.579   6.635  0.00  0.00    +0.000 OA
ATOM     25  H   UNL     1      49.199   2.021   6.053  0.00  0.00    +0.000 HD
ATOM     26  H   UNL     1      48.679   3.410   6.940  0.00  0.00    +0.000 HD
ENDBRANCH  16  23
ENDBRANCH  15  19
ENDBRANCH   1  15
TORSDOF 5
ENDMDL
MODEL 5
REMARK VINA RESULT:    -8.334      1.981      2.485
REMARK INTER + INTRA:         -11.404
REMARK INTER:                 -10.649
REMARK INTRA:                  -0.755
REMARK UNBOUND:                -0.634
REMARK  Name = 
REMARK  5 active torsions:
REMARK  status: ('A' for Active; 'I' for Inactive)
REMARK    1  A    between atoms: C_2  and  C_4
REMARK    2  A    between atoms: C_7  and  O_8
REMARK    3  A    between atoms: O_8  and  C_9
REMARK    4  A    between atoms: C_9  and  C_10
REMARK    5  A    between atoms: C_14  and  C_15
REMARK                            x       y       z     vdW  Elec       q    Type
REMARK                         _______ _______ _______ _____ _____    ______ ____
ROOT
ATOM      1  C   UNL     1      44.103   3.540  11.592  0.00  0.00    +0.000 C 
ENDROOT
BRANCH   1   2
ATOM      2  C   UNL     1      44.527   4.978  11.733  0.00  0.00    +0.000 A 
ATOM      3  C   UNL     1      43.637   6.001  11.436  0.00  0.00    +0.000 A 
ATOM      4  N   UNL     1      43.953   7.311  11.479  0.00  0.00    +0.000 NA
ATOM      5  C   UNL     1      45.229   7.617  11.823  0.00  0.00    +0.000 A 
ATOM      6  C   UNL     1      46.224   6.689  12.142  0.00  0.00    +0.000 A 
ATOM      7  C   UNL     1      45.834   5.344  12.079  0.00  0.00    +0.000 A 
BRANCH   6   8
ATOM      8  C   UNL     1      47.596   7.090  12.521  0.00  0.00    +0.000 A 
ATOM      9  C   UNL     1      48.070   6.944  13.840  0.00  0.00    +0.000 A 
ATOM     10  C   UNL     1      49.374   7.307  14.197  0.00  0.00    +0.000 A 
ATOM     11  C   UNL     1      50.240   7.818  13.237  0.00  0.00    +0.000 A 
ATOM     12  C   UNL     1      49.792   7.967  11.934  0.00  0.00    +0.000 A 
ATOM     13  F   UNL     1      50.623   8.451  11.001  0.00  0.00    +0.000 F 
ATOM     14  C   UNL     1      48.493   7.619  11.574  0.00  0.00    +0.000 A 
ENDBRANCH   6   8
ENDBRANCH   1   2
BRANCH   1  15
ATOM     15  O   UNL     1      43.543   3.304  10.295  0.00  0.00    +0.000 OA
BRANCH  15  19
ATOM     16  C   UNL     1      46.456   2.579   7.480  0.00  0.00    +0.000 A 
ATOM     17  C   UNL     1      45.872   3.845   7.558  0.00  0.00    +0.000 A 
ATOM     18  C   UNL     1      44.882   4.078   8.514  0.00  0.00    +0.000 A 
ATOM     19  C   UNL     1      44.514   3.036   9.354  0.00  0.00    +0.000 A 
ATOM     20  N   UNL     1      45.051   1.800   9.291  0.00  0.00    +0.000 NA
ATOM     21  C   UNL     1      46.002   1.595   8.349  0.00  0.00    +0.000 A 
BRANCH  16  23
ATOM     22  N   UNL     1      47.543   2.909   5.333  0.00  0.00    +0.000 N 
ATOM     23  C   UNL     1      47.515   2.223   6.515  0.00  0.00    +0.000 C 
ATOM     24  O   UNL     1      48.360   1.380   6.777  0.00  0.00    +0.000 OA
ATOM     25  H   UNL     1      48.345   2.736   4.739  0.00  0.00    +0.000 HD
ATOM     26  H   UNL     1      47.039   3.773   5.191  0.00  0.00    +0.000 HD
ENDBRANCH  16  23
ENDBRANCH  15  19
ENDBRANCH   1  15
TORSDOF 5
ENDMDL
MODEL 6
REMARK VINA RESULT:    -8.062      3.926      7.351
REMARK INTER + INTRA:         -11.052
REMARK INTER:                 -10.405
REMARK INTRA:                  -0.647
REMARK UNBOUND:                -0.634
REMARK  Name = 
REMARK  5 active torsions:
REMARK  status: ('A' for Active; 'I' for Inactive)
REMARK    1  A    between atoms: C_2  and  C_4
REMARK    2  A    between atoms: C_7  and  O_8
REMARK    3  A    between atoms: O_8  and  C_9
REMARK    4  A    between atoms: C_9  and  C_10
REMARK    5  A    between atoms: C_14  and  C_15
REMARK                            x       y       z     vdW  Elec       q    Type
REMARK                         _______ _______ _______ _____ _____    ______ ____
ROOT
ATOM      1  C   UNL     1      44.016   6.602  11.459  0.00  0.00    +0.000 C 
ENDROOT
BRANCH   1   2
ATOM      2  C   UNL     1      43.971   5.164  11.015  0.00  0.00    +0.000 A 
ATOM      3  C   UNL     1      43.186   4.247  11.700  0.00  0.00    +0.000 A 
ATOM      4  N   UNL     1      43.135   2.931  11.407  0.00  0.00    +0.000 NA
ATOM      5  C   UNL     1      43.918   2.505  10.385  0.00  0.00    +0.000 A 
ATOM      6  C   UNL     1      44.756   3.318   9.617  0.00  0.00    +0.000 A 
ATOM      7  C   UNL     1      44.766   4.676   9.970  0.00  0.00    +0.000 A 
BRANCH   6   8
ATOM      8  C   UNL     1      45.578   2.792   8.506  0.00  0.00    +0.000 A 
ATOM      9  C   UNL     1      46.033   3.626   7.466  0.00  0.00    +0.000 A 
ATOM     10  C   UNL     1      46.826   3.134   6.421  0.00  0.00    +0.000 A 
ATOM     11  C   UNL     1      47.189   1.792   6.400  0.00  0.00    +0.000 A 
ATOM     12  C   UNL     1      46.753   0.957   7.416  0.00  0.00    +0.000 A 
ATOM     13  F   UNL     1      47.106  -0.336   7.407  0.00  0.00    +0.000 F 
ATOM     14  C   UNL     1      45.955   1.437   8.451  0.00  0.00    +0.000 A 
ENDBRANCH   6   8
ENDBRANCH   1   2
BRANCH   1  15
ATOM     15  O   UNL     1      45.232   7.225  11.030  0.00  0.00    +0.000 OA
BRANCH  15  19
ATOM     16  C   UNL     1      48.009   7.487  14.055  0.00  0.00    +0.000 A 
ATOM     17  C   UNL     1      47.929   6.321  13.293  0.00  0.00    +0.000 A 
ATOM     18  C   UNL     1      46.980   6.241  12.272  0.00  0.00    +0.000 A 
ATOM     19  C   UNL     1      46.149   7.331  12.054  0.00  0.00    +0.000 A 
ATOM     20  N   UNL     1      46.195   8.464  12.784  0.00  0.00    +0.000 NA
ATOM     21  C   UNL     1      47.116   8.514  13.776  0.00  0.00    +0.000 A 
BRANCH  16  23
ATOM     22  N   UNL     1      48.476   7.802  16.418  0.00  0.00    +0.000 N 
ATOM     23  C   UNL     1      48.978   7.683  15.153  0.00  0.00    +0.000 C 
ATOM     24  O   UNL     1      50.182   7.697  14.945  0.00  0.00    +0.000 OA
ATOM     25  H   UNL     1      49.160   7.815  17.166  0.00  0.00    +0.000 HD
ATOM     26  H   UNL     1      47.531   7.539  16.658  0.00  0.00    +0.000 HD
ENDBRANCH  16  23
ENDBRANCH  15  19
ENDBRANCH   1  15
TORSDOF 5
ENDMDL
MODEL 7
REMARK VINA RESULT:    -7.934      4.425      8.063
REMARK INTER + INTRA:         -10.887
REMARK INTER:                 -10.347
REMARK INTRA:                  -0.540
REMARK UNBOUND:                -0.634
REMARK  Name = 
REMARK  5 active torsions:
REMARK  status: ('A' for Active; 'I' for Inactive)
REMARK    1  A    between atoms: C_2  and  C_4
REMARK    2  A    between atoms: C_7  and  O_8
REMARK    3  A    between atoms: O_8  and  C_9
REMARK    4  A    between atoms: C_9  and  C_10
REMARK    5  A    between atoms: C_14  and  C_15
REMARK                            x       y       z     vdW  Elec       q    Type
REMARK                         _______ _______ _______ _____ _____    ______ ____
ROOT
ATOM      1  C   UNL     1      45.346   4.705  13.586  0.00  0.00    +0.000 C 
ENDROOT
BRANCH   1   2
ATOM      2  C   UNL     1      44.829   4.674  12.173  0.00  0.00    +0.000 A 
ATOM      3  C   UNL     1      43.614   5.269  11.861  0.00  0.00    +0.000 A 
ATOM      4  N   UNL     1      43.052   5.235  10.635  0.00  0.00    +0.000 NA
ATOM      5  C   UNL     1      43.730   4.561   9.673  0.00  0.00    +0.000 A 
ATOM      6  C   UNL     1      44.955   3.915   9.852  0.00  0.00    +0.000 A 
ATOM      7  C   UNL     1      45.489   3.985  11.147  0.00  0.00    +0.000 A 
BRANCH   6   8
ATOM      8  C   UNL     1      45.650   3.205   8.756  0.00  0.00    +0.000 A 
ATOM      9  C   UNL     1      46.218   3.900   7.670  0.00  0.00    +0.000 A 
ATOM     10  C   UNL     1      46.891   3.231   6.640  0.00  0.00    +0.000 A 
ATOM     11  C   UNL     1      47.019   1.847   6.679  0.00  0.00    +0.000 A 
ATOM     12  C   UNL     1      46.469   1.147   7.741  0.00  0.00    +0.000 A 
ATOM     13  F   UNL     1      46.595  -0.186   7.790  0.00  0.00    +0.000 F 
ATOM     14  C   UNL     1      45.788   1.805   8.763  0.00  0.00    +0.000 A 
ENDBRANCH   6   8
ENDBRANCH   1   2
BRANCH   1  15
ATOM     15  O   UNL     1      46.741   5.028  13.607  0.00  0.00    +0.000 OA
BRANCH  15  19
ATOM     16  C   UNL     1      48.455   4.348  17.286  0.00  0.00    +0.000 A 
ATOM     17  C   UNL     1      48.687   5.558  16.630  0.00  0.00    +0.000 A 
ATOM     18  C   UNL     1      48.104   5.777  15.380  0.00  0.00    +0.000 A 
ATOM     19  C   UNL     1      47.312   4.775  14.836  0.00  0.00    +0.000 A 
ATOM     20  N   UNL     1      47.083   3.591  15.440  0.00  0.00    +0.000 NA
ATOM     21  C   UNL     1      47.668   3.399  16.646  0.00  0.00    +0.000 A 
BRANCH  16  23
ATOM     22  N   UNL     1      48.324   3.112  19.373  0.00  0.00    +0.000 N 
ATOM     23  C   UNL     1      49.013   4.014  18.611  0.00  0.00    +0.000 C 
ATOM     24  O   UNL     1      50.071   4.491  18.997  0.00  0.00    +0.000 OA
ATOM     25  H   UNL     1      48.784   2.807  20.223  0.00  0.00    +0.000 HD
ATOM     26  H   UNL     1      47.607   2.512  18.992  0.00  0.00    +0.000 HD
ENDBRANCH  16  23
ENDBRANCH  15  19
ENDBRANCH   1  15
TORSDOF 5
ENDMDL
MODEL 8
REMARK VINA RESULT:    -7.618      2.173      2.855
REMARK INTER + INTRA:         -10.479
REMARK INTER:                  -9.709
REMARK INTRA:                  -0.771
REMARK UNBOUND:                -0.634
REMARK  Name = 
REMARK  5 active torsions:
REMARK  status: ('A' for Active; 'I' for Inactive)
REMARK    1  A    between atoms: C_2  and  C_4
REMARK    2  A    between atoms: C_7  and  O_8
REMARK    3  A    between atoms: O_8  and  C_9
REMARK    4  A    between atoms: C_9  and  C_10
REMARK    5  A    between atoms: C_14  and  C_15
REMARK                            x       y       z     vdW  Elec       q    Type
REMARK                         _______ _______ _______ _____ _____    ______ ____
ROOT
ATOM      1  C   UNL     1      45.361   4.918  11.777  0.00  0.00    +0.000 C 
ENDROOT
BRANCH   1   2
ATOM      2  C   UNL     1      45.883   6.299  12.073  0.00  0.00    +0.000 A 
ATOM      3  C   UNL     1      45.047   7.256  12.632  0.00  0.00    +0.000 A 
ATOM      4  N   UNL     1      45.416   8.531  12.873  0.00  0.00    +0.000 NA
ATOM      5  C   UNL     1      46.682   8.872  12.528  0.00  0.00    +0.000 A 
ATOM      6  C   UNL     1      47.623   8.012  11.956  0.00  0.00    +0.000 A 
ATOM      7  C   UNL     1      47.180   6.701  11.729  0.00  0.00    +0.000 A 
BRANCH   6   8
ATOM      8  C   UNL     1      48.994   8.445  11.612  0.00  0.00    +0.000 A 
ATOM      9  C   UNL     1      49.381   9.799  11.685  0.00  0.00    +0.000 A 
ATOM     10  C   UNL     1      50.684  10.209  11.375  0.00  0.00    +0.000 A 
ATOM     11  C   UNL     1      51.635   9.269  10.994  0.00  0.00    +0.000 A 
ATOM     12  C   UNL     1      51.274   7.933  10.919  0.00  0.00    +0.000 A 
ATOM     13  F   UNL     1      52.187   7.021  10.561  0.00  0.00    +0.000 F 
ATOM     14  C   UNL     1      49.977   7.520  11.214  0.00  0.00    +0.000 A 
ENDBRANCH   6   8
ENDBRANCH   1   2
BRANCH   1  15
ATOM     15  O   UNL     1      44.562   4.925  10.589  0.00  0.00    +0.000 OA
BRANCH  15  19
ATOM     16  C   UNL     1      46.326   2.839   7.511  0.00  0.00    +0.000 A 
ATOM     17  C   UNL     1      45.619   2.147   8.496  0.00  0.00    +0.000 A 
ATOM     18  C   UNL     1      45.028   2.865   9.538  0.00  0.00    +0.000 A 
ATOM     19  C   UNL     1      45.169   4.246   9.554  0.00  0.00    +0.000 A 
ATOM     20  N   UNL     1      45.857   4.938   8.623  0.00  0.00    +0.000 NA
ATOM     21  C   UNL     1      46.430   4.219   7.628  0.00  0.00    +0.000 A 
BRANCH  16  23
ATOM     22  N   UNL     1      47.241   2.956   5.264  0.00  0.00    +0.000 N 
ATOM     23  C   UNL     1      46.982   2.184   6.362  0.00  0.00    +0.000 C 
ATOM     24  O   UNL     1      47.321   1.010   6.404  0.00  0.00    +0.000 OA
ATOM     25  H   UNL     1      47.797   2.521   4.537  0.00  0.00    +0.000 HD
ATOM     26  H   UNL     1      47.218   3.965   5.289  0.00  0.00    +0.000 HD
ENDBRANCH  16  23
ENDBRANCH  15  19
ENDBRANCH   1  15
TORSDOF 5
ENDMDL
MODEL 9
REMARK VINA RESULT:    -7.030      4.492      8.239
REMARK INTER + INTRA:          -9.719
REMARK INTER:                  -9.042
REMARK INTRA:                  -0.678
REMARK UNBOUND:                -0.634
REMARK  Name = 
REMARK  5 active torsions:
REMARK  status: ('A' for Active; 'I' for Inactive)
REMARK    1  A    between atoms: C_2  and  C_4
REMARK    2  A    between atoms: C_7  and  O_8
REMARK    3  A    between atoms: O_8  and  C_9
REMARK    4  A    between atoms: C_9  and  C_10
REMARK    5  A    between atoms: C_14  and  C_15
REMARK                            x       y       z     vdW  Elec       q    Type
REMARK                         _______ _______ _______ _____ _____    ______ ____
ROOT
ATOM      1  C   UNL     1      48.163   7.499  13.815  0.00  0.00    +0.000 C 
ENDROOT
BRANCH   1   2
ATOM      2  C   UNL     1      46.974   7.424  12.894  0.00  0.00    +0.000 A 
ATOM      3  C   UNL     1      46.061   8.469  12.847  0.00  0.00    +0.000 A 
ATOM      4  N   UNL     1      44.941   8.456  12.096  0.00  0.00    +0.000 NA
ATOM      5  C   UNL     1      44.712   7.338  11.364  0.00  0.00    +0.000 A 
ATOM      6  C   UNL     1      45.543   6.216  11.323  0.00  0.00    +0.000 A 
ATOM      7  C   UNL     1      46.692   6.289  12.124  0.00  0.00    +0.000 A 
BRANCH   6   8
ATOM      8  C   UNL     1      45.241   5.030  10.493  0.00  0.00    +0.000 A 
ATOM      9  C   UNL     1      44.501   3.943  11.001  0.00  0.00    +0.000 A 
ATOM     10  C   UNL     1      44.200   2.826  10.212  0.00  0.00    +0.000 A 
ATOM     11  C   UNL     1      44.625   2.776   8.889  0.00  0.00    +0.000 A 
ATOM     12  C   UNL     1      45.352   3.836   8.372  0.00  0.00    +0.000 A 
ATOM     13  F   UNL     1      45.759   3.798   7.096  0.00  0.00    +0.000 F 
ATOM     14  C   UNL     1      45.666   4.945   9.154  0.00  0.00    +0.000 A 
ENDBRANCH   6   8
ENDBRANCH   1   2
BRANCH   1  15
ATOM     15  O   UNL     1      48.648   6.188  14.121  0.00  0.00    +0.000 OA
BRANCH  15  19
ATOM     16  C   UNL     1      48.358   5.405  18.151  0.00  0.00    +0.000 A 
ATOM     17  C   UNL     1      48.993   6.571  17.719  0.00  0.00    +0.000 A 
ATOM     18  C   UNL     1      49.089   6.824  16.350  0.00  0.00    +0.000 A 
ATOM     19  C   UNL     1      48.548   5.900  15.466  0.00  0.00    +0.000 A 
ATOM     20  N   UNL     1      47.942   4.760  15.855  0.00  0.00    +0.000 NA
ATOM     21  C   UNL     1      47.870   4.531  17.188  0.00  0.00    +0.000 A 
BRANCH  16  23
ATOM     22  N   UNL     1      48.539   3.770  19.939  0.00  0.00    +0.000 N 
ATOM     23  C   UNL     1      48.193   5.040  19.573  0.00  0.00    +0.000 C 
ATOM     24  O   UNL     1      47.802   5.853  20.398  0.00  0.00    +0.000 OA
ATOM     25  H   UNL     1      48.533   3.579  20.934  0.00  0.00    +0.000 HD
ATOM     26  H   UNL     1      49.101   3.168  19.355  0.00  0.00    +0.000 HD
ENDBRANCH  16  23
ENDBRANCH  15  19
ENDBRANCH   1  15
TORSDOF 5
ENDMDL
