MODEL 1
REMARK VINA RESULT:    -7.709      0.000      0.000
REMARK INTER + INTRA:         -11.279
REMARK INTER:                  -9.963
REMARK INTRA:                  -1.316
REMARK UNBOUND:                -1.316
REMARK  Name = 
REMARK  8 active torsions:
REMARK  status: ('A' for Active; 'I' for Inactive)
REMARK    1  A    between atoms: C_1  and  O_2
REMARK    2  A    between atoms: O_2  and  C_3
REMARK    3  A    between atoms: C_5  and  C_6
REMARK    4  A    between atoms: C_11  and  C_12
REMARK    5  A    between atoms: C_12  and  C_13
REMARK    6  A    between atoms: C_15  and  C_16
REMARK    7  A    between atoms: C_19  and  S_20
REMARK    8  A    between atoms: S_20  and  C_21
REMARK                            x       y       z     vdW  Elec       q    Type
REMARK                         _______ _______ _______ _____ _____    ______ ____
ROOT
ATOM      1  C   UNL     1      43.862   4.534  12.230  0.00  0.00    +0.000 C 
ATOM      2  C   UNL     1      42.731   5.331  12.868  0.00  0.00    +0.000 C 
ATOM      3  C   UNL     1      43.790   3.031  12.471  0.00  0.00    +0.000 C 
ATOM      4  C   UNL     1      43.456   3.559  11.107  0.00  0.00    +0.000 C 
ENDROOT
BRANCH   1  10
ATOM      5  C   UNL     1      45.764   6.337  11.849  0.00  0.00    +0.000 A 
ATOM      6  C   UNL     1      47.051   6.820  12.156  0.00  0.00    +0.000 A 
ATOM      7  C   UNL     1      47.873   6.210  13.110  0.00  0.00    +0.000 A 
ATOM      8  C   UNL     1      47.384   5.093  13.777  0.00  0.00    +0.000 A 
ATOM      9  C   UNL     1      46.112   4.586  13.448  0.00  0.00    +0.000 A 
ATOM     10  C   UNL     1      45.263   5.171  12.468  0.00  0.00    +0.000 A 
BRANCH   7  11
ATOM     11  C   UNL     1      49.214   6.837  13.342  0.00  0.00    +0.000 C 
ATOM     12  N   UNL     1      49.929   7.294  12.271  0.00  0.00    +0.000 N 
ATOM     13  O   UNL     1      49.683   6.956  14.465  0.00  0.00    +0.000 OA
ATOM     14  H   UNL     1      49.645   7.233  11.306  0.00  0.00    +0.000 HD
ATOM     15  H   UNL     1      50.824   7.708  12.479  0.00  0.00    +0.000 HD
ENDBRANCH   7  11
BRANCH   5  17
ATOM     16  C   UNL     1      44.621   8.367  11.393  0.00  0.00    +0.000 C 
ATOM     17  O   UNL     1      44.929   7.026  11.005  0.00  0.00    +0.000 OA
ENDBRANCH   5  17
ENDBRANCH   1  10
BRANCH   4  18
ATOM     18  C   UNL     1      44.271   3.195   9.879  0.00  0.00    +0.000 A 
ATOM     19  C   UNL     1      44.707   1.891   9.588  0.00  0.00    +0.000 A 
ATOM     20  C   UNL     1      45.576   1.624   8.523  0.00  0.00    +0.000 A 
ATOM     21  C   UNL     1      46.010   2.668   7.708  0.00  0.00    +0.000 A 
ATOM     22  C   UNL     1      45.475   3.945   7.866  0.00  0.00    +0.000 A 
ATOM     23  C   UNL     1      44.608   4.194   8.940  0.00  0.00    +0.000 A 
BRANCH  21  24
ATOM     24  S   UNL     1      47.489   2.456   6.739  0.00  0.00    +0.000 S 
ATOM     25  C   UNL     1      47.000   2.519   5.044  0.00  0.00    +0.000 C 
ATOM     26  O   UNL     1      48.321   3.616   7.004  0.00  0.00    +0.000 OA
ATOM     27  O   UNL     1      47.991   1.119   6.996  0.00  0.00    +0.000 OA
ENDBRANCH  21  24
ENDBRANCH   4  18
TORSDOF 5
ENDMDL
MODEL 2
REMARK VINA RESULT:    -6.534      3.251      6.871
REMARK INTER + INTRA:          -9.759
REMARK INTER:                  -8.807
REMARK INTRA:                  -0.952
REMARK UNBOUND:                -1.316
REMARK  Name = 
REMARK  8 active torsions:
REMARK  status: ('A' for Active; 'I' for Inactive)
REMARK    1  A    between atoms: C_1  and  O_2
REMARK    2  A    between atoms: O_2  and  C_3
REMARK    3  A    between atoms: C_5  and  C_6
REMARK    4  A    between atoms: C_11  and  C_12
REMARK    5  A    between atoms: C_12  and  C_13
REMARK    6  A    between atoms: C_15  and  C_16
REMARK    7  A    between atoms: C_19  and  S_20
REMARK    8  A    between atoms: S_20  and  C_21
REMARK                            x       y       z     vdW  Elec       q    Type
REMARK                         _______ _______ _______ _____ _____    ______ ____
ROOT
ATOM      1  C   UNL     1      44.108   5.949  11.234  0.00  0.00    +0.000 C 
ATOM      2  C   UNL     1      42.612   6.162  11.041  0.00  0.00    +0.000 C 
ATOM      3  C   UNL     1      44.933   7.230  11.248  0.00  0.00    +0.000 C 
ATOM      4  C   UNL     1      44.709   6.503  12.541  0.00  0.00    +0.000 C 
ENDROOT
BRANCH   1  10
ATOM      5  C   UNL     1      44.264   3.460  10.343  0.00  0.00    +0.000 A 
ATOM      6  C   UNL     1      44.856   2.521   9.475  0.00  0.00    +0.000 A 
ATOM      7  C   UNL     1      45.839   2.875   8.545  0.00  0.00    +0.000 A 
ATOM      8  C   UNL     1      46.228   4.208   8.480  0.00  0.00    +0.000 A 
ATOM      9  C   UNL     1      45.664   5.144   9.369  0.00  0.00    +0.000 A 
ATOM     10  C   UNL     1      44.680   4.809  10.340  0.00  0.00    +0.000 A 
BRANCH   7  11
ATOM     11  C   UNL     1      46.374   1.776   7.680  0.00  0.00    +0.000 C 
ATOM     12  N   UNL     1      46.832   2.077   6.429  0.00  0.00    +0.000 N 
ATOM     13  O   UNL     1      46.417   0.616   8.065  0.00  0.00    +0.000 OA
ATOM     14  H   UNL     1      46.829   2.992   6.007  0.00  0.00    +0.000 HD
ATOM     15  H   UNL     1      47.182   1.304   5.885  0.00  0.00    +0.000 HD
ENDBRANCH   7  11
BRANCH   5  17
ATOM     16  C   UNL     1      43.565   2.495  12.396  0.00  0.00    +0.000 C 
ATOM     17  O   UNL     1      43.214   3.113  11.156  0.00  0.00    +0.000 OA
ENDBRANCH   5  17
ENDBRANCH   1  10
BRANCH   4  18
ATOM     18  C   UNL     1      45.855   5.908  13.340  0.00  0.00    +0.000 A 
ATOM     19  C   UNL     1      45.859   4.596  13.843  0.00  0.00    +0.000 A 
ATOM     20  C   UNL     1      46.871   4.136  14.695  0.00  0.00    +0.000 A 
ATOM     21  C   UNL     1      47.920   4.985  15.042  0.00  0.00    +0.000 A 
ATOM     22  C   UNL     1      48.035   6.236  14.438  0.00  0.00    +0.000 A 
ATOM     23  C   UNL     1      47.010   6.680  13.590  0.00  0.00    +0.000 A 
BRANCH  21  24
ATOM     24  S   UNL     1      48.877   4.631  16.502  0.00  0.00    +0.000 S 
ATOM     25  C   UNL     1      47.839   4.975  17.887  0.00  0.00    +0.000 C 
ATOM     26  O   UNL     1      49.134   3.202  16.484  0.00  0.00    +0.000 OA
ATOM     27  O   UNL     1      49.980   5.574  16.540  0.00  0.00    +0.000 OA
ENDBRANCH  21  24
ENDBRANCH   4  18
TORSDOF 5
ENDMDL
MODEL 3
REMARK VINA RESULT:    -6.098      2.992      6.739
REMARK INTER + INTRA:          -9.196
REMARK INTER:                  -8.781
REMARK INTRA:                  -0.415
REMARK UNBOUND:                -1.316
REMARK  Name = 
REMARK  8 active torsions:
REMARK  status: ('A' for Active; 'I' for Inactive)
REMARK    1  A    between atoms: C_1  and  O_2
REMARK    2  A    between atoms: O_2  and  C_3
REMARK    3  A    between atoms: C_5  and  C_6
REMARK    4  A    between atoms: C_11  and  C_12
REMARK    5  A    between atoms: C_12  and  C_13
REMARK    6  A    between atoms: C_15  and  C_16
REMARK    7  A    between atoms: C_19  and  S_20
REMARK    8  A    between atoms: S_20  and  C_21
REMARK                            x       y       z     vdW  Elec       q    Type
REMARK                         _______ _______ _______ _____ _____    ______ ____
ROOT
ATOM      1  C   UNL     1      43.766   5.898  11.417  0.00  0.00    +0.000 C 
ATOM      2  C   UNL     1      42.337   5.500  11.762  0.00  0.00    +0.000 C 
ATOM      3  C   UNL     1      43.954   7.379  11.111  0.00  0.00    +0.000 C 
ATOM      4  C   UNL     1      44.468   6.841  12.414  0.00  0.00    +0.000 C 
ENDROOT
BRANCH   1  10
ATOM      5  C   UNL     1      44.172   3.548  10.265  0.00  0.00    +0.000 A 
ATOM      6  C   UNL     1      44.843   2.776   9.297  0.00  0.00    +0.000 A 
ATOM      7  C   UNL     1      45.761   3.331   8.399  0.00  0.00    +0.000 A 
ATOM      8  C   UNL     1      46.001   4.699   8.471  0.00  0.00    +0.000 A 
ATOM      9  C   UNL     1      45.359   5.468   9.460  0.00  0.00    +0.000 A 
ATOM     10  C   UNL     1      44.439   4.928  10.400  0.00  0.00    +0.000 A 
BRANCH   7  11
ATOM     11  C   UNL     1      46.392   2.393   7.416  0.00  0.00    +0.000 C 
ATOM     12  N   UNL     1      46.778   1.152   7.835  0.00  0.00    +0.000 N 
ATOM     13  O   UNL     1      46.567   2.708   6.247  0.00  0.00    +0.000 OA
ATOM     14  H   UNL     1      46.694   0.797   8.774  0.00  0.00    +0.000 HD
ATOM     15  H   UNL     1      47.197   0.558   7.137  0.00  0.00    +0.000 HD
ENDBRANCH   7  11
BRANCH   5  17
ATOM     16  C   UNL     1      43.628   2.313  12.218  0.00  0.00    +0.000 C 
ATOM     17  O   UNL     1      43.184   3.004  11.048  0.00  0.00    +0.000 OA
ENDBRANCH   5  17
ENDBRANCH   1  10
BRANCH   4  18
ATOM     18  C   UNL     1      45.945   6.857  12.767  0.00  0.00    +0.000 A 
ATOM     19  C   UNL     1      46.545   5.956  13.662  0.00  0.00    +0.000 A 
ATOM     20  C   UNL     1      47.878   6.097  14.068  0.00  0.00    +0.000 A 
ATOM     21  C   UNL     1      48.648   7.141  13.558  0.00  0.00    +0.000 A 
ATOM     22  C   UNL     1      48.137   7.957  12.550  0.00  0.00    +0.000 A 
ATOM     23  C   UNL     1      46.799   7.803  12.159  0.00  0.00    +0.000 A 
BRANCH  21  24
ATOM     24  S   UNL     1      50.106   7.656  14.442  0.00  0.00    +0.000 S 
ATOM     25  C   UNL     1      49.664   9.098  15.358  0.00  0.00    +0.000 C 
ATOM     26  O   UNL     1      50.401   6.599  15.392  0.00  0.00    +0.000 OA
ATOM     27  O   UNL     1      51.096   8.053  13.457  0.00  0.00    +0.000 OA
ENDBRANCH  21  24
ENDBRANCH   4  18
TORSDOF 5
ENDMDL
MODEL 4
REMARK VINA RESULT:    -6.043      4.109      6.714
REMARK INTER + INTRA:          -9.125
REMARK INTER:                  -7.861
REMARK INTRA:                  -1.264
REMARK UNBOUND:                -1.316
REMARK  Name = 
REMARK  8 active torsions:
REMARK  status: ('A' for Active; 'I' for Inactive)
REMARK    1  A    between atoms: C_1  and  O_2
REMARK    2  A    between atoms: O_2  and  C_3
REMARK    3  A    between atoms: C_5  and  C_6
REMARK    4  A    between atoms: C_11  and  C_12
REMARK    5  A    between atoms: C_12  and  C_13
REMARK    6  A    between atoms: C_15  and  C_16
REMARK    7  A    between atoms: C_19  and  S_20
REMARK    8  A    between atoms: S_20  and  C_21
REMARK                            x       y       z     vdW  Elec       q    Type
REMARK                         _______ _______ _______ _____ _____    ______ ____
ROOT
ATOM      1  C   UNL     1      49.284   7.639  14.760  0.00  0.00    +0.000 C 
ATOM      2  C   UNL     1      50.800   7.736  14.657  0.00  0.00    +0.000 C 
ATOM      3  C   UNL     1      48.527   8.690  13.956  0.00  0.00    +0.000 C 
ATOM      4  C   UNL     1      48.538   7.273  13.461  0.00  0.00    +0.000 C 
ENDROOT
BRANCH   1  10
ATOM      5  C   UNL     1      48.737   6.228  16.932  0.00  0.00    +0.000 A 
ATOM      6  C   UNL     1      48.270   6.184  18.261  0.00  0.00    +0.000 A 
ATOM      7  C   UNL     1      47.880   7.334  18.956  0.00  0.00    +0.000 A 
ATOM      8  C   UNL     1      47.970   8.557  18.301  0.00  0.00    +0.000 A 
ATOM      9  C   UNL     1      48.402   8.600  16.962  0.00  0.00    +0.000 A 
ATOM     10  C   UNL     1      48.785   7.447  16.223  0.00  0.00    +0.000 A 
BRANCH   7  11
ATOM     11  C   UNL     1      47.414   7.141  20.367  0.00  0.00    +0.000 C 
ATOM     12  N   UNL     1      47.122   5.881  20.805  0.00  0.00    +0.000 N 
ATOM     13  O   UNL     1      47.293   8.081  21.139  0.00  0.00    +0.000 OA
ATOM     14  H   UNL     1      47.173   5.040  20.251  0.00  0.00    +0.000 HD
ATOM     15  H   UNL     1      46.814   5.802  21.761  0.00  0.00    +0.000 HD
ENDBRANCH   7  11
BRANCH   5  17
ATOM     16  C   UNL     1      49.127   3.889  17.061  0.00  0.00    +0.000 C 
ATOM     17  O   UNL     1      49.233   5.106  16.317  0.00  0.00    +0.000 OA
ENDBRANCH   5  17
ENDBRANCH   1  10
BRANCH   4  18
ATOM     18  C   UNL     1      47.267   6.451  13.342  0.00  0.00    +0.000 A 
ATOM     19  C   UNL     1      47.191   5.080  13.638  0.00  0.00    +0.000 A 
ATOM     20  C   UNL     1      46.037   4.331  13.378  0.00  0.00    +0.000 A 
ATOM     21  C   UNL     1      44.918   4.957  12.832  0.00  0.00    +0.000 A 
ATOM     22  C   UNL     1      44.899   6.341  12.675  0.00  0.00    +0.000 A 
ATOM     23  C   UNL     1      46.065   7.074  12.938  0.00  0.00    +0.000 A 
BRANCH  21  24
ATOM     24  S   UNL     1      43.688   3.968  12.006  0.00  0.00    +0.000 S 
ATOM     25  C   UNL     1      44.379   3.489  10.454  0.00  0.00    +0.000 C 
ATOM     26  O   UNL     1      43.523   2.768  12.807  0.00  0.00    +0.000 OA
ATOM     27  O   UNL     1      42.552   4.827  11.729  0.00  0.00    +0.000 OA
ENDBRANCH  21  24
ENDBRANCH   4  18
TORSDOF 5
ENDMDL
MODEL 5
REMARK VINA RESULT:    -5.978      3.667      7.249
REMARK INTER + INTRA:          -9.041
REMARK INTER:                  -8.433
REMARK INTRA:                  -0.608
REMARK UNBOUND:                -1.316
REMARK  Name = 
REMARK  8 active torsions:
REMARK  status: ('A' for Active; 'I' for Inactive)
REMARK    1  A    between atoms: C_1  and  O_2
REMARK    2  A    between atoms: O_2  and  C_3
REMARK    3  A    between atoms: C_5  and  C_6
REMARK    4  A    between atoms: C_11  and  C_12
REMARK    5  A    between atoms: C_12  and  C_13
REMARK    6  A    between atoms: C_15  and  C_16
REMARK    7  A    between atoms: C_19  and  S_20
REMARK    8  A    between atoms: S_20  and  C_21
REMARK                            x       y       z     vdW  Elec       q    Type
REMARK                         _______ _______ _______ _____ _____    ______ ____
ROOT
ATOM      1  C   UNL     1      46.179   7.726  12.078  0.00  0.00    +0.000 C 
ATOM      2  C   UNL     1      45.268   8.923  11.839  0.00  0.00    +0.000 C 
ATOM      3  C   UNL     1      47.669   8.042  12.018  0.00  0.00    +0.000 C 
ATOM      4  C   UNL     1      47.041   7.774  13.354  0.00  0.00    +0.000 C 
ENDROOT
BRANCH   1  10
ATOM      5  C   UNL     1      44.733   5.549  11.649  0.00  0.00    +0.000 A 
ATOM      6  C   UNL     1      44.425   4.443  10.833  0.00  0.00    +0.000 A 
ATOM      7  C   UNL     1      45.059   4.217   9.607  0.00  0.00    +0.000 A 
ATOM      8  C   UNL     1      46.019   5.131   9.188  0.00  0.00    +0.000 A 
ATOM      9  C   UNL     1      46.355   6.218  10.017  0.00  0.00    +0.000 A 
ATOM     10  C   UNL     1      45.744   6.462  11.278  0.00  0.00    +0.000 A 
BRANCH   7  11
ATOM     11  C   UNL     1      44.625   3.007   8.838  0.00  0.00    +0.000 C 
ATOM     12  N   UNL     1      44.289   1.871   9.519  0.00  0.00    +0.000 N 
ATOM     13  O   UNL     1      44.557   3.009   7.617  0.00  0.00    +0.000 OA
ATOM     14  H   UNL     1      44.323   1.755  10.519  0.00  0.00    +0.000 HD
ATOM     15  H   UNL     1      44.003   1.084   8.958  0.00  0.00    +0.000 HD
ENDBRANCH   7  11
BRANCH   5  17
ATOM     16  C   UNL     1      42.907   4.944  13.040  0.00  0.00    +0.000 C 
ATOM     17  O   UNL     1      44.009   5.818  12.784  0.00  0.00    +0.000 OA
ENDBRANCH   5  17
ENDBRANCH   1  10
BRANCH   4  18
ATOM     18  C   UNL     1      47.457   6.596  14.217  0.00  0.00    +0.000 A 
ATOM     19  C   UNL     1      47.001   5.281  14.019  0.00  0.00    +0.000 A 
ATOM     20  C   UNL     1      47.295   4.254  14.923  0.00  0.00    +0.000 A 
ATOM     21  C   UNL     1      48.081   4.524  16.042  0.00  0.00    +0.000 A 
ATOM     22  C   UNL     1      48.682   5.772  16.188  0.00  0.00    +0.000 A 
ATOM     23  C   UNL     1      48.373   6.790  15.274  0.00  0.00    +0.000 A 
BRANCH  21  24
ATOM     24  S   UNL     1      48.008   3.422  17.440  0.00  0.00    +0.000 S 
ATOM     25  C   UNL     1      48.315   4.401  18.876  0.00  0.00    +0.000 C 
ATOM     26  O   UNL     1      46.638   2.945  17.512  0.00  0.00    +0.000 OA
ATOM     27  O   UNL     1      49.106   2.482  17.312  0.00  0.00    +0.000 OA
ENDBRANCH  21  24
ENDBRANCH   4  18
TORSDOF 5
ENDMDL
MODEL 6
REMARK VINA RESULT:    -5.938      3.743      6.274
REMARK INTER + INTRA:          -8.990
REMARK INTER:                  -8.171
REMARK INTRA:                  -0.819
REMARK UNBOUND:                -1.316
REMARK  Name = 
REMARK  8 active torsions:
REMARK  status: ('A' for Active; 'I' for Inactive)
REMARK    1  A    between atoms: C_1  and  O_2
REMARK    2  A    between atoms: O_2  and  C_3
REMARK    3  A    between atoms: C_5  and  C_6
REMARK    4  A    between atoms: C_11  and  C_12
REMARK    5  A    between atoms: C_12  and  C_13
REMARK    6  A    between atoms: C_15  and  C_16
REMARK    7  A    between atoms: C_19  and  S_20
REMARK    8  A    between atoms: S_20  and  C_21
REMARK                            x       y       z     vdW  Elec       q    Type
REMARK                         _______ _______ _______ _____ _____    ______ ____
ROOT
ATOM      1  C   UNL     1      49.018   7.780  14.210  0.00  0.00    +0.000 C 
ATOM      2  C   UNL     1      50.513   8.059  14.146  0.00  0.00    +0.000 C 
ATOM      3  C   UNL     1      48.146   9.023  14.338  0.00  0.00    +0.000 C 
ATOM      4  C   UNL     1      48.179   8.297  13.025  0.00  0.00    +0.000 C 
ENDROOT
BRANCH   1  10
ATOM      5  C   UNL     1      48.986   6.560  16.561  0.00  0.00    +0.000 A 
ATOM      6  C   UNL     1      48.594   5.458  17.346  0.00  0.00    +0.000 A 
ATOM      7  C   UNL     1      47.830   4.405  16.833  0.00  0.00    +0.000 A 
ATOM      8  C   UNL     1      47.443   4.467  15.499  0.00  0.00    +0.000 A 
ATOM      9  C   UNL     1      47.862   5.549  14.701  0.00  0.00    +0.000 A 
ATOM     10  C   UNL     1      48.657   6.623  15.190  0.00  0.00    +0.000 A 
BRANCH   7  11
ATOM     11  C   UNL     1      47.477   3.304  17.785  0.00  0.00    +0.000 C 
ATOM     12  N   UNL     1      48.221   3.139  18.918  0.00  0.00    +0.000 N 
ATOM     13  O   UNL     1      46.536   2.550  17.577  0.00  0.00    +0.000 OA
ATOM     14  H   UNL     1      49.023   3.692  19.179  0.00  0.00    +0.000 HD
ATOM     15  H   UNL     1      47.944   2.386  19.527  0.00  0.00    +0.000 HD
ENDBRANCH   7  11
BRANCH   5  17
ATOM     16  C   UNL     1      48.811   8.497  17.922  0.00  0.00    +0.000 C 
ATOM     17  O   UNL     1      49.625   7.639  17.119  0.00  0.00    +0.000 OA
ENDBRANCH   5  17
ENDBRANCH   1  10
BRANCH   4  18
ATOM     18  C   UNL     1      46.941   7.646  12.433  0.00  0.00    +0.000 A 
ATOM     19  C   UNL     1      45.631   7.922  12.861  0.00  0.00    +0.000 A 
ATOM     20  C   UNL     1      44.532   7.196  12.388  0.00  0.00    +0.000 A 
ATOM     21  C   UNL     1      44.726   6.185  11.449  0.00  0.00    +0.000 A 
ATOM     22  C   UNL     1      45.984   5.990  10.883  0.00  0.00    +0.000 A 
ATOM     23  C   UNL     1      47.074   6.725  11.372  0.00  0.00    +0.000 A 
BRANCH  21  24
ATOM     24  S   UNL     1      43.479   4.927  11.258  0.00  0.00    +0.000 S 
ATOM     25  C   UNL     1      43.895   3.625  12.375  0.00  0.00    +0.000 C 
ATOM     26  O   UNL     1      42.232   5.517  11.710  0.00  0.00    +0.000 OA
ATOM     27  O   UNL     1      43.595   4.398   9.912  0.00  0.00    +0.000 OA
ENDBRANCH  21  24
ENDBRANCH   4  18
TORSDOF 5
ENDMDL
MODEL 7
REMARK VINA RESULT:    -5.274      4.201      7.234
REMARK INTER + INTRA:          -8.131
REMARK INTER:                  -6.818
REMARK INTRA:                  -1.314
REMARK UNBOUND:                -1.316
REMARK  Name = 
REMARK  8 active torsions:
REMARK  status: ('A' for Active; 'I' for Inactive)
REMARK    1  A    between atoms: C_1  and  O_2
REMARK    2  A    between atoms: O_2  and  C_3
REMARK    3  A    between atoms: C_5  and  C_6
REMARK    4  A    between atoms: C_11  and  C_12
REMARK    5  A    between atoms: C_12  and  C_13
REMARK    6  A    between atoms: C_15  and  C_16
REMARK    7  A    between atoms: C_19  and  S_20
REMARK    8  A    between atoms: S_20  and  C_21
REMARK                            x       y       z     vdW  Elec       q    Type
REMARK                         _______ _______ _______ _____ _____    ______ ____
ROOT
ATOM      1  C   UNL     1      49.507   9.109  14.884  0.00  0.00    +0.000 C 
ATOM      2  C   UNL     1      50.997   9.422  14.922  0.00  0.00    +0.000 C 
ATOM      3  C   UNL     1      48.642  10.217  14.295  0.00  0.00    +0.000 C 
ATOM      4  C   UNL     1      48.876   8.978  13.483  0.00  0.00    +0.000 C 
ENDROOT
BRANCH   1  10
ATOM      5  C   UNL     1      49.295   7.229  16.737  0.00  0.00    +0.000 A 
ATOM      6  C   UNL     1      48.758   6.797  17.966  0.00  0.00    +0.000 A 
ATOM      7  C   UNL     1      47.933   7.609  18.750  0.00  0.00    +0.000 A 
ATOM      8  C   UNL     1      47.649   8.891  18.291  0.00  0.00    +0.000 A 
ATOM      9  C   UNL     1      48.156   9.314  17.048  0.00  0.00    +0.000 A 
ATOM     10  C   UNL     1      48.979   8.503  16.218  0.00  0.00    +0.000 A 
BRANCH   7  11
ATOM     11  C   UNL     1      47.441   7.024  20.038  0.00  0.00    +0.000 C 
ATOM     12  N   UNL     1      47.031   5.721  20.063  0.00  0.00    +0.000 N 
ATOM     13  O   UNL     1      47.401   7.679  21.070  0.00  0.00    +0.000 OA
ATOM     14  H   UNL     1      47.009   5.097  19.272  0.00  0.00    +0.000 HD
ATOM     15  H   UNL     1      46.710   5.373  20.953  0.00  0.00    +0.000 HD
ENDBRANCH   7  11
BRANCH   5  17
ATOM     16  C   UNL     1      51.164   5.769  16.850  0.00  0.00    +0.000 C 
ATOM     17  O   UNL     1      50.203   6.463  16.050  0.00  0.00    +0.000 OA
ENDBRANCH   5  17
ENDBRANCH   1  10
BRANCH   4  18
ATOM     18  C   UNL     1      47.742   8.053  13.078  0.00  0.00    +0.000 A 
ATOM     19  C   UNL     1      46.398   8.455  12.990  0.00  0.00    +0.000 A 
ATOM     20  C   UNL     1      45.368   7.537  12.754  0.00  0.00    +0.000 A 
ATOM     21  C   UNL     1      45.672   6.189  12.575  0.00  0.00    +0.000 A 
ATOM     22  C   UNL     1      47.001   5.778  12.496  0.00  0.00    +0.000 A 
ATOM     23  C   UNL     1      48.019   6.711  12.739  0.00  0.00    +0.000 A 
BRANCH  21  24
ATOM     24  S   UNL     1      44.395   4.971  12.822  0.00  0.00    +0.000 S 
ATOM     25  C   UNL     1      43.947   4.373  11.223  0.00  0.00    +0.000 C 
ATOM     26  O   UNL     1      45.012   3.876  13.549  0.00  0.00    +0.000 OA
ATOM     27  O   UNL     1      43.239   5.656  13.369  0.00  0.00    +0.000 OA
ENDBRANCH  21  24
ENDBRANCH   4  18
TORSDOF 5
ENDMDL
MODEL 8
REMARK VINA RESULT:    -4.987      4.044      6.828
REMARK INTER + INTRA:          -7.760
REMARK INTER:                  -6.842
REMARK INTRA:                  -0.919
REMARK UNBOUND:                -1.316
REMARK  Name = 
REMARK  8 active torsions:
REMARK  status: ('A' for Active; 'I' for Inactive)
REMARK    1  A    between atoms: C_1  and  O_2
REMARK    2  A    between atoms: O_2  and  C_3
REMARK    3  A    between atoms: C_5  and  C_6
REMARK    4  A    between atoms: C_11  and  C_12
REMARK    5  A    between atoms: C_12  and  C_13
REMARK    6  A    between atoms: C_15  and  C_16
REMARK    7  A    between atoms: C_19  and  S_20
REMARK    8  A    between atoms: S_20  and  C_21
REMARK                            x       y       z     vdW  Elec       q    Type
REMARK                         _______ _______ _______ _____ _____    ______ ____
ROOT
ATOM      1  C   UNL     1      49.400   8.723  14.575  0.00  0.00    +0.000 C 
ATOM      2  C   UNL     1      50.879   9.072  14.471  0.00  0.00    +0.000 C 
ATOM      3  C   UNL     1      48.454   9.881  14.282  0.00  0.00    +0.000 C 
ATOM      4  C   UNL     1      48.593   8.788  13.263  0.00  0.00    +0.000 C 
ENDROOT
BRANCH   1  10
ATOM      5  C   UNL     1      48.621   8.432  17.089  0.00  0.00    +0.000 A 
ATOM      6  C   UNL     1      48.334   7.583  18.176  0.00  0.00    +0.000 A 
ATOM      7  C   UNL     1      48.419   6.190  18.081  0.00  0.00    +0.000 A 
ATOM      8  C   UNL     1      48.792   5.638  16.861  0.00  0.00    +0.000 A 
ATOM      9  C   UNL     1      49.114   6.485  15.783  0.00  0.00    +0.000 A 
ATOM     10  C   UNL     1      49.058   7.904  15.855  0.00  0.00    +0.000 A 
BRANCH   7  11
ATOM     11  C   UNL     1      48.075   5.410  19.313  0.00  0.00    +0.000 C 
ATOM     12  N   UNL     1      46.914   5.690  19.976  0.00  0.00    +0.000 N 
ATOM     13  O   UNL     1      48.803   4.524  19.739  0.00  0.00    +0.000 OA
ATOM     14  H   UNL     1      46.251   6.406  19.722  0.00  0.00    +0.000 HD
ATOM     15  H   UNL     1      46.727   5.138  20.798  0.00  0.00    +0.000 HD
ENDBRANCH   7  11
BRANCH   5  17
ATOM     16  C   UNL     1      47.824  10.252  18.389  0.00  0.00    +0.000 C 
ATOM     17  O   UNL     1      48.407   9.786  17.170  0.00  0.00    +0.000 OA
ENDBRANCH   5  17
ENDBRANCH   1  10
BRANCH   4  18
ATOM     18  C   UNL     1      47.425   7.902  12.868  0.00  0.00    +0.000 A 
ATOM     19  C   UNL     1      46.080   8.298  12.951  0.00  0.00    +0.000 A 
ATOM     20  C   UNL     1      45.031   7.402  12.712  0.00  0.00    +0.000 A 
ATOM     21  C   UNL     1      45.316   6.084  12.360  0.00  0.00    +0.000 A 
ATOM     22  C   UNL     1      46.632   5.697  12.112  0.00  0.00    +0.000 A 
ATOM     23  C   UNL     1      47.669   6.608  12.359  0.00  0.00    +0.000 A 
BRANCH  21  24
ATOM     24  S   UNL     1      44.068   4.834  12.590  0.00  0.00    +0.000 S 
ATOM     25  C   UNL     1      43.382   4.501  10.998  0.00  0.00    +0.000 C 
ATOM     26  O   UNL     1      44.764   3.639  13.032  0.00  0.00    +0.000 OA
ATOM     27  O   UNL     1      43.015   5.413  13.404  0.00  0.00    +0.000 OA
ENDBRANCH  21  24
ENDBRANCH   4  18
TORSDOF 5
ENDMDL
