MODEL 1
REMARK VINA RESULT:    -8.006      0.000      0.000
REMARK INTER + INTRA:         -11.219
REMARK INTER:                 -10.815
REMARK INTRA:                  -0.405
REMARK UNBOUND:                -0.405
REMARK  Name = 
REMARK  6 active torsions:
REMARK  status: ('A' for Active; 'I' for Inactive)
REMARK    1  A    between atoms: C_2  and  C_25
REMARK    2  A    between atoms: N_3  and  C_4
REMARK    3  A    between atoms: C_4  and  C_5
REMARK    4  A    between atoms: C_8  and  C_9
REMARK    5  A    between atoms: C_9  and  N_10
REMARK    6  A    between atoms: C_11  and  C_13
REMARK                            x       y       z     vdW  Elec       q    Type
REMARK                         _______ _______ _______ _____ _____    ______ ____
ROOT
ATOM      1  C   UNL     1      44.625   5.666  11.350  0.00  0.00    +0.000 A 
ATOM      2  C   UNL     1      45.707   5.116  12.053  0.00  0.00    +0.000 A 
ATOM      3  C   UNL     1      46.570   5.934  12.787  0.00  0.00    +0.000 A 
ATOM      4  C   UNL     1      46.358   7.318  12.853  0.00  0.00    +0.000 A 
ATOM      5  C   UNL     1      45.282   7.868  12.144  0.00  0.00    +0.000 A 
ATOM      6  C   UNL     1      44.417   7.051  11.411  0.00  0.00    +0.000 A 
ENDROOT
BRANCH   1   7
ATOM      7  C   UNL     1      43.683   4.784  10.573  0.00  0.00    +0.000 C 
BRANCH   7  10
ATOM      8  O   UNL     1      45.540   5.356   8.584  0.00  0.00    +0.000 OA
ATOM      9  C   UNL     1      45.317   4.175   8.834  0.00  0.00    +0.000 C 
ATOM     10  N   UNL     1      44.402   3.805   9.797  0.00  0.00    +0.000 N 
ATOM     11  H   UNL     1      44.263   2.820   9.989  0.00  0.00    +0.000 HD
BRANCH   9  12
ATOM     12  C   UNL     1      45.999   3.081   8.150  0.00  0.00    +0.000 A 
ATOM     13  C   UNL     1      45.869   1.727   8.414  0.00  0.00    +0.000 A 
ATOM     14  C   UNL     1      46.659   0.922   7.549  0.00  0.00    +0.000 A 
ATOM     15 CL   UNL     1      46.684  -0.784   7.631  0.00  0.00    +0.000 Cl
ATOM     16  C   UNL     1      47.383   1.676   6.656  0.00  0.00    +0.000 A 
ATOM     17  S   UNL     1      47.102   3.349   6.862  0.00  0.00    +0.000 S 
ENDBRANCH   9  12
ENDBRANCH   7  10
ENDBRANCH   1   7
BRANCH   4  18
ATOM     18  C   UNL     1      47.282   8.209  13.645  0.00  0.00    +0.000 C 
BRANCH  18  19
ATOM     19  N   UNL     1      47.726   7.567  14.856  0.00  0.00    +0.000 N 
ATOM     20  C   UNL     1      48.973   7.000  14.939  0.00  0.00    +0.000 C 
ATOM     21  O   UNL     1      49.774   7.055  14.009  0.00  0.00    +0.000 OA
ATOM     22  H   UNL     1      47.013   7.303  15.530  0.00  0.00    +0.000 HD
BRANCH  20  23
ATOM     23  C   UNL     1      49.332   6.380  16.221  0.00  0.00    +0.000 A 
ATOM     24  C   UNL     1      50.374   6.907  16.972  0.00  0.00    +0.000 A 
ATOM     25  S   UNL     1      50.619   6.108  18.460  0.00  0.00    +0.000 S 
ATOM     26  C   UNL     1      49.377   4.994  18.127  0.00  0.00    +0.000 A 
ATOM     27  N   UNL     1      49.075   4.001  19.006  0.00  0.00    +0.000 NA
ATOM     28  C   UNL     1      48.136   3.207  18.612  0.00  0.00    +0.000 A 
ATOM     29  N   UNL     1      47.469   3.319  17.419  0.00  0.00    +0.000 N 
ATOM     30  C   UNL     1      47.720   4.323  16.514  0.00  0.00    +0.000 A 
ATOM     31  O   UNL     1      47.077   4.418  15.473  0.00  0.00    +0.000 OA
ATOM     32  C   UNL     1      48.774   5.238  16.906  0.00  0.00    +0.000 A 
ATOM     33  H   UNL     1      46.740   2.667  17.172  0.00  0.00    +0.000 HD
ENDBRANCH  20  23
ENDBRANCH  18  19
ENDBRANCH   4  18
TORSDOF 6
ENDMDL
MODEL 2
REMARK VINA RESULT:    -7.850      1.019      1.396
REMARK INTER + INTRA:         -11.008
REMARK INTER:                  -9.997
REMARK INTRA:                  -1.011
REMARK UNBOUND:                -0.405
REMARK  Name = 
REMARK  6 active torsions:
REMARK  status: ('A' for Active; 'I' for Inactive)
REMARK    1  A    between atoms: C_2  and  C_25
REMARK    2  A    between atoms: N_3  and  C_4
REMARK    3  A    between atoms: C_4  and  C_5
REMARK    4  A    between atoms: C_8  and  C_9
REMARK    5  A    between atoms: C_9  and  N_10
REMARK    6  A    between atoms: C_11  and  C_13
REMARK                            x       y       z     vdW  Elec       q    Type
REMARK                         _______ _______ _______ _____ _____    ______ ____
ROOT
ATOM      1  C   UNL     1      45.233   6.805  11.546  0.00  0.00    +0.000 A 
ATOM      2  C   UNL     1      44.921   8.078  12.042  0.00  0.00    +0.000 A 
ATOM      3  C   UNL     1      45.791   8.737  12.916  0.00  0.00    +0.000 A 
ATOM      4  C   UNL     1      47.003   8.144  13.296  0.00  0.00    +0.000 A 
ATOM      5  C   UNL     1      47.311   6.868  12.806  0.00  0.00    +0.000 A 
ATOM      6  C   UNL     1      46.442   6.211  11.931  0.00  0.00    +0.000 A 
ENDROOT
BRANCH   1   7
ATOM      7  C   UNL     1      44.305   6.102  10.590  0.00  0.00    +0.000 C 
BRANCH   7  10
ATOM      8  O   UNL     1      43.654   3.417  10.279  0.00  0.00    +0.000 OA
ATOM      9  C   UNL     1      44.620   3.846   9.654  0.00  0.00    +0.000 C 
ATOM     10  N   UNL     1      45.017   5.162   9.762  0.00  0.00    +0.000 N 
ATOM     11  H   UNL     1      45.806   5.483   9.214  0.00  0.00    +0.000 HD
BRANCH   9  12
ATOM     12  C   UNL     1      45.411   3.014   8.753  0.00  0.00    +0.000 A 
ATOM     13  C   UNL     1      45.523   1.633   8.783  0.00  0.00    +0.000 A 
ATOM     14  C   UNL     1      46.359   1.129   7.749  0.00  0.00    +0.000 A 
ATOM     15 CL   UNL     1      46.665  -0.536   7.528  0.00  0.00    +0.000 Cl
ATOM     16  C   UNL     1      46.878   2.134   6.966  0.00  0.00    +0.000 A 
ATOM     17  S   UNL     1      46.349   3.676   7.477  0.00  0.00    +0.000 S 
ENDBRANCH   9  12
ENDBRANCH   7  10
ENDBRANCH   1   7
BRANCH   4  18
ATOM     18  C   UNL     1      47.951   8.847  14.236  0.00  0.00    +0.000 C 
BRANCH  18  19
ATOM     19  N   UNL     1      48.206   8.059  15.415  0.00  0.00    +0.000 N 
ATOM     20  C   UNL     1      49.443   7.512  15.645  0.00  0.00    +0.000 C 
ATOM     21  O   UNL     1      50.390   7.707  14.887  0.00  0.00    +0.000 OA
ATOM     22  H   UNL     1      47.400   7.693  15.913  0.00  0.00    +0.000 HD
BRANCH  20  23
ATOM     23  C   UNL     1      49.602   6.735  16.882  0.00  0.00    +0.000 A 
ATOM     24  C   UNL     1      50.421   7.213  17.895  0.00  0.00    +0.000 A 
ATOM     25  S   UNL     1      50.445   6.222  19.283  0.00  0.00    +0.000 S 
ATOM     26  C   UNL     1      49.405   5.089  18.557  0.00  0.00    +0.000 A 
ATOM     27  N   UNL     1      49.033   3.959  19.216  0.00  0.00    +0.000 NA
ATOM     28  C   UNL     1      48.269   3.171  18.535  0.00  0.00    +0.000 A 
ATOM     29  N   UNL     1      47.841   3.413  17.255  0.00  0.00    +0.000 N 
ATOM     30  C   UNL     1      48.167   4.553  16.561  0.00  0.00    +0.000 A 
ATOM     31  O   UNL     1      47.735   4.758  15.431  0.00  0.00    +0.000 OA
ATOM     32  C   UNL     1      49.033   5.470  17.280  0.00  0.00    +0.000 A 
ATOM     33  H   UNL     1      47.240   2.757  16.779  0.00  0.00    +0.000 HD
ENDBRANCH  20  23
ENDBRANCH  18  19
ENDBRANCH   4  18
TORSDOF 6
ENDMDL
MODEL 3
REMARK VINA RESULT:    -7.295      1.879      2.281
REMARK INTER + INTRA:         -10.258
REMARK INTER:                  -9.163
REMARK INTRA:                  -1.095
REMARK UNBOUND:                -0.405
REMARK  Name = 
REMARK  6 active torsions:
REMARK  status: ('A' for Active; 'I' for Inactive)
REMARK    1  A    between atoms: C_2  and  C_25
REMARK    2  A    between atoms: N_3  and  C_4
REMARK    3  A    between atoms: C_4  and  C_5
REMARK    4  A    between atoms: C_8  and  C_9
REMARK    5  A    between atoms: C_9  and  N_10
REMARK    6  A    between atoms: C_11  and  C_13
REMARK                            x       y       z     vdW  Elec       q    Type
REMARK                         _______ _______ _______ _____ _____    ______ ____
ROOT
ATOM      1  C   UNL     1      45.742   7.136  11.818  0.00  0.00    +0.000 A 
ATOM      2  C   UNL     1      45.531   8.346  12.495  0.00  0.00    +0.000 A 
ATOM      3  C   UNL     1      46.546   8.914  13.271  0.00  0.00    +0.000 A 
ATOM      4  C   UNL     1      47.800   8.295  13.370  0.00  0.00    +0.000 A 
ATOM      5  C   UNL     1      48.006   7.082  12.699  0.00  0.00    +0.000 A 
ATOM      6  C   UNL     1      46.993   6.515  11.922  0.00  0.00    +0.000 A 
ENDROOT
BRANCH   1   7
ATOM      7  C   UNL     1      44.655   6.531  10.966  0.00  0.00    +0.000 C 
BRANCH   7  10
ATOM      8  O   UNL     1      43.690   3.957  10.554  0.00  0.00    +0.000 OA
ATOM      9  C   UNL     1      44.646   4.324   9.876  0.00  0.00    +0.000 C 
ATOM     10  N   UNL     1      45.193   5.581  10.027  0.00  0.00    +0.000 N 
ATOM     11  H   UNL     1      45.967   5.853   9.434  0.00  0.00    +0.000 HD
BRANCH   9  12
ATOM     12  C   UNL     1      45.267   3.476   8.863  0.00  0.00    +0.000 A 
ATOM     13  C   UNL     1      45.910   3.896   7.710  0.00  0.00    +0.000 A 
ATOM     14  C   UNL     1      46.424   2.814   6.945  0.00  0.00    +0.000 A 
ATOM     15 CL   UNL     1      47.281   3.031   5.484  0.00  0.00    +0.000 Cl
ATOM     16  C   UNL     1      46.152   1.596   7.522  0.00  0.00    +0.000 A 
ATOM     17  S   UNL     1      45.283   1.763   8.984  0.00  0.00    +0.000 S 
ENDBRANCH   9  12
ENDBRANCH   7  10
ENDBRANCH   1   7
BRANCH   4  18
ATOM     18  C   UNL     1      48.902   8.901  14.202  0.00  0.00    +0.000 C 
BRANCH  18  19
ATOM     19  N   UNL     1      49.160   8.120  15.386  0.00  0.00    +0.000 N 
ATOM     20  C   UNL     1      48.605   8.464  16.593  0.00  0.00    +0.000 C 
ATOM     21  O   UNL     1      47.836   9.415  16.707  0.00  0.00    +0.000 OA
ATOM     22  H   UNL     1      49.960   7.497  15.365  0.00  0.00    +0.000 HD
BRANCH  20  23
ATOM     23  C   UNL     1      48.922   7.597  17.736  0.00  0.00    +0.000 A 
ATOM     24  C   UNL     1      49.367   8.160  18.923  0.00  0.00    +0.000 A 
ATOM     25  S   UNL     1      49.630   7.020  20.166  0.00  0.00    +0.000 S 
ATOM     26  C   UNL     1      49.211   5.728  19.142  0.00  0.00    +0.000 A 
ATOM     27  N   UNL     1      49.248   4.443  19.588  0.00  0.00    +0.000 NA
ATOM     28  C   UNL     1      48.939   3.561  18.696  0.00  0.00    +0.000 A 
ATOM     29  N   UNL     1      48.594   3.847  17.401  0.00  0.00    +0.000 N 
ATOM     30  C   UNL     1      48.515   5.131  16.915  0.00  0.00    +0.000 A 
ATOM     31  O   UNL     1      48.164   5.355  15.761  0.00  0.00    +0.000 OA
ATOM     32  C   UNL     1      48.861   6.161  17.875  0.00  0.00    +0.000 A 
ATOM     33  H   UNL     1      48.359   3.110  16.754  0.00  0.00    +0.000 HD
ENDBRANCH  20  23
ENDBRANCH  18  19
ENDBRANCH   4  18
TORSDOF 6
ENDMDL
MODEL 4
REMARK VINA RESULT:    -7.166      4.750      7.583
REMARK INTER + INTRA:         -10.084
REMARK INTER:                  -9.185
REMARK INTRA:                  -0.899
REMARK UNBOUND:                -0.405
REMARK  Name = 
REMARK  6 active torsions:
REMARK  status: ('A' for Active; 'I' for Inactive)
REMARK    1  A    between atoms: C_2  and  C_25
REMARK    2  A    between atoms: N_3  and  C_4
REMARK    3  A    between atoms: C_4  and  C_5
REMARK    4  A    between atoms: C_8  and  C_9
REMARK    5  A    between atoms: C_9  and  N_10
REMARK    6  A    between atoms: C_11  and  C_13
REMARK                            x       y       z     vdW  Elec       q    Type
REMARK                         _______ _______ _______ _____ _____    ______ ____
ROOT
ATOM      1  C   UNL     1      50.262   9.012  11.429  0.00  0.00    +0.000 A 
ATOM      2  C   UNL     1      49.893   7.696  11.741  0.00  0.00    +0.000 A 
ATOM      3  C   UNL     1      48.621   7.412  12.247  0.00  0.00    +0.000 A 
ATOM      4  C   UNL     1      47.683   8.436  12.433  0.00  0.00    +0.000 A 
ATOM      5  C   UNL     1      48.055   9.753  12.129  0.00  0.00    +0.000 A 
ATOM      6  C   UNL     1      49.325  10.036  11.621  0.00  0.00    +0.000 A 
ENDROOT
BRANCH   1   7
ATOM      7  C   UNL     1      51.626   9.317  10.867  0.00  0.00    +0.000 C 
BRANCH   7  10
ATOM      8  O   UNL     1      52.749   9.061   8.337  0.00  0.00    +0.000 OA
ATOM      9  C   UNL     1      52.802   8.089   9.085  0.00  0.00    +0.000 C 
ATOM     10  N   UNL     1      52.258   8.129  10.352  0.00  0.00    +0.000 N 
ATOM     11  H   UNL     1      52.341   7.313  10.947  0.00  0.00    +0.000 HD
BRANCH   9  12
ATOM     12  C   UNL     1      53.442   6.834   8.706  0.00  0.00    +0.000 A 
ATOM     13  C   UNL     1      53.222   6.107   7.547  0.00  0.00    +0.000 A 
ATOM     14  C   UNL     1      54.025   4.937   7.474  0.00  0.00    +0.000 A 
ATOM     15 CL   UNL     1      53.980   3.858   6.151  0.00  0.00    +0.000 Cl
ATOM     16  C   UNL     1      54.827   4.788   8.581  0.00  0.00    +0.000 A 
ATOM     17  S   UNL     1      54.612   6.063   9.698  0.00  0.00    +0.000 S 
ENDBRANCH   9  12
ENDBRANCH   7  10
ENDBRANCH   1   7
BRANCH   4  18
ATOM     18  C   UNL     1      46.307   8.141  12.976  0.00  0.00    +0.000 C 
BRANCH  18  19
ATOM     19  N   UNL     1      45.883   6.805  12.642  0.00  0.00    +0.000 N 
ATOM     20  C   UNL     1      44.905   6.587  11.704  0.00  0.00    +0.000 C 
ATOM     21  O   UNL     1      44.386   7.510  11.082  0.00  0.00    +0.000 OA
ATOM     22  H   UNL     1      46.117   6.066  13.298  0.00  0.00    +0.000 HD
BRANCH  20  23
ATOM     23  C   UNL     1      44.554   5.187  11.430  0.00  0.00    +0.000 A 
ATOM     24  C   UNL     1      43.826   4.465  12.365  0.00  0.00    +0.000 A 
ATOM     25  S   UNL     1      43.450   2.878  11.865  0.00  0.00    +0.000 S 
ATOM     26  C   UNL     1      44.295   3.082  10.402  0.00  0.00    +0.000 A 
ATOM     27  N   UNL     1      44.385   2.069   9.500  0.00  0.00    +0.000 NA
ATOM     28  C   UNL     1      45.084   2.350   8.451  0.00  0.00    +0.000 A 
ATOM     29  N   UNL     1      45.699   3.553   8.221  0.00  0.00    +0.000 N 
ATOM     30  C   UNL     1      45.612   4.614   9.091  0.00  0.00    +0.000 A 
ATOM     31  O   UNL     1      46.141   5.691   8.837  0.00  0.00    +0.000 OA
ATOM     32  C   UNL     1      44.843   4.348  10.292  0.00  0.00    +0.000 A 
ATOM     33  H   UNL     1      46.229   3.710   7.377  0.00  0.00    +0.000 HD
ENDBRANCH  20  23
ENDBRANCH  18  19
ENDBRANCH   4  18
TORSDOF 6
ENDMDL
MODEL 5
REMARK VINA RESULT:    -7.164      4.047      8.616
REMARK INTER + INTRA:         -10.081
REMARK INTER:                  -9.058
REMARK INTRA:                  -1.023
REMARK UNBOUND:                -0.405
REMARK  Name = 
REMARK  6 active torsions:
REMARK  status: ('A' for Active; 'I' for Inactive)
REMARK    1  A    between atoms: C_2  and  C_25
REMARK    2  A    between atoms: N_3  and  C_4
REMARK    3  A    between atoms: C_4  and  C_5
REMARK    4  A    between atoms: C_8  and  C_9
REMARK    5  A    between atoms: C_9  and  N_10
REMARK    6  A    between atoms: C_11  and  C_13
REMARK                            x       y       z     vdW  Elec       q    Type
REMARK                         _______ _______ _______ _____ _____    ______ ____
ROOT
ATOM      1  C   UNL     1      49.716   4.708  17.684  0.00  0.00    +0.000 A 
ATOM      2  C   UNL     1      48.474   4.474  17.077  0.00  0.00    +0.000 A 
ATOM      3  C   UNL     1      48.024   5.289  16.033  0.00  0.00    +0.000 A 
ATOM      4  C   UNL     1      48.818   6.342  15.559  0.00  0.00    +0.000 A 
ATOM      5  C   UNL     1      50.056   6.581  16.171  0.00  0.00    +0.000 A 
ATOM      6  C   UNL     1      50.505   5.766  17.213  0.00  0.00    +0.000 A 
ENDROOT
BRANCH   1   7
ATOM      7  C   UNL     1      50.209   3.820  18.797  0.00  0.00    +0.000 C 
BRANCH   7  10
ATOM      8  O   UNL     1      50.741   1.518  17.332  0.00  0.00    +0.000 OA
ATOM      9  C   UNL     1      51.698   2.154  17.764  0.00  0.00    +0.000 C 
ATOM     10  N   UNL     1      51.521   3.300  18.510  0.00  0.00    +0.000 N 
ATOM     11  H   UNL     1      52.337   3.808  18.830  0.00  0.00    +0.000 HD
BRANCH   9  12
ATOM     12  C   UNL     1      53.082   1.760  17.520  0.00  0.00    +0.000 A 
ATOM     13  C   UNL     1      53.532   0.511  17.122  0.00  0.00    +0.000 A 
ATOM     14  C   UNL     1      54.943   0.466  16.952  0.00  0.00    +0.000 A 
ATOM     15 CL   UNL     1      55.775  -0.937  16.449  0.00  0.00    +0.000 Cl
ATOM     16  C   UNL     1      55.538   1.672  17.237  0.00  0.00    +0.000 A 
ATOM     17  S   UNL     1      54.394   2.853  17.701  0.00  0.00    +0.000 S 
ENDBRANCH   9  12
ENDBRANCH   7  10
ENDBRANCH   1   7
BRANCH   4  18
ATOM     18  C   UNL     1      48.344   7.225  14.432  0.00  0.00    +0.000 C 
BRANCH  18  19
ATOM     19  N   UNL     1      47.085   6.772  13.899  0.00  0.00    +0.000 N 
ATOM     20  C   UNL     1      46.863   6.734  12.545  0.00  0.00    +0.000 C 
ATOM     21  O   UNL     1      47.735   7.039  11.736  0.00  0.00    +0.000 OA
ATOM     22  H   UNL     1      46.293   6.750  14.534  0.00  0.00    +0.000 HD
BRANCH  20  23
ATOM     23  C   UNL     1      45.549   6.246  12.105  0.00  0.00    +0.000 A 
ATOM     24  C   UNL     1      44.625   7.138  11.578  0.00  0.00    +0.000 A 
ATOM     25  S   UNL     1      43.178   6.398  11.060  0.00  0.00    +0.000 S 
ATOM     26  C   UNL     1      43.713   4.867  11.573  0.00  0.00    +0.000 A 
ATOM     27  N   UNL     1      42.923   3.769  11.437  0.00  0.00    +0.000 NA
ATOM     28  C   UNL     1      43.440   2.679  11.900  0.00  0.00    +0.000 A 
ATOM     29  N   UNL     1      44.677   2.589  12.483  0.00  0.00    +0.000 N 
ATOM     30  C   UNL     1      45.521   3.666  12.615  0.00  0.00    +0.000 A 
ATOM     31  O   UNL     1      46.639   3.543  13.106  0.00  0.00    +0.000 OA
ATOM     32  C   UNL     1      44.984   4.918  12.118  0.00  0.00    +0.000 A 
ATOM     33  H   UNL     1      45.025   1.704  12.821  0.00  0.00    +0.000 HD
ENDBRANCH  20  23
ENDBRANCH  18  19
ENDBRANCH   4  18
TORSDOF 6
ENDMDL
MODEL 6
REMARK VINA RESULT:    -6.980      2.983      4.237
REMARK INTER + INTRA:          -9.832
REMARK INTER:                  -8.947
REMARK INTRA:                  -0.885
REMARK UNBOUND:                -0.405
REMARK  Name = 
REMARK  6 active torsions:
REMARK  status: ('A' for Active; 'I' for Inactive)
REMARK    1  A    between atoms: C_2  and  C_25
REMARK    2  A    between atoms: N_3  and  C_4
REMARK    3  A    between atoms: C_4  and  C_5
REMARK    4  A    between atoms: C_8  and  C_9
REMARK    5  A    between atoms: C_9  and  N_10
REMARK    6  A    between atoms: C_11  and  C_13
REMARK                            x       y       z     vdW  Elec       q    Type
REMARK                         _______ _______ _______ _____ _____    ______ ____
ROOT
ATOM      1  C   UNL     1      47.748   7.810  13.528  0.00  0.00    +0.000 A 
ATOM      2  C   UNL     1      48.199   6.629  14.134  0.00  0.00    +0.000 A 
ATOM      3  C   UNL     1      48.773   6.656  15.409  0.00  0.00    +0.000 A 
ATOM      4  C   UNL     1      48.888   7.861  16.114  0.00  0.00    +0.000 A 
ATOM      5  C   UNL     1      48.445   9.043  15.504  0.00  0.00    +0.000 A 
ATOM      6  C   UNL     1      47.870   9.016  14.231  0.00  0.00    +0.000 A 
ENDROOT
BRANCH   1   7
ATOM      7  C   UNL     1      47.114   7.780  12.162  0.00  0.00    +0.000 C 
BRANCH   7  10
ATOM      8  O   UNL     1      44.472   7.455  11.358  0.00  0.00    +0.000 OA
ATOM      9  C   UNL     1      45.153   6.444  11.503  0.00  0.00    +0.000 C 
ATOM     10  N   UNL     1      46.468   6.517  11.911  0.00  0.00    +0.000 N 
ATOM     11  H   UNL     1      47.003   5.661  11.998  0.00  0.00    +0.000 HD
BRANCH   9  12
ATOM     12  C   UNL     1      44.638   5.102  11.251  0.00  0.00    +0.000 A 
ATOM     13  C   UNL     1      44.965   4.273  10.190  0.00  0.00    +0.000 A 
ATOM     14  C   UNL     1      44.300   3.018  10.250  0.00  0.00    +0.000 A 
ATOM     15 CL   UNL     1      44.524   1.789   9.086  0.00  0.00    +0.000 Cl
ATOM     16  C   UNL     1      43.471   2.923  11.343  0.00  0.00    +0.000 A 
ATOM     17  S   UNL     1      43.505   4.343  12.293  0.00  0.00    +0.000 S 
ENDBRANCH   9  12
ENDBRANCH   7  10
ENDBRANCH   1   7
BRANCH   4  18
ATOM     18  C   UNL     1      49.503   7.901  17.491  0.00  0.00    +0.000 C 
BRANCH  18  19
ATOM     19  N   UNL     1      50.479   6.855  17.664  0.00  0.00    +0.000 N 
ATOM     20  C   UNL     1      50.289   5.857  18.587  0.00  0.00    +0.000 C 
ATOM     21  O   UNL     1      49.268   5.788  19.266  0.00  0.00    +0.000 OA
ATOM     22  H   UNL     1      51.411   7.025  17.299  0.00  0.00    +0.000 HD
BRANCH  20  23
ATOM     23  C   UNL     1      51.339   4.833  18.677  0.00  0.00    +0.000 A 
ATOM     24  C   UNL     1      52.516   5.114  19.356  0.00  0.00    +0.000 A 
ATOM     25  S   UNL     1      53.601   3.799  19.419  0.00  0.00    +0.000 S 
ATOM     26  C   UNL     1      52.558   2.825  18.493  0.00  0.00    +0.000 A 
ATOM     27  N   UNL     1      52.903   1.553  18.158  0.00  0.00    +0.000 NA
ATOM     28  C   UNL     1      52.035   0.940  17.425  0.00  0.00    +0.000 A 
ATOM     29  N   UNL     1      50.850   1.484  16.998  0.00  0.00    +0.000 N 
ATOM     30  C   UNL     1      50.447   2.754  17.336  0.00  0.00    +0.000 A 
ATOM     31  O   UNL     1      49.362   3.196  16.971  0.00  0.00    +0.000 OA
ATOM     32  C   UNL     1      51.393   3.490  18.154  0.00  0.00    +0.000 A 
ATOM     33  H   UNL     1      50.212   0.948  16.429  0.00  0.00    +0.000 HD
ENDBRANCH  20  23
ENDBRANCH  18  19
ENDBRANCH   4  18
TORSDOF 6
ENDMDL
MODEL 7
REMARK VINA RESULT:    -6.924      3.281      8.843
REMARK INTER + INTRA:          -9.757
REMARK INTER:                  -8.849
REMARK INTRA:                  -0.908
REMARK UNBOUND:                -0.405
REMARK  Name = 
REMARK  6 active torsions:
REMARK  status: ('A' for Active; 'I' for Inactive)
REMARK    1  A    between atoms: C_2  and  C_25
REMARK    2  A    between atoms: N_3  and  C_4
REMARK    3  A    between atoms: C_4  and  C_5
REMARK    4  A    between atoms: C_8  and  C_9
REMARK    5  A    between atoms: C_9  and  N_10
REMARK    6  A    between atoms: C_11  and  C_13
REMARK                            x       y       z     vdW  Elec       q    Type
REMARK                         _______ _______ _______ _____ _____    ______ ____
ROOT
ATOM      1  C   UNL     1      48.929   7.784  16.131  0.00  0.00    +0.000 A 
ATOM      2  C   UNL     1      48.803   6.593  15.402  0.00  0.00    +0.000 A 
ATOM      3  C   UNL     1      48.246   6.597  14.120  0.00  0.00    +0.000 A 
ATOM      4  C   UNL     1      47.822   7.796  13.530  0.00  0.00    +0.000 A 
ATOM      5  C   UNL     1      47.940   8.984  14.263  0.00  0.00    +0.000 A 
ATOM      6  C   UNL     1      48.499   8.981  15.544  0.00  0.00    +0.000 A 
ENDROOT
BRANCH   1   7
ATOM      7  C   UNL     1      49.546   7.783  17.506  0.00  0.00    +0.000 C 
BRANCH   7  10
ATOM      8  O   UNL     1      49.030   5.435  18.904  0.00  0.00    +0.000 OA
ATOM      9  C   UNL     1      50.129   5.551  18.367  0.00  0.00    +0.000 C 
ATOM     10  N   UNL     1      50.469   6.689  17.666  0.00  0.00    +0.000 N 
ATOM     11  H   UNL     1      51.377   6.736  17.220  0.00  0.00    +0.000 HD
BRANCH   9  12
ATOM     12  C   UNL     1      51.147   4.507  18.420  0.00  0.00    +0.000 A 
ATOM     13  C   UNL     1      51.100   3.270  17.797  0.00  0.00    +0.000 A 
ATOM     14  C   UNL     1      52.266   2.493  18.034  0.00  0.00    +0.000 A 
ATOM     15 CL   UNL     1      52.495   0.933  17.377  0.00  0.00    +0.000 Cl
ATOM     16  C   UNL     1      53.169   3.145  18.841  0.00  0.00    +0.000 A 
ATOM     17  S   UNL     1      52.607   4.691  19.304  0.00  0.00    +0.000 S 
ENDBRANCH   9  12
ENDBRANCH   7  10
ENDBRANCH   1   7
BRANCH   4  18
ATOM     18  C   UNL     1      47.222   7.812  12.147  0.00  0.00    +0.000 C 
BRANCH  18  19
ATOM     19  N   UNL     1      46.617   6.546  11.819  0.00  0.00    +0.000 N 
ATOM     20  C   UNL     1      45.252   6.406  11.771  0.00  0.00    +0.000 C 
ATOM     21  O   UNL     1      44.496   7.356  11.959  0.00  0.00    +0.000 OA
ATOM     22  H   UNL     1      47.200   5.718  11.898  0.00  0.00    +0.000 HD
BRANCH  20  23
ATOM     23  C   UNL     1      44.737   5.077  11.416  0.00  0.00    +0.000 A 
ATOM     24  C   UNL     1      43.979   4.366  12.335  0.00  0.00    +0.000 A 
ATOM     25  S   UNL     1      43.408   2.871  11.743  0.00  0.00    +0.000 S 
ATOM     26  C   UNL     1      44.202   3.097  10.256  0.00  0.00    +0.000 A 
ATOM     27  N   UNL     1      44.138   2.152   9.279  0.00  0.00    +0.000 NA
ATOM     28  C   UNL     1      44.815   2.437   8.216  0.00  0.00    +0.000 A 
ATOM     29  N   UNL     1      45.547   3.583   8.041  0.00  0.00    +0.000 N 
ATOM     30  C   UNL     1      45.617   4.577   8.988  0.00  0.00    +0.000 A 
ATOM     31  O   UNL     1      46.249   5.609   8.784  0.00  0.00    +0.000 OA
ATOM     32  C   UNL     1      44.880   4.302  10.207  0.00  0.00    +0.000 A 
ATOM     33  H   UNL     1      46.051   3.748   7.183  0.00  0.00    +0.000 HD
ENDBRANCH  20  23
ENDBRANCH  18  19
ENDBRANCH   4  18
TORSDOF 6
ENDMDL
MODEL 8
REMARK VINA RESULT:    -6.772      2.154      2.902
REMARK INTER + INTRA:          -9.553
REMARK INTER:                  -8.612
REMARK INTRA:                  -0.940
REMARK UNBOUND:                -0.405
REMARK  Name = 
REMARK  6 active torsions:
REMARK  status: ('A' for Active; 'I' for Inactive)
REMARK    1  A    between atoms: C_2  and  C_25
REMARK    2  A    between atoms: N_3  and  C_4
REMARK    3  A    between atoms: C_4  and  C_5
REMARK    4  A    between atoms: C_8  and  C_9
REMARK    5  A    between atoms: C_9  and  N_10
REMARK    6  A    between atoms: C_11  and  C_13
REMARK                            x       y       z     vdW  Elec       q    Type
REMARK                         _______ _______ _______ _____ _____    ______ ____
ROOT
ATOM      1  C   UNL     1      46.058   8.165  12.214  0.00  0.00    +0.000 A 
ATOM      2  C   UNL     1      46.486   9.500  12.222  0.00  0.00    +0.000 A 
ATOM      3  C   UNL     1      47.655   9.871  12.893  0.00  0.00    +0.000 A 
ATOM      4  C   UNL     1      48.433   8.910  13.553  0.00  0.00    +0.000 A 
ATOM      5  C   UNL     1      48.001   7.577  13.552  0.00  0.00    +0.000 A 
ATOM      6  C   UNL     1      46.833   7.206  12.880  0.00  0.00    +0.000 A 
ENDROOT
BRANCH   1   7
ATOM      7  C   UNL     1      44.807   7.762  11.477  0.00  0.00    +0.000 C 
BRANCH   7  10
ATOM      8  O   UNL     1      43.828   5.198  11.923  0.00  0.00    +0.000 OA
ATOM      9  C   UNL     1      44.509   5.382  10.918  0.00  0.00    +0.000 C 
ATOM     10  N   UNL     1      45.043   6.621  10.630  0.00  0.00    +0.000 N 
ATOM     11  H   UNL     1      45.581   6.737   9.779  0.00  0.00    +0.000 HD
BRANCH   9  12
ATOM     12  C   UNL     1      44.799   4.324   9.955  0.00  0.00    +0.000 A 
ATOM     13  C   UNL     1      45.444   4.464   8.737  0.00  0.00    +0.000 A 
ATOM     14  C   UNL     1      45.585   3.229   8.047  0.00  0.00    +0.000 A 
ATOM     15 CL   UNL     1      46.356   3.093   6.530  0.00  0.00    +0.000 Cl
ATOM     16  C   UNL     1      45.034   2.180   8.745  0.00  0.00    +0.000 A 
ATOM     17  S   UNL     1      44.356   2.688  10.229  0.00  0.00    +0.000 S 
ENDBRANCH   9  12
ENDBRANCH   7  10
ENDBRANCH   1   7
BRANCH   4  18
ATOM     18  C   UNL     1      49.698   9.298  14.278  0.00  0.00    +0.000 C 
BRANCH  18  19
ATOM     19  N   UNL     1      50.356   8.148  14.844  0.00  0.00    +0.000 N 
ATOM     20  C   UNL     1      50.360   7.933  16.200  0.00  0.00    +0.000 C 
ATOM     21  O   UNL     1      49.771   8.679  16.977  0.00  0.00    +0.000 OA
ATOM     22  H   UNL     1      51.035   7.667  14.262  0.00  0.00    +0.000 HD
BRANCH  20  23
ATOM     23  C   UNL     1      51.050   6.725  16.674  0.00  0.00    +0.000 A 
ATOM     24  C   UNL     1      52.423   6.754  16.880  0.00  0.00    +0.000 A 
ATOM     25  S   UNL     1      53.054   5.291  17.489  0.00  0.00    +0.000 S 
ATOM     26  C   UNL     1      51.524   4.550  17.447  0.00  0.00    +0.000 A 
ATOM     27  N   UNL     1      51.363   3.254  17.827  0.00  0.00    +0.000 NA
ATOM     28  C   UNL     1      50.156   2.809  17.712  0.00  0.00    +0.000 A 
ATOM     29  N   UNL     1      49.094   3.545  17.253  0.00  0.00    +0.000 N 
ATOM     30  C   UNL     1      49.203   4.865  16.886  0.00  0.00    +0.000 A 
ATOM     31  O   UNL     1      48.224   5.507  16.517  0.00  0.00    +0.000 OA
ATOM     32  C   UNL     1      50.543   5.411  16.988  0.00  0.00    +0.000 A 
ATOM     33  H   UNL     1      48.173   3.138  17.191  0.00  0.00    +0.000 HD
ENDBRANCH  20  23
ENDBRANCH  18  19
ENDBRANCH   4  18
TORSDOF 6
ENDMDL
MODEL 9
REMARK VINA RESULT:    -6.538      3.424      8.378
REMARK INTER + INTRA:          -9.237
REMARK INTER:                  -8.503
REMARK INTRA:                  -0.734
REMARK UNBOUND:                -0.405
REMARK  Name = 
REMARK  6 active torsions:
REMARK  status: ('A' for Active; 'I' for Inactive)
REMARK    1  A    between atoms: C_2  and  C_25
REMARK    2  A    between atoms: N_3  and  C_4
REMARK    3  A    between atoms: C_4  and  C_5
REMARK    4  A    between atoms: C_8  and  C_9
REMARK    5  A    between atoms: C_9  and  N_10
REMARK    6  A    between atoms: C_11  and  C_13
REMARK                            x       y       z     vdW  Elec       q    Type
REMARK                         _______ _______ _______ _____ _____    ______ ____
ROOT
ATOM      1  C   UNL     1      49.112   7.732  16.154  0.00  0.00    +0.000 A 
ATOM      2  C   UNL     1      49.513   6.820  15.167  0.00  0.00    +0.000 A 
ATOM      3  C   UNL     1      49.143   7.007  13.831  0.00  0.00    +0.000 A 
ATOM      4  C   UNL     1      48.382   8.120  13.450  0.00  0.00    +0.000 A 
ATOM      5  C   UNL     1      47.975   9.027  14.439  0.00  0.00    +0.000 A 
ATOM      6  C   UNL     1      48.345   8.841  15.773  0.00  0.00    +0.000 A 
ENDROOT
BRANCH   1   7
ATOM      7  C   UNL     1      49.524   7.541  17.591  0.00  0.00    +0.000 C 
BRANCH   7  10
ATOM      8  O   UNL     1      49.013   4.855  18.094  0.00  0.00    +0.000 OA
ATOM      9  C   UNL     1      50.185   5.198  17.957  0.00  0.00    +0.000 C 
ATOM     10  N   UNL     1      50.524   6.512  17.717  0.00  0.00    +0.000 N 
ATOM     11  H   UNL     1      51.500   6.751  17.588  0.00  0.00    +0.000 HD
BRANCH   9  12
ATOM     12  C   UNL     1      51.296   4.255  18.026  0.00  0.00    +0.000 A 
ATOM     13  C   UNL     1      51.258   2.903  17.722  0.00  0.00    +0.000 A 
ATOM     14  C   UNL     1      52.523   2.272  17.875  0.00  0.00    +0.000 A 
ATOM     15 CL   UNL     1      52.781   0.615  17.553  0.00  0.00    +0.000 Cl
ATOM     16  C   UNL     1      53.491   3.149  18.304  0.00  0.00    +0.000 A 
ATOM     17  S   UNL     1      52.873   4.728  18.514  0.00  0.00    +0.000 S 
ENDBRANCH   9  12
ENDBRANCH   7  10
ENDBRANCH   1   7
BRANCH   4  18
ATOM     18  C   UNL     1      47.981   8.333  12.012  0.00  0.00    +0.000 C 
BRANCH  18  19
ATOM     19  N   UNL     1      47.393   7.145  11.448  0.00  0.00    +0.000 N 
ATOM     20  C   UNL     1      46.030   6.991  11.388  0.00  0.00    +0.000 C 
ATOM     21  O   UNL     1      45.261   7.869  11.768  0.00  0.00    +0.000 OA
ATOM     22  H   UNL     1      47.990   6.329  11.356  0.00  0.00    +0.000 HD
BRANCH  20  23
ATOM     23  C   UNL     1      45.532   5.748  10.784  0.00  0.00    +0.000 A 
ATOM     24  C   UNL     1      45.784   5.485   9.444  0.00  0.00    +0.000 A 
ATOM     25  S   UNL     1      45.191   3.975   8.919  0.00  0.00    +0.000 S 
ATOM     26  C   UNL     1      44.528   3.642  10.449  0.00  0.00    +0.000 A 
ATOM     27  N   UNL     1      43.846   2.488  10.680  0.00  0.00    +0.000 NA
ATOM     28  C   UNL     1      43.368   2.381  11.875  0.00  0.00    +0.000 A 
ATOM     29  N   UNL     1      43.512   3.323  12.861  0.00  0.00    +0.000 N 
ATOM     30  C   UNL     1      44.217   4.489  12.682  0.00  0.00    +0.000 A 
ATOM     31  O   UNL     1      44.362   5.293  13.598  0.00  0.00    +0.000 OA
ATOM     32  C   UNL     1      44.769   4.663  11.352  0.00  0.00    +0.000 A 
ATOM     33  H   UNL     1      43.117   3.176  13.777  0.00  0.00    +0.000 HD
ENDBRANCH  20  23
ENDBRANCH  18  19
ENDBRANCH   4  18
TORSDOF 6
ENDMDL
