MODEL 1
REMARK VINA RESULT:    -7.670      0.000      0.000
REMARK INTER + INTRA:         -11.222
REMARK INTER:                 -10.137
REMARK INTRA:                  -1.085
REMARK UNBOUND:                -1.085
REMARK  Name = 
REMARK  7 active torsions:
REMARK  status: ('A' for Active; 'I' for Inactive)
REMARK    1  A    between atoms: C_1  and  N_2
REMARK    2  A    between atoms: N_2  and  C_3
REMARK    3  A    between atoms: C_3  and  C_4
REMARK    4  A    between atoms: C_7  and  C_8
REMARK    5  A    between atoms: C_8  and  O_9
REMARK    6  A    between atoms: C_8  and  C_10
REMARK    7  A    between atoms: C_17  and  C_19
REMARK                            x       y       z     vdW  Elec       q    Type
REMARK                         _______ _______ _______ _____ _____    ______ ____
ROOT
ATOM      1  C   UNL     1      47.149   6.106  12.289  0.00  0.00    +0.000 C 
ENDROOT
BRANCH   1   2
ATOM      2  C   UNL     1      47.396   5.805  13.742  0.00  0.00    +0.000 A 
ATOM      3  C   UNL     1      46.804   4.677  14.337  0.00  0.00    +0.000 A 
ATOM      4  C   UNL     1      47.150   4.294  15.633  0.00  0.00    +0.000 A 
ATOM      5  C   UNL     1      48.083   5.041  16.364  0.00  0.00    +0.000 A 
ATOM      6  C   UNL     1      48.621   6.207  15.787  0.00  0.00    +0.000 A 
ATOM      7  C   UNL     1      48.279   6.586  14.489  0.00  0.00    +0.000 A 
BRANCH   5   8
ATOM      8  C   UNL     1      48.528   4.573  17.736  0.00  0.00    +0.000 C 
BRANCH   8   9
ATOM      9  C   UNL     1      49.744   3.696  17.704  0.00  0.00    +0.000 A 
ATOM     10  N   UNL     1      50.986   4.013  18.001  0.00  0.00    +0.000 NA
ATOM     11  C   UNL     1      51.732   2.899  17.722  0.00  0.00    +0.000 A 
ATOM     12  C   UNL     1      50.930   1.875  17.284  0.00  0.00    +0.000 A 
ATOM     13  N   UNL     1      49.666   2.385  17.303  0.00  0.00    +0.000 N 
ATOM     14  H   UNL     1      48.808   1.932  17.019  0.00  0.00    +0.000 HD
ENDBRANCH   8   9
BRANCH   8  15
ATOM     15  O   UNL     1      47.478   3.811  18.355  0.00  0.00    +0.000 OA
ATOM     16  H   UNL     1      47.845   3.439  19.176  0.00  0.00    +0.000 HD
ENDBRANCH   8  15
ENDBRANCH   5   8
ENDBRANCH   1   2
BRANCH   1  18
ATOM     17  C   UNL     1      46.323   8.492  12.136  0.00  0.00    +0.000 C 
ATOM     18  N   UNL     1      46.116   7.065  11.914  0.00  0.00    +0.000 N 
ATOM     19  C   UNL     1      44.797   6.681  11.598  0.00  0.00    +0.000 C 
ATOM     20  O   UNL     1      43.912   7.522  11.445  0.00  0.00    +0.000 OA
BRANCH  19  21
ATOM     21  C   UNL     1      44.452   5.252  11.477  0.00  0.00    +0.000 A 
ATOM     22  C   UNL     1      43.665   4.542  12.372  0.00  0.00    +0.000 A 
ATOM     23  S   UNL     1      43.406   2.916  11.923  0.00  0.00    +0.000 S 
ATOM     24  C   UNL     1      44.182   3.155  10.431  0.00  0.00    +0.000 A 
ATOM     25  N   UNL     1      44.210   2.170   9.495  0.00  0.00    +0.000 NA
ATOM     26  C   UNL     1      44.766   2.519   8.383  0.00  0.00    +0.000 A 
ATOM     27  N   UNL     1      45.330   3.745   8.138  0.00  0.00    +0.000 N 
ATOM     28  C   UNL     1      45.446   4.724   9.103  0.00  0.00    +0.000 A 
ATOM     29  O   UNL     1      46.147   5.712   8.922  0.00  0.00    +0.000 OA
ATOM     30  C   UNL     1      44.727   4.422  10.328  0.00  0.00    +0.000 A 
ATOM     31  H   UNL     1      45.799   3.932   7.266  0.00  0.00    +0.000 HD
ENDBRANCH  19  21
ENDBRANCH   1  18
TORSDOF 6
ENDMDL
MODEL 2
REMARK VINA RESULT:    -7.604      1.413      2.184
REMARK INTER + INTRA:         -11.133
REMARK INTER:                  -9.993
REMARK INTRA:                  -1.140
REMARK UNBOUND:                -1.085
REMARK  Name = 
REMARK  7 active torsions:
REMARK  status: ('A' for Active; 'I' for Inactive)
REMARK    1  A    between atoms: C_1  and  N_2
REMARK    2  A    between atoms: N_2  and  C_3
REMARK    3  A    between atoms: C_3  and  C_4
REMARK    4  A    between atoms: C_7  and  C_8
REMARK    5  A    between atoms: C_8  and  O_9
REMARK    6  A    between atoms: C_8  and  C_10
REMARK    7  A    between atoms: C_17  and  C_19
REMARK                            x       y       z     vdW  Elec       q    Type
REMARK                         _______ _______ _______ _____ _____    ______ ____
ROOT
ATOM      1  C   UNL     1      47.398   6.499  12.443  0.00  0.00    +0.000 C 
ENDROOT
BRANCH   1   2
ATOM      2  C   UNL     1      47.530   5.908  13.821  0.00  0.00    +0.000 A 
ATOM      3  C   UNL     1      46.892   4.695  14.130  0.00  0.00    +0.000 A 
ATOM      4  C   UNL     1      47.135   4.053  15.345  0.00  0.00    +0.000 A 
ATOM      5  C   UNL     1      48.010   4.622  16.280  0.00  0.00    +0.000 A 
ATOM      6  C   UNL     1      48.592   5.871  15.992  0.00  0.00    +0.000 A 
ATOM      7  C   UNL     1      48.353   6.508  14.775  0.00  0.00    +0.000 A 
BRANCH   5   8
ATOM      8  C   UNL     1      48.346   3.881  17.559  0.00  0.00    +0.000 C 
BRANCH   8   9
ATOM      9  C   UNL     1      49.606   3.073  17.470  0.00  0.00    +0.000 A 
ATOM     10  N   UNL     1      49.836   1.998  16.746  0.00  0.00    +0.000 NA
ATOM     11  C   UNL     1      51.095   1.583  17.085  0.00  0.00    +0.000 A 
ATOM     12  C   UNL     1      51.658   2.437  18.002  0.00  0.00    +0.000 A 
ATOM     13  N   UNL     1      50.712   3.394  18.218  0.00  0.00    +0.000 N 
ATOM     14  H   UNL     1      50.755   4.179  18.853  0.00  0.00    +0.000 HD
ENDBRANCH   8   9
BRANCH   8  15
ATOM     15  O   UNL     1      47.285   2.967  17.885  0.00  0.00    +0.000 OA
ATOM     16  H   UNL     1      46.643   3.461  18.425  0.00  0.00    +0.000 HD
ENDBRANCH   8  15
ENDBRANCH   5   8
ENDBRANCH   1   2
BRANCH   1  18
ATOM     17  C   UNL     1      46.464   8.794  12.956  0.00  0.00    +0.000 C 
ATOM     18  N   UNL     1      46.415   7.548  12.198  0.00  0.00    +0.000 N 
ATOM     19  C   UNL     1      45.234   7.329  11.458  0.00  0.00    +0.000 C 
ATOM     20  O   UNL     1      44.352   8.186  11.406  0.00  0.00    +0.000 OA
BRANCH  19  21
ATOM     21  C   UNL     1      45.027   6.049  10.757  0.00  0.00    +0.000 A 
ATOM     22  C   UNL     1      45.594   5.705   9.539  0.00  0.00    +0.000 A 
ATOM     23  S   UNL     1      45.203   4.127   9.017  0.00  0.00    +0.000 S 
ATOM     24  C   UNL     1      44.415   3.787  10.483  0.00  0.00    +0.000 A 
ATOM     25  N   UNL     1      43.938   2.541  10.745  0.00  0.00    +0.000 NA
ATOM     26  C   UNL     1      43.433   2.410  11.926  0.00  0.00    +0.000 A 
ATOM     27  N   UNL     1      43.326   3.418  12.850  0.00  0.00    +0.000 N 
ATOM     28  C   UNL     1      43.670   4.726  12.577  0.00  0.00    +0.000 A 
ATOM     29  O   UNL     1      43.357   5.634  13.336  0.00  0.00    +0.000 OA
ATOM     30  C   UNL     1      44.355   4.895  11.308  0.00  0.00    +0.000 A 
ATOM     31  H   UNL     1      42.868   3.261  13.733  0.00  0.00    +0.000 HD
ENDBRANCH  19  21
ENDBRANCH   1  18
TORSDOF 6
ENDMDL
MODEL 3
REMARK VINA RESULT:    -7.063      3.126      8.084
REMARK INTER + INTRA:         -10.419
REMARK INTER:                  -9.301
REMARK INTRA:                  -1.118
REMARK UNBOUND:                -1.085
REMARK  Name = 
REMARK  7 active torsions:
REMARK  status: ('A' for Active; 'I' for Inactive)
REMARK    1  A    between atoms: C_1  and  N_2
REMARK    2  A    between atoms: N_2  and  C_3
REMARK    3  A    between atoms: C_3  and  C_4
REMARK    4  A    between atoms: C_7  and  C_8
REMARK    5  A    between atoms: C_8  and  O_9
REMARK    6  A    between atoms: C_8  and  C_10
REMARK    7  A    between atoms: C_17  and  C_19
REMARK                            x       y       z     vdW  Elec       q    Type
REMARK                         _______ _______ _______ _____ _____    ______ ____
ROOT
ATOM      1  C   UNL     1      47.761   8.221  14.051  0.00  0.00    +0.000 C 
ENDROOT
BRANCH   1   2
ATOM      2  C   UNL     1      46.770   7.434  13.237  0.00  0.00    +0.000 A 
ATOM      3  C   UNL     1      46.649   6.046  13.426  0.00  0.00    +0.000 A 
ATOM      4  C   UNL     1      45.628   5.330  12.800  0.00  0.00    +0.000 A 
ATOM      5  C   UNL     1      44.718   5.986  11.961  0.00  0.00    +0.000 A 
ATOM      6  C   UNL     1      44.887   7.364  11.723  0.00  0.00    +0.000 A 
ATOM      7  C   UNL     1      45.904   8.080  12.354  0.00  0.00    +0.000 A 
BRANCH   5   8
ATOM      8  C   UNL     1      43.555   5.226  11.355  0.00  0.00    +0.000 C 
BRANCH   8   9
ATOM      9  C   UNL     1      43.963   4.264  10.281  0.00  0.00    +0.000 A 
ATOM     10  N   UNL     1      43.937   2.948  10.312  0.00  0.00    +0.000 NA
ATOM     11  C   UNL     1      44.497   2.537   9.132  0.00  0.00    +0.000 A 
ATOM     12  C   UNL     1      44.836   3.615   8.353  0.00  0.00    +0.000 A 
ATOM     13  N   UNL     1      44.467   4.706   9.082  0.00  0.00    +0.000 N 
ATOM     14  H   UNL     1      44.586   5.682   8.846  0.00  0.00    +0.000 HD
ENDBRANCH   8   9
BRANCH   8  15
ATOM     15  O   UNL     1      42.628   6.150  10.760  0.00  0.00    +0.000 OA
ATOM     16  H   UNL     1      42.851   7.033  11.103  0.00  0.00    +0.000 HD
ENDBRANCH   8  15
ENDBRANCH   5   8
ENDBRANCH   1   2
BRANCH   1  18
ATOM     17  C   UNL     1      49.760   7.534  12.661  0.00  0.00    +0.000 C 
ATOM     18  N   UNL     1      49.184   7.921  13.944  0.00  0.00    +0.000 N 
ATOM     19  C   UNL     1      50.006   7.710  15.071  0.00  0.00    +0.000 C 
ATOM     20  O   UNL     1      51.160   7.302  14.945  0.00  0.00    +0.000 OA
BRANCH  19  21
ATOM     21  C   UNL     1      49.477   7.949  16.427  0.00  0.00    +0.000 A 
ATOM     22  C   UNL     1      49.496   9.168  17.087  0.00  0.00    +0.000 A 
ATOM     23  S   UNL     1      48.757   9.131  18.626  0.00  0.00    +0.000 S 
ATOM     24  C   UNL     1      48.228   7.534  18.385  0.00  0.00    +0.000 A 
ATOM     25  N   UNL     1      47.422   6.923  19.293  0.00  0.00    +0.000 NA
ATOM     26  C   UNL     1      47.038   5.741  18.941  0.00  0.00    +0.000 A 
ATOM     27  N   UNL     1      47.418   5.103  17.788  0.00  0.00    +0.000 N 
ATOM     28  C   UNL     1      48.341   5.630  16.908  0.00  0.00    +0.000 A 
ATOM     29  O   UNL     1      48.824   4.946  16.014  0.00  0.00    +0.000 OA
ATOM     30  C   UNL     1      48.704   7.005  17.200  0.00  0.00    +0.000 A 
ATOM     31  H   UNL     1      47.126   4.157  17.603  0.00  0.00    +0.000 HD
ENDBRANCH  19  21
ENDBRANCH   1  18
TORSDOF 6
ENDMDL
MODEL 4
REMARK VINA RESULT:    -7.003      1.605      2.221
REMARK INTER + INTRA:         -10.340
REMARK INTER:                  -9.467
REMARK INTRA:                  -0.873
REMARK UNBOUND:                -1.085
REMARK  Name = 
REMARK  7 active torsions:
REMARK  status: ('A' for Active; 'I' for Inactive)
REMARK    1  A    between atoms: C_1  and  N_2
REMARK    2  A    between atoms: N_2  and  C_3
REMARK    3  A    between atoms: C_3  and  C_4
REMARK    4  A    between atoms: C_7  and  C_8
REMARK    5  A    between atoms: C_8  and  O_9
REMARK    6  A    between atoms: C_8  and  C_10
REMARK    7  A    between atoms: C_17  and  C_19
REMARK                            x       y       z     vdW  Elec       q    Type
REMARK                         _______ _______ _______ _____ _____    ______ ____
ROOT
ATOM      1  C   UNL     1      47.302   6.136  12.344  0.00  0.00    +0.000 C 
ENDROOT
BRANCH   1   2
ATOM      2  C   UNL     1      47.515   5.842  13.805  0.00  0.00    +0.000 A 
ATOM      3  C   UNL     1      46.890   4.730  14.396  0.00  0.00    +0.000 A 
ATOM      4  C   UNL     1      47.204   4.350  15.702  0.00  0.00    +0.000 A 
ATOM      5  C   UNL     1      48.136   5.085  16.445  0.00  0.00    +0.000 A 
ATOM      6  C   UNL     1      48.707   6.236  15.870  0.00  0.00    +0.000 A 
ATOM      7  C   UNL     1      48.398   6.612  14.563  0.00  0.00    +0.000 A 
BRANCH   5   8
ATOM      8  C   UNL     1      48.545   4.619  17.829  0.00  0.00    +0.000 C 
BRANCH   8   9
ATOM      9  C   UNL     1      48.054   5.510  18.930  0.00  0.00    +0.000 A 
ATOM     10  N   UNL     1      47.782   6.797  18.877  0.00  0.00    +0.000 NA
ATOM     11  C   UNL     1      47.464   7.163  20.157  0.00  0.00    +0.000 A 
ATOM     12  C   UNL     1      47.506   6.078  20.998  0.00  0.00    +0.000 A 
ATOM     13  N   UNL     1      47.856   5.029  20.201  0.00  0.00    +0.000 N 
ATOM     14  H   UNL     1      48.013   4.068  20.471  0.00  0.00    +0.000 HD
ENDBRANCH   8   9
BRANCH   8  15
ATOM     15  O   UNL     1      49.979   4.584  17.926  0.00  0.00    +0.000 OA
ATOM     16  H   UNL     1      50.235   3.647  17.987  0.00  0.00    +0.000 HD
ENDBRANCH   8  15
ENDBRANCH   5   8
ENDBRANCH   1   2
BRANCH   1  18
ATOM     17  C   UNL     1      46.490   8.523  12.144  0.00  0.00    +0.000 C 
ATOM     18  N   UNL     1      46.279   7.094  11.941  0.00  0.00    +0.000 N 
ATOM     19  C   UNL     1      44.962   6.711  11.614  0.00  0.00    +0.000 C 
ATOM     20  O   UNL     1      44.084   7.554  11.436  0.00  0.00    +0.000 OA
BRANCH  19  21
ATOM     21  C   UNL     1      44.612   5.282  11.510  0.00  0.00    +0.000 A 
ATOM     22  C   UNL     1      43.843   4.581  12.427  0.00  0.00    +0.000 A 
ATOM     23  S   UNL     1      43.571   2.951  11.995  0.00  0.00    +0.000 S 
ATOM     24  C   UNL     1      44.315   3.178  10.485  0.00  0.00    +0.000 A 
ATOM     25  N   UNL     1      44.320   2.187   9.555  0.00  0.00    +0.000 NA
ATOM     26  C   UNL     1      44.853   2.527   8.429  0.00  0.00    +0.000 A 
ATOM     27  N   UNL     1      45.413   3.751   8.163  0.00  0.00    +0.000 N 
ATOM     28  C   UNL     1      45.552   4.735   9.119  0.00  0.00    +0.000 A 
ATOM     29  O   UNL     1      46.251   5.720   8.916  0.00  0.00    +0.000 OA
ATOM     30  C   UNL     1      44.859   4.443  10.361  0.00  0.00    +0.000 A 
ATOM     31  H   UNL     1      45.864   3.930   7.280  0.00  0.00    +0.000 HD
ENDBRANCH  19  21
ENDBRANCH   1  18
TORSDOF 6
ENDMDL
MODEL 5
REMARK VINA RESULT:    -6.874      2.360      7.998
REMARK INTER + INTRA:         -10.170
REMARK INTER:                  -9.183
REMARK INTRA:                  -0.986
REMARK UNBOUND:                -1.085
REMARK  Name = 
REMARK  7 active torsions:
REMARK  status: ('A' for Active; 'I' for Inactive)
REMARK    1  A    between atoms: C_1  and  N_2
REMARK    2  A    between atoms: N_2  and  C_3
REMARK    3  A    between atoms: C_3  and  C_4
REMARK    4  A    between atoms: C_7  and  C_8
REMARK    5  A    between atoms: C_8  and  O_9
REMARK    6  A    between atoms: C_8  and  C_10
REMARK    7  A    between atoms: C_17  and  C_19
REMARK                            x       y       z     vdW  Elec       q    Type
REMARK                         _______ _______ _______ _____ _____    ______ ____
ROOT
ATOM      1  C   UNL     1      48.811   6.645  14.350  0.00  0.00    +0.000 C 
ENDROOT
BRANCH   1   2
ATOM      2  C   UNL     1      47.692   6.158  13.470  0.00  0.00    +0.000 A 
ATOM      3  C   UNL     1      46.890   5.080  13.884  0.00  0.00    +0.000 A 
ATOM      4  C   UNL     1      45.752   4.722  13.161  0.00  0.00    +0.000 A 
ATOM      5  C   UNL     1      45.404   5.425  12.000  0.00  0.00    +0.000 A 
ATOM      6  C   UNL     1      46.249   6.460  11.554  0.00  0.00    +0.000 A 
ATOM      7  C   UNL     1      47.383   6.821  12.282  0.00  0.00    +0.000 A 
BRANCH   5   8
ATOM      8  C   UNL     1      44.119   5.096  11.266  0.00  0.00    +0.000 C 
BRANCH   8   9
ATOM      9  C   UNL     1      44.304   4.119  10.144  0.00  0.00    +0.000 A 
ATOM     10  N   UNL     1      44.268   2.804  10.194  0.00  0.00    +0.000 NA
ATOM     11  C   UNL     1      44.589   2.375   8.934  0.00  0.00    +0.000 A 
ATOM     12  C   UNL     1      44.787   3.442   8.093  0.00  0.00    +0.000 A 
ATOM     13  N   UNL     1      44.576   4.544   8.867  0.00  0.00    +0.000 N 
ATOM     14  H   UNL     1      44.659   5.516   8.602  0.00  0.00    +0.000 HD
ENDBRANCH   8   9
BRANCH   8  15
ATOM     15  O   UNL     1      43.567   6.293  10.693  0.00  0.00    +0.000 OA
ATOM     16  H   UNL     1      43.903   6.350   9.781  0.00  0.00    +0.000 HD
ENDBRANCH   8  15
ENDBRANCH   5   8
ENDBRANCH   1   2
BRANCH   1  18
ATOM     17  C   UNL     1      48.496   9.011  15.191  0.00  0.00    +0.000 C 
ATOM     18  N   UNL     1      48.522   7.573  15.438  0.00  0.00    +0.000 N 
ATOM     19  C   UNL     1      48.536   7.186  16.794  0.00  0.00    +0.000 C 
ATOM     20  O   UNL     1      48.448   8.023  17.692  0.00  0.00    +0.000 OA
BRANCH  19  21
ATOM     21  C   UNL     1      48.688   5.765  17.156  0.00  0.00    +0.000 A 
ATOM     22  C   UNL     1      47.661   4.834  17.182  0.00  0.00    +0.000 A 
ATOM     23  S   UNL     1      48.170   3.256  17.590  0.00  0.00    +0.000 S 
ATOM     24  C   UNL     1      49.803   3.727  17.568  0.00  0.00    +0.000 A 
ATOM     25  N   UNL     1      50.794   2.810  17.726  0.00  0.00    +0.000 NA
ATOM     26  C   UNL     1      51.984   3.299  17.609  0.00  0.00    +0.000 A 
ATOM     27  N   UNL     1      52.270   4.622  17.389  0.00  0.00    +0.000 N 
ATOM     28  C   UNL     1      51.303   5.605  17.359  0.00  0.00    +0.000 A 
ATOM     29  O   UNL     1      51.605   6.791  17.386  0.00  0.00    +0.000 OA
ATOM     30  C   UNL     1      49.947   5.086  17.363  0.00  0.00    +0.000 A 
ATOM     31  H   UNL     1      53.225   4.945  17.366  0.00  0.00    +0.000 HD
ENDBRANCH  19  21
ENDBRANCH   1  18
TORSDOF 6
ENDMDL
MODEL 6
REMARK VINA RESULT:    -6.804      1.951      2.907
REMARK INTER + INTRA:         -10.077
REMARK INTER:                  -8.997
REMARK INTRA:                  -1.080
REMARK UNBOUND:                -1.085
REMARK  Name = 
REMARK  7 active torsions:
REMARK  status: ('A' for Active; 'I' for Inactive)
REMARK    1  A    between atoms: C_1  and  N_2
REMARK    2  A    between atoms: N_2  and  C_3
REMARK    3  A    between atoms: C_3  and  C_4
REMARK    4  A    between atoms: C_7  and  C_8
REMARK    5  A    between atoms: C_8  and  O_9
REMARK    6  A    between atoms: C_8  and  C_10
REMARK    7  A    between atoms: C_17  and  C_19
REMARK                            x       y       z     vdW  Elec       q    Type
REMARK                         _______ _______ _______ _____ _____    ______ ____
ROOT
ATOM      1  C   UNL     1      47.383   6.331  12.533  0.00  0.00    +0.000 C 
ENDROOT
BRANCH   1   2
ATOM      2  C   UNL     1      47.556   5.874  13.957  0.00  0.00    +0.000 A 
ATOM      3  C   UNL     1      46.885   4.727  14.414  0.00  0.00    +0.000 A 
ATOM      4  C   UNL     1      47.159   4.199  15.676  0.00  0.00    +0.000 A 
ATOM      5  C   UNL     1      48.099   4.817  16.510  0.00  0.00    +0.000 A 
ATOM      6  C   UNL     1      48.718   6.004  16.072  0.00  0.00    +0.000 A 
ATOM      7  C   UNL     1      48.448   6.528  14.809  0.00  0.00    +0.000 A 
BRANCH   5   8
ATOM      8  C   UNL     1      48.465   4.192  17.842  0.00  0.00    +0.000 C 
BRANCH   8   9
ATOM      9  C   UNL     1      48.328   5.131  19.002  0.00  0.00    +0.000 A 
ATOM     10  N   UNL     1      47.260   5.793  19.393  0.00  0.00    +0.000 NA
ATOM     11  C   UNL     1      47.671   6.583  20.433  0.00  0.00    +0.000 A 
ATOM     12  C   UNL     1      49.001   6.374  20.705  0.00  0.00    +0.000 A 
ATOM     13  N   UNL     1      49.400   5.430  19.807  0.00  0.00    +0.000 N 
ATOM     14  H   UNL     1      50.324   5.041  19.682  0.00  0.00    +0.000 HD
ENDBRANCH   8   9
BRANCH   8  15
ATOM     15  O   UNL     1      49.834   3.756  17.815  0.00  0.00    +0.000 OA
ATOM     16  H   UNL     1      50.200   4.027  16.955  0.00  0.00    +0.000 HD
ENDBRANCH   8  15
ENDBRANCH   5   8
ENDBRANCH   1   2
BRANCH   1  18
ATOM     17  C   UNL     1      46.551   8.678  12.978  0.00  0.00    +0.000 C 
ATOM     18  N   UNL     1      46.470   7.427  12.232  0.00  0.00    +0.000 N 
ATOM     19  C   UNL     1      45.313   7.261  11.441  0.00  0.00    +0.000 C 
ATOM     20  O   UNL     1      44.482   8.162  11.340  0.00  0.00    +0.000 OA
BRANCH  19  21
ATOM     21  C   UNL     1      45.071   5.984  10.746  0.00  0.00    +0.000 A 
ATOM     22  C   UNL     1      45.616   5.625   9.522  0.00  0.00    +0.000 A 
ATOM     23  S   UNL     1      45.185   4.055   9.008  0.00  0.00    +0.000 S 
ATOM     24  C   UNL     1      44.405   3.735  10.483  0.00  0.00    +0.000 A 
ATOM     25  N   UNL     1      43.904   2.501  10.753  0.00  0.00    +0.000 NA
ATOM     26  C   UNL     1      43.409   2.384  11.940  0.00  0.00    +0.000 A 
ATOM     27  N   UNL     1      43.335   3.396  12.863  0.00  0.00    +0.000 N 
ATOM     28  C   UNL     1      43.705   4.695  12.583  0.00  0.00    +0.000 A 
ATOM     29  O   UNL     1      43.420   5.612  13.344  0.00  0.00    +0.000 OA
ATOM     30  C   UNL     1      44.379   4.846  11.307  0.00  0.00    +0.000 A 
ATOM     31  H   UNL     1      42.883   3.251  13.752  0.00  0.00    +0.000 HD
ENDBRANCH  19  21
ENDBRANCH   1  18
TORSDOF 6
ENDMDL
MODEL 7
REMARK VINA RESULT:    -6.717      3.038      8.275
REMARK INTER + INTRA:          -9.962
REMARK INTER:                  -8.854
REMARK INTRA:                  -1.107
REMARK UNBOUND:                -1.085
REMARK  Name = 
REMARK  7 active torsions:
REMARK  status: ('A' for Active; 'I' for Inactive)
REMARK    1  A    between atoms: C_1  and  N_2
REMARK    2  A    between atoms: N_2  and  C_3
REMARK    3  A    between atoms: C_3  and  C_4
REMARK    4  A    between atoms: C_7  and  C_8
REMARK    5  A    between atoms: C_8  and  O_9
REMARK    6  A    between atoms: C_8  and  C_10
REMARK    7  A    between atoms: C_17  and  C_19
REMARK                            x       y       z     vdW  Elec       q    Type
REMARK                         _______ _______ _______ _____ _____    ______ ____
ROOT
ATOM      1  C   UNL     1      47.519   7.530  14.142  0.00  0.00    +0.000 C 
ENDROOT
BRANCH   1   2
ATOM      2  C   UNL     1      46.818   6.667  13.127  0.00  0.00    +0.000 A 
ATOM      3  C   UNL     1      46.576   5.311  13.404  0.00  0.00    +0.000 A 
ATOM      4  C   UNL     1      45.787   4.541  12.549  0.00  0.00    +0.000 A 
ATOM      5  C   UNL     1      45.238   5.109  11.393  0.00  0.00    +0.000 A 
ATOM      6  C   UNL     1      45.541   6.450  11.086  0.00  0.00    +0.000 A 
ATOM      7  C   UNL     1      46.325   7.221  11.945  0.00  0.00    +0.000 A 
BRANCH   5   8
ATOM      8  C   UNL     1      44.306   4.299  10.512  0.00  0.00    +0.000 C 
BRANCH   8   9
ATOM      9  C   UNL     1      45.016   3.526   9.442  0.00  0.00    +0.000 A 
ATOM     10  N   UNL     1      45.255   2.232   9.394  0.00  0.00    +0.000 NA
ATOM     11  C   UNL     1      46.011   2.036   8.269  0.00  0.00    +0.000 A 
ATOM     12  C   UNL     1      46.205   3.219   7.601  0.00  0.00    +0.000 A 
ATOM     13  N   UNL     1      45.545   4.154   8.342  0.00  0.00    +0.000 N 
ATOM     14  H   UNL     1      45.487   5.150   8.178  0.00  0.00    +0.000 HD
ENDBRANCH   8   9
BRANCH   8  15
ATOM     15  O   UNL     1      43.378   5.176   9.851  0.00  0.00    +0.000 OA
ATOM     16  H   UNL     1      42.663   4.616   9.501  0.00  0.00    +0.000 HD
ENDBRANCH   8  15
ENDBRANCH   5   8
ENDBRANCH   1   2
BRANCH   1  18
ATOM     17  C   UNL     1      49.833   7.780  13.148  0.00  0.00    +0.000 C 
ATOM     18  N   UNL     1      48.969   7.451  14.278  0.00  0.00    +0.000 N 
ATOM     19  C   UNL     1      49.600   6.806  15.361  0.00  0.00    +0.000 C 
ATOM     20  O   UNL     1      50.816   6.617  15.364  0.00  0.00    +0.000 OA
BRANCH  19  21
ATOM     21  C   UNL     1      48.799   6.318  16.499  0.00  0.00    +0.000 A 
ATOM     22  C   UNL     1      48.339   5.019  16.653  0.00  0.00    +0.000 A 
ATOM     23  S   UNL     1      47.484   4.757  18.107  0.00  0.00    +0.000 S 
ATOM     24  C   UNL     1      47.856   6.319  18.662  0.00  0.00    +0.000 A 
ATOM     25  N   UNL     1      47.515   6.712  19.918  0.00  0.00    +0.000 NA
ATOM     26  C   UNL     1      47.929   7.895  20.228  0.00  0.00    +0.000 A 
ATOM     27  N   UNL     1      48.616   8.732  19.386  0.00  0.00    +0.000 N 
ATOM     28  C   UNL     1      48.863   8.428  18.063  0.00  0.00    +0.000 A 
ATOM     29  O   UNL     1      49.275   9.279  17.285  0.00  0.00    +0.000 OA
ATOM     30  C   UNL     1      48.524   7.062  17.707  0.00  0.00    +0.000 A 
ATOM     31  H   UNL     1      48.859   9.666  19.674  0.00  0.00    +0.000 HD
ENDBRANCH  19  21
ENDBRANCH   1  18
TORSDOF 6
ENDMDL
MODEL 8
REMARK VINA RESULT:    -6.043      3.744      4.937
REMARK INTER + INTRA:          -9.072
REMARK INTER:                  -8.266
REMARK INTRA:                  -0.806
REMARK UNBOUND:                -1.085
REMARK  Name = 
REMARK  7 active torsions:
REMARK  status: ('A' for Active; 'I' for Inactive)
REMARK    1  A    between atoms: C_1  and  N_2
REMARK    2  A    between atoms: N_2  and  C_3
REMARK    3  A    between atoms: C_3  and  C_4
REMARK    4  A    between atoms: C_7  and  C_8
REMARK    5  A    between atoms: C_8  and  O_9
REMARK    6  A    between atoms: C_8  and  C_10
REMARK    7  A    between atoms: C_17  and  C_19
REMARK                            x       y       z     vdW  Elec       q    Type
REMARK                         _______ _______ _______ _____ _____    ______ ____
ROOT
ATOM      1  C   UNL     1      46.281   6.547  12.559  0.00  0.00    +0.000 C 
ENDROOT
BRANCH   1   2
ATOM      2  C   UNL     1      47.643   7.186  12.566  0.00  0.00    +0.000 A 
ATOM      3  C   UNL     1      48.467   7.072  13.698  0.00  0.00    +0.000 A 
ATOM      4  C   UNL     1      49.790   7.516  13.663  0.00  0.00    +0.000 A 
ATOM      5  C   UNL     1      50.308   8.097  12.498  0.00  0.00    +0.000 A 
ATOM      6  C   UNL     1      49.456   8.269  11.390  0.00  0.00    +0.000 A 
ATOM      7  C   UNL     1      48.137   7.819  11.424  0.00  0.00    +0.000 A 
BRANCH   5   8
ATOM      8  C   UNL     1      51.769   8.494  12.429  0.00  0.00    +0.000 C 
BRANCH   8   9
ATOM      9  C   UNL     1      52.395   8.243  11.090  0.00  0.00    +0.000 A 
ATOM     10  N   UNL     1      52.747   7.091  10.557  0.00  0.00    +0.000 NA
ATOM     11  C   UNL     1      53.356   7.400   9.371  0.00  0.00    +0.000 A 
ATOM     12  C   UNL     1      53.344   8.756   9.158  0.00  0.00    +0.000 A 
ATOM     13  N   UNL     1      52.707   9.278  10.243  0.00  0.00    +0.000 N 
ATOM     14  H   UNL     1      52.532  10.251  10.455  0.00  0.00    +0.000 HD
ENDBRANCH   8   9
BRANCH   8  15
ATOM     15  O   UNL     1      52.524   7.741  13.392  0.00  0.00    +0.000 OA
ATOM     16  H   UNL     1      53.320   8.263  13.597  0.00  0.00    +0.000 HD
ENDBRANCH   8  15
ENDBRANCH   5   8
ENDBRANCH   1   2
BRANCH   1  18
ATOM     17  C   UNL     1      45.015   8.693  12.115  0.00  0.00    +0.000 C 
ATOM     18  N   UNL     1      45.156   7.250  11.951  0.00  0.00    +0.000 N 
ATOM     19  C   UNL     1      44.027   6.580  11.435  0.00  0.00    +0.000 C 
ATOM     20  O   UNL     1      43.030   7.205  11.078  0.00  0.00    +0.000 OA
BRANCH  19  21
ATOM     21  C   UNL     1      44.017   5.108  11.346  0.00  0.00    +0.000 A 
ATOM     22  C   UNL     1      43.277   4.264  12.161  0.00  0.00    +0.000 A 
ATOM     23  S   UNL     1      43.440   2.610  11.770  0.00  0.00    +0.000 S 
ATOM     24  C   UNL     1      44.360   2.979  10.390  0.00  0.00    +0.000 A 
ATOM     25  N   UNL     1      44.735   2.002   9.522  0.00  0.00    +0.000 NA
ATOM     26  C   UNL     1      45.362   2.439   8.480  0.00  0.00    +0.000 A 
ATOM     27  N   UNL     1      45.680   3.753   8.250  0.00  0.00    +0.000 N 
ATOM     28  C   UNL     1      45.441   4.755   9.166  0.00  0.00    +0.000 A 
ATOM     29  O   UNL     1      45.933   5.868   9.030  0.00  0.00    +0.000 OA
ATOM     30  C   UNL     1      44.630   4.332  10.293  0.00  0.00    +0.000 A 
ATOM     31  H   UNL     1      46.223   4.017   7.443  0.00  0.00    +0.000 HD
ENDBRANCH  19  21
ENDBRANCH   1  18
TORSDOF 6
ENDMDL
MODEL 9
REMARK VINA RESULT:    -5.949      3.491      4.474
REMARK INTER + INTRA:          -8.946
REMARK INTER:                  -7.991
REMARK INTRA:                  -0.955
REMARK UNBOUND:                -1.085
REMARK  Name = 
REMARK  7 active torsions:
REMARK  status: ('A' for Active; 'I' for Inactive)
REMARK    1  A    between atoms: C_1  and  N_2
REMARK    2  A    between atoms: N_2  and  C_3
REMARK    3  A    between atoms: C_3  and  C_4
REMARK    4  A    between atoms: C_7  and  C_8
REMARK    5  A    between atoms: C_8  and  O_9
REMARK    6  A    between atoms: C_8  and  C_10
REMARK    7  A    between atoms: C_17  and  C_19
REMARK                            x       y       z     vdW  Elec       q    Type
REMARK                         _______ _______ _______ _____ _____    ______ ____
ROOT
ATOM      1  C   UNL     1      46.406   6.207  12.752  0.00  0.00    +0.000 C 
ENDROOT
BRANCH   1   2
ATOM      2  C   UNL     1      47.811   6.743  12.789  0.00  0.00    +0.000 A 
ATOM      3  C   UNL     1      48.413   7.221  11.612  0.00  0.00    +0.000 A 
ATOM      4  C   UNL     1      49.647   7.869  11.658  0.00  0.00    +0.000 A 
ATOM      5  C   UNL     1      50.311   8.037  12.880  0.00  0.00    +0.000 A 
ATOM      6  C   UNL     1      49.735   7.496  14.045  0.00  0.00    +0.000 A 
ATOM      7  C   UNL     1      48.497   6.854  13.999  0.00  0.00    +0.000 A 
BRANCH   5   8
ATOM      8  C   UNL     1      51.607   8.821  12.943  0.00  0.00    +0.000 C 
BRANCH   8   9
ATOM      9  C   UNL     1      51.726   9.685  14.162  0.00  0.00    +0.000 A 
ATOM     10  N   UNL     1      51.120  10.826  14.415  0.00  0.00    +0.000 NA
ATOM     11  C   UNL     1      51.632  11.263  15.608  0.00  0.00    +0.000 A 
ATOM     12  C   UNL     1      52.535  10.359  16.109  0.00  0.00    +0.000 A 
ATOM     13  N   UNL     1      52.566   9.348  15.195  0.00  0.00    +0.000 N 
ATOM     14  H   UNL     1      53.138   8.515  15.208  0.00  0.00    +0.000 HD
ENDBRANCH   8   9
BRANCH   8  15
ATOM     15  O   UNL     1      51.705   9.691  11.803  0.00  0.00    +0.000 OA
ATOM     16  H   UNL     1      52.652   9.866  11.662  0.00  0.00    +0.000 HD
ENDBRANCH   8  15
ENDBRANCH   5   8
ENDBRANCH   1   2
BRANCH   1  18
ATOM     17  C   UNL     1      45.267   8.441  12.415  0.00  0.00    +0.000 C 
ATOM     18  N   UNL     1      45.343   7.007  12.155  0.00  0.00    +0.000 N 
ATOM     19  C   UNL     1      44.203   6.434  11.552  0.00  0.00    +0.000 C 
ATOM     20  O   UNL     1      43.253   7.133  11.204  0.00  0.00    +0.000 OA
BRANCH  19  21
ATOM     21  C   UNL     1      44.124   4.975  11.359  0.00  0.00    +0.000 A 
ATOM     22  C   UNL     1      43.347   4.111  12.117  0.00  0.00    +0.000 A 
ATOM     23  S   UNL     1      43.432   2.483  11.609  0.00  0.00    +0.000 S 
ATOM     24  C   UNL     1      44.363   2.905  10.253  0.00  0.00    +0.000 A 
ATOM     25  N   UNL     1      44.690   1.976   9.315  0.00  0.00    +0.000 NA
ATOM     26  C   UNL     1      45.334   2.455   8.303  0.00  0.00    +0.000 A 
ATOM     27  N   UNL     1      45.712   3.766   8.164  0.00  0.00    +0.000 N 
ATOM     28  C   UNL     1      45.523   4.711   9.151  0.00  0.00    +0.000 A 
ATOM     29  O   UNL     1      46.067   5.807   9.091  0.00  0.00    +0.000 OA
ATOM     30  C   UNL     1      44.696   4.247  10.250  0.00  0.00    +0.000 A 
ATOM     31  H   UNL     1      46.264   4.062   7.375  0.00  0.00    +0.000 HD
ENDBRANCH  19  21
ENDBRANCH   1  18
TORSDOF 6
ENDMDL
