MODEL 1
REMARK VINA RESULT:    -8.429      0.000      0.000
REMARK INTER + INTRA:         -14.154
REMARK INTER:                 -12.371
REMARK INTRA:                  -1.783
REMARK UNBOUND:                -1.783
REMARK  Name = 
REMARK  10 active torsions:
REMARK  status: ('A' for Active; 'I' for Inactive)
REMARK    1  A    between atoms: C_1  and  O_2
REMARK    2  A    between atoms: O_2  and  C_3
REMARK    3  A    between atoms: C_10  and  C_11
REMARK    4  A    between atoms: N_13  and  C_14
REMARK    5  A    between atoms: C_14  and  C_15
REMARK    6  A    between atoms: C_18  and  C_19
REMARK    7  A    between atoms: C_19  and  N_20
REMARK    8  A    between atoms: N_20  and  C_21
REMARK    9  A    between atoms: N_20  and  C_22
REMARK   10  A    between atoms: C_22  and  C_23
REMARK                            x       y       z     vdW  Elec       q    Type
REMARK                         _______ _______ _______ _____ _____    ______ ____
ROOT
ATOM      1  C   UNL     1      46.460   7.475  12.699  0.00  0.00    +0.000 A 
ATOM      2  C   UNL     1      47.060   6.777  11.642  0.00  0.00    +0.000 A 
ATOM      3  C   UNL     1      46.287   6.001  10.774  0.00  0.00    +0.000 A 
ATOM      4  C   UNL     1      44.900   5.900  10.954  0.00  0.00    +0.000 A 
ATOM      5  C   UNL     1      44.293   6.651  11.969  0.00  0.00    +0.000 A 
ATOM      6  C   UNL     1      45.065   7.438  12.827  0.00  0.00    +0.000 A 
ENDROOT
BRANCH   1   7
ATOM      7  C   UNL     1      47.294   8.303  13.642  0.00  0.00    +0.000 C 
BRANCH   7  10
ATOM      8  C   UNL     1      48.913   6.904  14.871  0.00  0.00    +0.000 C 
ATOM      9  O   UNL     1      49.751   6.984  13.974  0.00  0.00    +0.000 OA
ATOM     10  N   UNL     1      47.697   7.514  14.772  0.00  0.00    +0.000 N 
ATOM     11  H   UNL     1      47.010   7.392  15.504  0.00  0.00    +0.000 HD
BRANCH   8  19
ATOM     12  C   UNL     1      47.343   4.233  16.372  0.00  0.00    +0.000 A 
ATOM     13  N   UNL     1      46.936   3.216  17.156  0.00  0.00    +0.000 NA
ATOM     14  C   UNL     1      47.626   2.969  18.271  0.00  0.00    +0.000 A 
ATOM     15  N   UNL     1      48.694   3.624  18.713  0.00  0.00    +0.000 NA
ATOM     16  C   UNL     1      49.073   4.625  17.900  0.00  0.00    +0.000 A 
ATOM     17  S   UNL     1      50.422   5.570  18.307  0.00  0.00    +0.000 S 
ATOM     18  C   UNL     1      50.246   6.520  16.907  0.00  0.00    +0.000 A 
ATOM     19  C   UNL     1      49.172   6.145  16.108  0.00  0.00    +0.000 A 
ATOM     20  C   UNL     1      48.470   5.008  16.706  0.00  0.00    +0.000 A 
BRANCH  12  22
ATOM     21  C   UNL     1      47.126   3.662  14.114  0.00  0.00    +0.000 C 
ATOM     22  O   UNL     1      46.652   4.455  15.199  0.00  0.00    +0.000 OA
ENDBRANCH  12  22
ENDBRANCH   8  19
ENDBRANCH   7  10
ENDBRANCH   1   7
BRANCH   4  23
ATOM     23  C   UNL     1      44.072   4.965  10.096  0.00  0.00    +0.000 C 
BRANCH  23  24
ATOM     24  N   UNL     1      44.489   3.552  10.212  0.00  0.00    +0.000 NA
ATOM     25  C   UNL     1      43.710   2.855  11.249  0.00  0.00    +0.000 C 
BRANCH  24  26
ATOM     26  C   UNL     1      44.308   2.851   8.925  0.00  0.00    +0.000 C 
BRANCH  26  27
ATOM     27  C   UNL     1      45.597   2.437   8.254  0.00  0.00    +0.000 A 
ATOM     28  C   UNL     1      45.987   1.091   8.192  0.00  0.00    +0.000 A 
ATOM     29  C   UNL     1      47.118   0.715   7.462  0.00  0.00    +0.000 A 
ATOM     30  C   UNL     1      47.881   1.679   6.804  0.00  0.00    +0.000 A 
ATOM     31  C   UNL     1      47.537   3.025   6.907  0.00  0.00    +0.000 A 
ATOM     32  C   UNL     1      46.404   3.392   7.627  0.00  0.00    +0.000 A 
ATOM     33  F   UNL     1      46.089   4.693   7.708  0.00  0.00    +0.000 F 
ENDBRANCH  26  27
ENDBRANCH  24  26
ENDBRANCH  23  24
ENDBRANCH   4  23
TORSDOF 8
ENDMDL
MODEL 2
REMARK VINA RESULT:    -7.672      1.784      2.117
REMARK INTER + INTRA:         -13.043
REMARK INTER:                 -11.784
REMARK INTRA:                  -1.259
REMARK UNBOUND:                -1.783
REMARK  Name = 
REMARK  10 active torsions:
REMARK  status: ('A' for Active; 'I' for Inactive)
REMARK    1  A    between atoms: C_1  and  O_2
REMARK    2  A    between atoms: O_2  and  C_3
REMARK    3  A    between atoms: C_10  and  C_11
REMARK    4  A    between atoms: N_13  and  C_14
REMARK    5  A    between atoms: C_14  and  C_15
REMARK    6  A    between atoms: C_18  and  C_19
REMARK    7  A    between atoms: C_19  and  N_20
REMARK    8  A    between atoms: N_20  and  C_21
REMARK    9  A    between atoms: N_20  and  C_22
REMARK   10  A    between atoms: C_22  and  C_23
REMARK                            x       y       z     vdW  Elec       q    Type
REMARK                         _______ _______ _______ _____ _____    ______ ____
ROOT
ATOM      1  C   UNL     1      47.516   6.395  13.007  0.00  0.00    +0.000 A 
ATOM      2  C   UNL     1      47.117   6.921  11.771  0.00  0.00    +0.000 A 
ATOM      3  C   UNL     1      46.024   6.380  11.089  0.00  0.00    +0.000 A 
ATOM      4  C   UNL     1      45.316   5.295  11.626  0.00  0.00    +0.000 A 
ATOM      5  C   UNL     1      45.674   4.814  12.893  0.00  0.00    +0.000 A 
ATOM      6  C   UNL     1      46.757   5.365  13.580  0.00  0.00    +0.000 A 
ENDROOT
BRANCH   1   7
ATOM      7  C   UNL     1      48.702   6.971  13.738  0.00  0.00    +0.000 C 
BRANCH   7  10
ATOM      8  C   UNL     1      49.298   6.817  16.128  0.00  0.00    +0.000 C 
ATOM      9  O   UNL     1      50.430   6.403  15.878  0.00  0.00    +0.000 OA
ATOM     10  N   UNL     1      48.406   7.104  15.137  0.00  0.00    +0.000 N 
ATOM     11  H   UNL     1      47.467   7.396  15.373  0.00  0.00    +0.000 HD
BRANCH   8  19
ATOM     12  C   UNL     1      48.991   4.731  18.850  0.00  0.00    +0.000 A 
ATOM     13  N   UNL     1      48.778   4.152  20.047  0.00  0.00    +0.000 NA
ATOM     14  C   UNL     1      48.294   4.910  21.033  0.00  0.00    +0.000 A 
ATOM     15  N   UNL     1      47.987   6.202  20.973  0.00  0.00    +0.000 NA
ATOM     16  C   UNL     1      48.221   6.744  19.765  0.00  0.00    +0.000 A 
ATOM     17  S   UNL     1      47.889   8.388  19.506  0.00  0.00    +0.000 S 
ATOM     18  C   UNL     1      48.405   8.291  17.888  0.00  0.00    +0.000 A 
ATOM     19  C   UNL     1      48.838   7.025  17.513  0.00  0.00    +0.000 A 
ATOM     20  C   UNL     1      48.725   6.098  18.641  0.00  0.00    +0.000 A 
BRANCH  12  22
ATOM     21  C   UNL     1      48.561   3.152  17.179  0.00  0.00    +0.000 C 
ATOM     22  O   UNL     1      49.532   3.952  17.848  0.00  0.00    +0.000 OA
ENDBRANCH  12  22
ENDBRANCH   8  19
ENDBRANCH   7  10
ENDBRANCH   1   7
BRANCH   4  23
ATOM     23  C   UNL     1      44.209   4.624  10.838  0.00  0.00    +0.000 C 
BRANCH  23  24
ATOM     24  N   UNL     1      44.421   3.172  10.665  0.00  0.00    +0.000 NA
ATOM     25  C   UNL     1      43.516   2.399  11.530  0.00  0.00    +0.000 C 
BRANCH  24  26
ATOM     26  C   UNL     1      44.194   2.779   9.260  0.00  0.00    +0.000 C 
BRANCH  26  27
ATOM     27  C   UNL     1      45.454   2.452   8.491  0.00  0.00    +0.000 A 
ATOM     28  C   UNL     1      45.894   1.129   8.343  0.00  0.00    +0.000 A 
ATOM     29  C   UNL     1      46.991   0.835   7.528  0.00  0.00    +0.000 A 
ATOM     30  C   UNL     1      47.670   1.860   6.869  0.00  0.00    +0.000 A 
ATOM     31  C   UNL     1      47.278   3.184   7.056  0.00  0.00    +0.000 A 
ATOM     32  C   UNL     1      46.178   3.468   7.861  0.00  0.00    +0.000 A 
ATOM     33  F   UNL     1      45.816   4.750   8.022  0.00  0.00    +0.000 F 
ENDBRANCH  26  27
ENDBRANCH  24  26
ENDBRANCH  23  24
ENDBRANCH   4  23
TORSDOF 8
ENDMDL
MODEL 3
REMARK VINA RESULT:    -7.598      2.612      3.429
REMARK INTER + INTRA:         -12.934
REMARK INTER:                 -11.697
REMARK INTRA:                  -1.238
REMARK UNBOUND:                -1.783
REMARK  Name = 
REMARK  10 active torsions:
REMARK  status: ('A' for Active; 'I' for Inactive)
REMARK    1  A    between atoms: C_1  and  O_2
REMARK    2  A    between atoms: O_2  and  C_3
REMARK    3  A    between atoms: C_10  and  C_11
REMARK    4  A    between atoms: N_13  and  C_14
REMARK    5  A    between atoms: C_14  and  C_15
REMARK    6  A    between atoms: C_18  and  C_19
REMARK    7  A    between atoms: C_19  and  N_20
REMARK    8  A    between atoms: N_20  and  C_21
REMARK    9  A    between atoms: N_20  and  C_22
REMARK   10  A    between atoms: C_22  and  C_23
REMARK                            x       y       z     vdW  Elec       q    Type
REMARK                         _______ _______ _______ _____ _____    ______ ____
ROOT
ATOM      1  C   UNL     1      47.714   6.440  13.363  0.00  0.00    +0.000 A 
ATOM      2  C   UNL     1      47.533   7.037  12.108  0.00  0.00    +0.000 A 
ATOM      3  C   UNL     1      46.458   6.669  11.295  0.00  0.00    +0.000 A 
ATOM      4  C   UNL     1      45.550   5.688  11.717  0.00  0.00    +0.000 A 
ATOM      5  C   UNL     1      45.693   5.140  12.999  0.00  0.00    +0.000 A 
ATOM      6  C   UNL     1      46.760   5.519  13.817  0.00  0.00    +0.000 A 
ENDROOT
BRANCH   1   7
ATOM      7  C   UNL     1      48.880   6.828  14.235  0.00  0.00    +0.000 C 
BRANCH   7  10
ATOM      8  C   UNL     1      49.052   6.305  16.641  0.00  0.00    +0.000 C 
ATOM      9  O   UNL     1      50.001   5.541  16.466  0.00  0.00    +0.000 OA
ATOM     10  N   UNL     1      48.456   6.957  15.602  0.00  0.00    +0.000 N 
ATOM     11  H   UNL     1      47.648   7.541  15.770  0.00  0.00    +0.000 HD
BRANCH   8  19
ATOM     12  C   UNL     1      47.966   9.153  18.241  0.00  0.00    +0.000 A 
ATOM     13  N   UNL     1      47.486  10.088  19.084  0.00  0.00    +0.000 NA
ATOM     14  C   UNL     1      47.105   9.698  20.303  0.00  0.00    +0.000 A 
ATOM     15  N   UNL     1      47.143   8.464  20.796  0.00  0.00    +0.000 NA
ATOM     16  C   UNL     1      47.620   7.561  19.922  0.00  0.00    +0.000 A 
ATOM     17  S   UNL     1      47.738   5.932  20.382  0.00  0.00    +0.000 S 
ATOM     18  C   UNL     1      48.370   5.494  18.865  0.00  0.00    +0.000 A 
ATOM     19  C   UNL     1      48.502   6.562  17.985  0.00  0.00    +0.000 A 
ATOM     20  C   UNL     1      48.052   7.801  18.622  0.00  0.00    +0.000 A 
BRANCH  12  22
ATOM     21  C   UNL     1      49.651  10.055  16.893  0.00  0.00    +0.000 C 
ATOM     22  O   UNL     1      48.317   9.557  16.970  0.00  0.00    +0.000 OA
ENDBRANCH  12  22
ENDBRANCH   8  19
ENDBRANCH   7  10
ENDBRANCH   1   7
BRANCH   4  23
ATOM     23  C   UNL     1      44.455   5.194  10.793  0.00  0.00    +0.000 C 
BRANCH  23  24
ATOM     24  N   UNL     1      44.666   3.805  10.336  0.00  0.00    +0.000 NA
ATOM     25  C   UNL     1      43.745   2.879  11.014  0.00  0.00    +0.000 C 
BRANCH  24  26
ATOM     26  C   UNL     1      44.461   3.703   8.877  0.00  0.00    +0.000 C 
BRANCH  26  27
ATOM     27  C   UNL     1      45.582   3.011   8.136  0.00  0.00    +0.000 A 
ATOM     28  C   UNL     1      46.524   3.741   7.396  0.00  0.00    +0.000 A 
ATOM     29  C   UNL     1      47.622   3.097   6.819  0.00  0.00    +0.000 A 
ATOM     30  C   UNL     1      47.781   1.718   6.959  0.00  0.00    +0.000 A 
ATOM     31  C   UNL     1      46.820   0.976   7.642  0.00  0.00    +0.000 A 
ATOM     32  C   UNL     1      45.734   1.624   8.222  0.00  0.00    +0.000 A 
ATOM     33  F   UNL     1      44.824   0.889   8.879  0.00  0.00    +0.000 F 
ENDBRANCH  26  27
ENDBRANCH  24  26
ENDBRANCH  23  24
ENDBRANCH   4  23
TORSDOF 8
ENDMDL
MODEL 4
REMARK VINA RESULT:    -7.289      1.459      1.946
REMARK INTER + INTRA:         -12.481
REMARK INTER:                 -10.882
REMARK INTRA:                  -1.599
REMARK UNBOUND:                -1.783
REMARK  Name = 
REMARK  10 active torsions:
REMARK  status: ('A' for Active; 'I' for Inactive)
REMARK    1  A    between atoms: C_1  and  O_2
REMARK    2  A    between atoms: O_2  and  C_3
REMARK    3  A    between atoms: C_10  and  C_11
REMARK    4  A    between atoms: N_13  and  C_14
REMARK    5  A    between atoms: C_14  and  C_15
REMARK    6  A    between atoms: C_18  and  C_19
REMARK    7  A    between atoms: C_19  and  N_20
REMARK    8  A    between atoms: N_20  and  C_21
REMARK    9  A    between atoms: N_20  and  C_22
REMARK   10  A    between atoms: C_22  and  C_23
REMARK                            x       y       z     vdW  Elec       q    Type
REMARK                         _______ _______ _______ _____ _____    ______ ____
ROOT
ATOM      1  C   UNL     1      47.635   8.033  12.900  0.00  0.00    +0.000 A 
ATOM      2  C   UNL     1      47.795   6.890  12.105  0.00  0.00    +0.000 A 
ATOM      3  C   UNL     1      46.684   6.253  11.546  0.00  0.00    +0.000 A 
ATOM      4  C   UNL     1      45.391   6.742  11.782  0.00  0.00    +0.000 A 
ATOM      5  C   UNL     1      45.237   7.922  12.520  0.00  0.00    +0.000 A 
ATOM      6  C   UNL     1      46.350   8.567  13.066  0.00  0.00    +0.000 A 
ENDROOT
BRANCH   1   7
ATOM      7  C   UNL     1      48.832   8.714  13.512  0.00  0.00    +0.000 C 
BRANCH   7  10
ATOM      8  C   UNL     1      50.612   7.656  14.855  0.00  0.00    +0.000 C 
ATOM      9  O   UNL     1      51.490   7.988  14.058  0.00  0.00    +0.000 OA
ATOM     10  N   UNL     1      49.301   7.970  14.647  0.00  0.00    +0.000 N 
ATOM     11  H   UNL     1      48.596   7.642  15.294  0.00  0.00    +0.000 HD
BRANCH   8  19
ATOM     12  C   UNL     1      48.902   5.274  16.657  0.00  0.00    +0.000 A 
ATOM     13  N   UNL     1      48.465   4.345  17.530  0.00  0.00    +0.000 NA
ATOM     14  C   UNL     1      49.255   4.031  18.560  0.00  0.00    +0.000 A 
ATOM     15  N   UNL     1      50.452   4.540  18.834  0.00  0.00    +0.000 NA
ATOM     16  C   UNL     1      50.854   5.456  17.936  0.00  0.00    +0.000 A 
ATOM     17  S   UNL     1      52.362   6.210  18.127  0.00  0.00    +0.000 S 
ATOM     18  C   UNL     1      52.135   7.139  16.721  0.00  0.00    +0.000 A 
ATOM     19  C   UNL     1      50.925   6.899  16.080  0.00  0.00    +0.000 A 
ATOM     20  C   UNL     1      50.158   5.889  16.812  0.00  0.00    +0.000 A 
BRANCH  12  22
ATOM     21  C   UNL     1      47.252   4.476  15.203  0.00  0.00    +0.000 C 
ATOM     22  O   UNL     1      48.099   5.561  15.573  0.00  0.00    +0.000 OA
ENDBRANCH  12  22
ENDBRANCH   8  19
ENDBRANCH   7  10
ENDBRANCH   1   7
BRANCH   4  23
ATOM     23  C   UNL     1      44.174   5.988  11.284  0.00  0.00    +0.000 C 
BRANCH  23  24
ATOM     24  N   UNL     1      44.442   4.556  11.033  0.00  0.00    +0.000 NA
ATOM     25  C   UNL     1      43.784   3.711  12.042  0.00  0.00    +0.000 C 
BRANCH  24  26
ATOM     26  C   UNL     1      43.962   4.166   9.693  0.00  0.00    +0.000 C 
BRANCH  26  27
ATOM     27  C   UNL     1      45.019   3.553   8.805  0.00  0.00    +0.000 A 
ATOM     28  C   UNL     1      45.859   4.352   8.014  0.00  0.00    +0.000 A 
ATOM     29  C   UNL     1      46.910   3.777   7.294  0.00  0.00    +0.000 A 
ATOM     30  C   UNL     1      47.121   2.399   7.340  0.00  0.00    +0.000 A 
ATOM     31  C   UNL     1      46.258   1.590   8.075  0.00  0.00    +0.000 A 
ATOM     32  C   UNL     1      45.219   2.170   8.798  0.00  0.00    +0.000 A 
ATOM     33  F   UNL     1      44.404   1.371   9.502  0.00  0.00    +0.000 F 
ENDBRANCH  26  27
ENDBRANCH  24  26
ENDBRANCH  23  24
ENDBRANCH   4  23
TORSDOF 8
ENDMDL
MODEL 5
REMARK VINA RESULT:    -7.103      2.739      3.702
REMARK INTER + INTRA:         -12.208
REMARK INTER:                 -11.176
REMARK INTRA:                  -1.032
REMARK UNBOUND:                -1.783
REMARK  Name = 
REMARK  10 active torsions:
REMARK  status: ('A' for Active; 'I' for Inactive)
REMARK    1  A    between atoms: C_1  and  O_2
REMARK    2  A    between atoms: O_2  and  C_3
REMARK    3  A    between atoms: C_10  and  C_11
REMARK    4  A    between atoms: N_13  and  C_14
REMARK    5  A    between atoms: C_14  and  C_15
REMARK    6  A    between atoms: C_18  and  C_19
REMARK    7  A    between atoms: C_19  and  N_20
REMARK    8  A    between atoms: N_20  and  C_21
REMARK    9  A    between atoms: N_20  and  C_22
REMARK   10  A    between atoms: C_22  and  C_23
REMARK                            x       y       z     vdW  Elec       q    Type
REMARK                         _______ _______ _______ _____ _____    ______ ____
ROOT
ATOM      1  C   UNL     1      47.251   4.969  14.538  0.00  0.00    +0.000 A 
ATOM      2  C   UNL     1      47.463   6.158  13.827  0.00  0.00    +0.000 A 
ATOM      3  C   UNL     1      46.876   6.350  12.574  0.00  0.00    +0.000 A 
ATOM      4  C   UNL     1      46.074   5.352  12.003  0.00  0.00    +0.000 A 
ATOM      5  C   UNL     1      45.807   4.192  12.743  0.00  0.00    +0.000 A 
ATOM      6  C   UNL     1      46.383   4.007  14.002  0.00  0.00    +0.000 A 
ENDROOT
BRANCH   1   7
ATOM      7  C   UNL     1      47.893   4.755  15.884  0.00  0.00    +0.000 C 
BRANCH   7  10
ATOM      8  C   UNL     1      49.508   6.371  16.817  0.00  0.00    +0.000 C 
ATOM      9  O   UNL     1      50.458   5.608  16.646  0.00  0.00    +0.000 OA
ATOM     10  N   UNL     1      48.236   6.018  16.477  0.00  0.00    +0.000 N 
ATOM     11  H   UNL     1      47.468   6.646  16.674  0.00  0.00    +0.000 HD
BRANCH   8  19
ATOM     12  C   UNL     1      47.822   8.131  19.249  0.00  0.00    +0.000 A 
ATOM     13  N   UNL     1      47.358   9.022  20.146  0.00  0.00    +0.000 NA
ATOM     14  C   UNL     1      47.981  10.198  20.242  0.00  0.00    +0.000 A 
ATOM     15  N   UNL     1      49.032  10.607  19.538  0.00  0.00    +0.000 NA
ATOM     16  C   UNL     1      49.469   9.687  18.660  0.00  0.00    +0.000 A 
ATOM     17  S   UNL     1      50.806  10.037  17.676  0.00  0.00    +0.000 S 
ATOM     18  C   UNL     1      50.721   8.513  16.927  0.00  0.00    +0.000 A 
ATOM     19  C   UNL     1      49.688   7.712  17.402  0.00  0.00    +0.000 A 
ATOM     20  C   UNL     1      48.938   8.420  18.442  0.00  0.00    +0.000 A 
BRANCH  12  22
ATOM     21  C   UNL     1      47.628   6.007  20.209  0.00  0.00    +0.000 C 
ATOM     22  O   UNL     1      47.199   6.901  19.186  0.00  0.00    +0.000 OA
ENDBRANCH  12  22
ENDBRANCH   8  19
ENDBRANCH   7  10
ENDBRANCH   1   7
BRANCH   4  23
ATOM     23  C   UNL     1      45.535   5.500  10.595  0.00  0.00    +0.000 C 
BRANCH  23  24
ATOM     24  N   UNL     1      44.722   4.344  10.161  0.00  0.00    +0.000 NA
ATOM     25  C   UNL     1      43.348   4.441  10.678  0.00  0.00    +0.000 C 
BRANCH  24  26
ATOM     26  C   UNL     1      44.677   4.267   8.687  0.00  0.00    +0.000 C 
BRANCH  26  27
ATOM     27  C   UNL     1      45.631   3.262   8.085  0.00  0.00    +0.000 A 
ATOM     28  C   UNL     1      46.663   3.662   7.225  0.00  0.00    +0.000 A 
ATOM     29  C   UNL     1      47.609   2.737   6.776  0.00  0.00    +0.000 A 
ATOM     30  C   UNL     1      47.523   1.400   7.164  0.00  0.00    +0.000 A 
ATOM     31  C   UNL     1      46.468   0.980   7.971  0.00  0.00    +0.000 A 
ATOM     32  C   UNL     1      45.535   1.908   8.423  0.00  0.00    +0.000 A 
ATOM     33  F   UNL     1      44.530   1.481   9.203  0.00  0.00    +0.000 F 
ENDBRANCH  26  27
ENDBRANCH  24  26
ENDBRANCH  23  24
ENDBRANCH   4  23
TORSDOF 8
ENDMDL
MODEL 6
REMARK VINA RESULT:    -7.075      2.640      3.961
REMARK INTER + INTRA:         -12.167
REMARK INTER:                 -10.972
REMARK INTRA:                  -1.195
REMARK UNBOUND:                -1.783
REMARK  Name = 
REMARK  10 active torsions:
REMARK  status: ('A' for Active; 'I' for Inactive)
REMARK    1  A    between atoms: C_1  and  O_2
REMARK    2  A    between atoms: O_2  and  C_3
REMARK    3  A    between atoms: C_10  and  C_11
REMARK    4  A    between atoms: N_13  and  C_14
REMARK    5  A    between atoms: C_14  and  C_15
REMARK    6  A    between atoms: C_18  and  C_19
REMARK    7  A    between atoms: C_19  and  N_20
REMARK    8  A    between atoms: N_20  and  C_21
REMARK    9  A    between atoms: N_20  and  C_22
REMARK   10  A    between atoms: C_22  and  C_23
REMARK                            x       y       z     vdW  Elec       q    Type
REMARK                         _______ _______ _______ _____ _____    ______ ____
ROOT
ATOM      1  C   UNL     1      47.138   4.543  14.727  0.00  0.00    +0.000 A 
ATOM      2  C   UNL     1      46.936   5.863  14.299  0.00  0.00    +0.000 A 
ATOM      3  C   UNL     1      46.375   6.124  13.047  0.00  0.00    +0.000 A 
ATOM      4  C   UNL     1      46.015   5.071  12.194  0.00  0.00    +0.000 A 
ATOM      5  C   UNL     1      46.155   3.754  12.650  0.00  0.00    +0.000 A 
ATOM      6  C   UNL     1      46.702   3.493  13.908  0.00  0.00    +0.000 A 
ENDROOT
BRANCH   1   7
ATOM      7  C   UNL     1      47.754   4.260  16.073  0.00  0.00    +0.000 C 
BRANCH   7  10
ATOM      8  C   UNL     1      48.177   5.487  18.172  0.00  0.00    +0.000 C 
ATOM      9  O   UNL     1      48.851   4.570  18.640  0.00  0.00    +0.000 OA
ATOM     10  N   UNL     1      47.609   5.399  16.936  0.00  0.00    +0.000 N 
ATOM     11  H   UNL     1      47.019   6.148  16.598  0.00  0.00    +0.000 HD
BRANCH   8  19
ATOM     12  C   UNL     1      48.233   8.814  17.292  0.00  0.00    +0.000 A 
ATOM     13  N   UNL     1      48.185  10.158  17.222  0.00  0.00    +0.000 NA
ATOM     14  C   UNL     1      47.899  10.835  18.337  0.00  0.00    +0.000 A 
ATOM     15  N   UNL     1      47.651  10.327  19.539  0.00  0.00    +0.000 NA
ATOM     16  C   UNL     1      47.700   8.983  19.565  0.00  0.00    +0.000 A 
ATOM     17  S   UNL     1      47.406   8.162  21.020  0.00  0.00    +0.000 S 
ATOM     18  C   UNL     1      47.639   6.651  20.276  0.00  0.00    +0.000 A 
ATOM     19  C   UNL     1      47.941   6.734  18.922  0.00  0.00    +0.000 A 
ATOM     20  C   UNL     1      47.978   8.135  18.498  0.00  0.00    +0.000 A 
BRANCH  12  22
ATOM     21  C   UNL     1      49.028   8.943  15.095  0.00  0.00    +0.000 C 
ATOM     22  O   UNL     1      48.487   8.121  16.126  0.00  0.00    +0.000 OA
ENDBRANCH  12  22
ENDBRANCH   8  19
ENDBRANCH   7  10
ENDBRANCH   1   7
BRANCH   4  23
ATOM     23  C   UNL     1      45.522   5.345  10.788  0.00  0.00    +0.000 C 
BRANCH  23  24
ATOM     24  N   UNL     1      44.632   4.285  10.270  0.00  0.00    +0.000 NA
ATOM     25  C   UNL     1      43.255   4.467  10.757  0.00  0.00    +0.000 C 
BRANCH  24  26
ATOM     26  C   UNL     1      44.623   4.291   8.794  0.00  0.00    +0.000 C 
BRANCH  26  27
ATOM     27  C   UNL     1      45.572   3.300   8.160  0.00  0.00    +0.000 A 
ATOM     28  C   UNL     1      46.602   3.721   7.306  0.00  0.00    +0.000 A 
ATOM     29  C   UNL     1      47.543   2.805   6.828  0.00  0.00    +0.000 A 
ATOM     30  C   UNL     1      47.454   1.458   7.180  0.00  0.00    +0.000 A 
ATOM     31  C   UNL     1      46.400   1.019   7.979  0.00  0.00    +0.000 A 
ATOM     32  C   UNL     1      45.473   1.938   8.460  0.00  0.00    +0.000 A 
ATOM     33  F   UNL     1      44.470   1.493   9.232  0.00  0.00    +0.000 F 
ENDBRANCH  26  27
ENDBRANCH  24  26
ENDBRANCH  23  24
ENDBRANCH   4  23
TORSDOF 8
ENDMDL
MODEL 7
REMARK VINA RESULT:    -6.821      1.538      2.243
REMARK INTER + INTRA:         -11.793
REMARK INTER:                 -10.064
REMARK INTRA:                  -1.729
REMARK UNBOUND:                -1.783
REMARK  Name = 
REMARK  10 active torsions:
REMARK  status: ('A' for Active; 'I' for Inactive)
REMARK    1  A    between atoms: C_1  and  O_2
REMARK    2  A    between atoms: O_2  and  C_3
REMARK    3  A    between atoms: C_10  and  C_11
REMARK    4  A    between atoms: N_13  and  C_14
REMARK    5  A    between atoms: C_14  and  C_15
REMARK    6  A    between atoms: C_18  and  C_19
REMARK    7  A    between atoms: C_19  and  N_20
REMARK    8  A    between atoms: N_20  and  C_21
REMARK    9  A    between atoms: N_20  and  C_22
REMARK   10  A    between atoms: C_22  and  C_23
REMARK                            x       y       z     vdW  Elec       q    Type
REMARK                         _______ _______ _______ _____ _____    ______ ____
ROOT
ATOM      1  C   UNL     1      48.166   8.172  12.981  0.00  0.00    +0.000 A 
ATOM      2  C   UNL     1      46.952   8.680  13.466  0.00  0.00    +0.000 A 
ATOM      3  C   UNL     1      45.735   8.182  12.996  0.00  0.00    +0.000 A 
ATOM      4  C   UNL     1      45.708   7.175  12.021  0.00  0.00    +0.000 A 
ATOM      5  C   UNL     1      46.919   6.622  11.585  0.00  0.00    +0.000 A 
ATOM      6  C   UNL     1      48.135   7.110  12.067  0.00  0.00    +0.000 A 
ENDROOT
BRANCH   1   7
ATOM      7  C   UNL     1      49.479   8.716  13.480  0.00  0.00    +0.000 C 
BRANCH   7  10
ATOM      8  C   UNL     1      49.942   8.242  15.857  0.00  0.00    +0.000 C 
ATOM      9  O   UNL     1      49.464   9.316  16.224  0.00  0.00    +0.000 OA
ATOM     10  N   UNL     1      49.988   7.892  14.540  0.00  0.00    +0.000 N 
ATOM     11  H   UNL     1      50.430   7.025  14.264  0.00  0.00    +0.000 HD
BRANCH   8  19
ATOM     12  C   UNL     1      49.207   4.958  16.581  0.00  0.00    +0.000 A 
ATOM     13  N   UNL     1      49.132   3.700  17.056  0.00  0.00    +0.000 NA
ATOM     14  C   UNL     1      49.967   3.348  18.036  0.00  0.00    +0.000 A 
ATOM     15  N   UNL     1      50.887   4.112  18.616  0.00  0.00    +0.000 NA
ATOM     16  C   UNL     1      50.935   5.356  18.110  0.00  0.00    +0.000 A 
ATOM     17  S   UNL     1      52.055   6.470  18.731  0.00  0.00    +0.000 S 
ATOM     18  C   UNL     1      51.521   7.681  17.663  0.00  0.00    +0.000 A 
ATOM     19  C   UNL     1      50.495   7.272  16.819  0.00  0.00    +0.000 A 
ATOM     20  C   UNL     1      50.144   5.876  17.091  0.00  0.00    +0.000 A 
BRANCH  12  22
ATOM     21  C   UNL     1      47.220   4.465  15.450  0.00  0.00    +0.000 C 
ATOM     22  O   UNL     1      48.371   5.301  15.539  0.00  0.00    +0.000 OA
ENDBRANCH  12  22
ENDBRANCH   8  19
ENDBRANCH   7  10
ENDBRANCH   1   7
BRANCH   4  23
ATOM     23  C   UNL     1      44.396   6.716  11.415  0.00  0.00    +0.000 C 
BRANCH  23  24
ATOM     24  N   UNL     1      44.178   5.260  11.542  0.00  0.00    +0.000 NA
ATOM     25  C   UNL     1      43.260   4.959  12.652  0.00  0.00    +0.000 C 
BRANCH  24  26
ATOM     26  C   UNL     1      43.616   4.710  10.293  0.00  0.00    +0.000 C 
BRANCH  26  27
ATOM     27  C   UNL     1      44.563   3.819   9.522  0.00  0.00    +0.000 A 
ATOM     28  C   UNL     1      44.448   2.422   9.566  0.00  0.00    +0.000 A 
ATOM     29  C   UNL     1      45.253   1.620   8.752  0.00  0.00    +0.000 A 
ATOM     30  C   UNL     1      46.192   2.202   7.902  0.00  0.00    +0.000 A 
ATOM     31  C   UNL     1      46.356   3.585   7.893  0.00  0.00    +0.000 A 
ATOM     32  C   UNL     1      45.544   4.379   8.698  0.00  0.00    +0.000 A 
ATOM     33  F   UNL     1      45.717   5.709   8.669  0.00  0.00    +0.000 F 
ENDBRANCH  26  27
ENDBRANCH  24  26
ENDBRANCH  23  24
ENDBRANCH   4  23
TORSDOF 8
ENDMDL
MODEL 8
REMARK VINA RESULT:    -6.526      3.923      8.219
REMARK INTER + INTRA:         -11.360
REMARK INTER:                  -8.940
REMARK INTRA:                  -2.420
REMARK UNBOUND:                -1.783
REMARK  Name = 
REMARK  10 active torsions:
REMARK  status: ('A' for Active; 'I' for Inactive)
REMARK    1  A    between atoms: C_1  and  O_2
REMARK    2  A    between atoms: O_2  and  C_3
REMARK    3  A    between atoms: C_10  and  C_11
REMARK    4  A    between atoms: N_13  and  C_14
REMARK    5  A    between atoms: C_14  and  C_15
REMARK    6  A    between atoms: C_18  and  C_19
REMARK    7  A    between atoms: C_19  and  N_20
REMARK    8  A    between atoms: N_20  and  C_21
REMARK    9  A    between atoms: N_20  and  C_22
REMARK   10  A    between atoms: C_22  and  C_23
REMARK                            x       y       z     vdW  Elec       q    Type
REMARK                         _______ _______ _______ _____ _____    ______ ____
ROOT
ATOM      1  C   UNL     1      48.760   8.253  15.823  0.00  0.00    +0.000 A 
ATOM      2  C   UNL     1      48.114   8.777  16.951  0.00  0.00    +0.000 A 
ATOM      3  C   UNL     1      48.564   8.466  18.236  0.00  0.00    +0.000 A 
ATOM      4  C   UNL     1      49.663   7.614  18.418  0.00  0.00    +0.000 A 
ATOM      5  C   UNL     1      50.349   7.145  17.291  0.00  0.00    +0.000 A 
ATOM      6  C   UNL     1      49.907   7.469  16.006  0.00  0.00    +0.000 A 
ENDROOT
BRANCH   1   7
ATOM      7  C   UNL     1      48.269   8.580  14.437  0.00  0.00    +0.000 C 
BRANCH   7  10
ATOM      8  C   UNL     1      47.683   6.490  13.262  0.00  0.00    +0.000 C 
ATOM      9  O   UNL     1      48.848   6.290  12.917  0.00  0.00    +0.000 OA
ATOM     10  N   UNL     1      47.332   7.585  13.994  0.00  0.00    +0.000 N 
ATOM     11  H   UNL     1      46.360   7.749  14.222  0.00  0.00    +0.000 HD
BRANCH   8  19
ATOM     12  C   UNL     1      44.567   6.923  11.865  0.00  0.00    +0.000 A 
ATOM     13  N   UNL     1      43.331   6.807  11.342  0.00  0.00    +0.000 NA
ATOM     14  C   UNL     1      42.794   5.587  11.265  0.00  0.00    +0.000 A 
ATOM     15  N   UNL     1      43.348   4.443  11.653  0.00  0.00    +0.000 NA
ATOM     16  C   UNL     1      44.583   4.601  12.162  0.00  0.00    +0.000 A 
ATOM     17  S   UNL     1      45.443   3.244  12.708  0.00  0.00    +0.000 S 
ATOM     18  C   UNL     1      46.774   4.203  13.156  0.00  0.00    +0.000 A 
ATOM     19  C   UNL     1      46.599   5.558  12.903  0.00  0.00    +0.000 A 
ATOM     20  C   UNL     1      45.282   5.795  12.307  0.00  0.00    +0.000 A 
BRANCH  12  22
ATOM     21  C   UNL     1      44.395   9.144  11.152  0.00  0.00    +0.000 C 
ATOM     22  O   UNL     1      45.131   8.181  11.902  0.00  0.00    +0.000 OA
ENDBRANCH  12  22
ENDBRANCH   8  19
ENDBRANCH   7  10
ENDBRANCH   1   7
BRANCH   4  23
ATOM     23  C   UNL     1      50.081   7.172  19.806  0.00  0.00    +0.000 C 
BRANCH  23  24
ATOM     24  N   UNL     1      50.419   5.735  19.879  0.00  0.00    +0.000 NA
ATOM     25  C   UNL     1      51.264   5.449  21.049  0.00  0.00    +0.000 C 
BRANCH  24  26
ATOM     26  C   UNL     1      49.192   4.918  19.962  0.00  0.00    +0.000 C 
BRANCH  26  27
ATOM     27  C   UNL     1      48.783   4.272  18.659  0.00  0.00    +0.000 A 
ATOM     28  C   UNL     1      49.562   3.266  18.068  0.00  0.00    +0.000 A 
ATOM     29  C   UNL     1      49.106   2.596  16.929  0.00  0.00    +0.000 A 
ATOM     30  C   UNL     1      47.880   2.936  16.358  0.00  0.00    +0.000 A 
ATOM     31  C   UNL     1      47.125   3.973  16.902  0.00  0.00    +0.000 A 
ATOM     32  C   UNL     1      47.580   4.629  18.042  0.00  0.00    +0.000 A 
ATOM     33  F   UNL     1      46.834   5.622  18.551  0.00  0.00    +0.000 F 
ENDBRANCH  26  27
ENDBRANCH  24  26
ENDBRANCH  23  24
ENDBRANCH   4  23
TORSDOF 8
ENDMDL
MODEL 9
REMARK VINA RESULT:    -5.639      4.193      8.522
REMARK INTER + INTRA:         -10.059
REMARK INTER:                  -8.382
REMARK INTRA:                  -1.677
REMARK UNBOUND:                -1.783
REMARK  Name = 
REMARK  10 active torsions:
REMARK  status: ('A' for Active; 'I' for Inactive)
REMARK    1  A    between atoms: C_1  and  O_2
REMARK    2  A    between atoms: O_2  and  C_3
REMARK    3  A    between atoms: C_10  and  C_11
REMARK    4  A    between atoms: N_13  and  C_14
REMARK    5  A    between atoms: C_14  and  C_15
REMARK    6  A    between atoms: C_18  and  C_19
REMARK    7  A    between atoms: C_19  and  N_20
REMARK    8  A    between atoms: N_20  and  C_21
REMARK    9  A    between atoms: N_20  and  C_22
REMARK   10  A    between atoms: C_22  and  C_23
REMARK                            x       y       z     vdW  Elec       q    Type
REMARK                         _______ _______ _______ _____ _____    ______ ____
ROOT
ATOM      1  C   UNL     1      49.282   8.669  15.378  0.00  0.00    +0.000 A 
ATOM      2  C   UNL     1      48.241   9.142  16.189  0.00  0.00    +0.000 A 
ATOM      3  C   UNL     1      48.298   8.992  17.577  0.00  0.00    +0.000 A 
ATOM      4  C   UNL     1      49.392   8.354  18.179  0.00  0.00    +0.000 A 
ATOM      5  C   UNL     1      50.462   7.942  17.374  0.00  0.00    +0.000 A 
ATOM      6  C   UNL     1      50.411   8.106  15.988  0.00  0.00    +0.000 A 
ENDROOT
BRANCH   1   7
ATOM      7  C   UNL     1      49.216   8.821  13.880  0.00  0.00    +0.000 C 
BRANCH   7  10
ATOM      8  C   UNL     1      47.818   7.029  12.919  0.00  0.00    +0.000 C 
ATOM      9  O   UNL     1      48.757   6.234  12.887  0.00  0.00    +0.000 OA
ATOM     10  N   UNL     1      47.973   8.302  13.382  0.00  0.00    +0.000 N 
ATOM     11  H   UNL     1      47.195   8.948  13.351  0.00  0.00    +0.000 HD
BRANCH   8  19
ATOM     12  C   UNL     1      46.033   4.087  13.002  0.00  0.00    +0.000 A 
ATOM     13  N   UNL     1      45.130   3.092  12.907  0.00  0.00    +0.000 NA
ATOM     14  C   UNL     1      43.958   3.360  12.326  0.00  0.00    +0.000 A 
ATOM     15  N   UNL     1      43.567   4.523  11.816  0.00  0.00    +0.000 NA
ATOM     16  C   UNL     1      44.492   5.491  11.937  0.00  0.00    +0.000 A 
ATOM     17  S   UNL     1      44.161   7.045  11.341  0.00  0.00    +0.000 S 
ATOM     18  C   UNL     1      45.685   7.616  11.836  0.00  0.00    +0.000 A 
ATOM     19  C   UNL     1      46.469   6.652  12.458  0.00  0.00    +0.000 A 
ATOM     20  C   UNL     1      45.751   5.378  12.517  0.00  0.00    +0.000 A 
BRANCH  12  22
ATOM     21  C   UNL     1      47.146   3.974  15.056  0.00  0.00    +0.000 C 
ATOM     22  O   UNL     1      47.224   3.813  13.642  0.00  0.00    +0.000 OA
ENDBRANCH  12  22
ENDBRANCH   8  19
ENDBRANCH   7  10
ENDBRANCH   1   7
BRANCH   4  23
ATOM     23  C   UNL     1      49.405   8.076  19.669  0.00  0.00    +0.000 C 
BRANCH  23  24
ATOM     24  N   UNL     1      50.525   7.206  20.086  0.00  0.00    +0.000 NA
ATOM     25  C   UNL     1      51.328   7.848  21.139  0.00  0.00    +0.000 C 
BRANCH  24  26
ATOM     26  C   UNL     1      50.017   5.915  20.590  0.00  0.00    +0.000 C 
BRANCH  26  27
ATOM     27  C   UNL     1      49.958   4.819  19.550  0.00  0.00    +0.000 A 
ATOM     28  C   UNL     1      48.762   4.137  19.279  0.00  0.00    +0.000 A 
ATOM     29  C   UNL     1      48.697   3.215  18.231  0.00  0.00    +0.000 A 
ATOM     30  C   UNL     1      49.826   2.949  17.457  0.00  0.00    +0.000 A 
ATOM     31  C   UNL     1      51.034   3.577  17.755  0.00  0.00    +0.000 A 
ATOM     32  C   UNL     1      51.090   4.503  18.794  0.00  0.00    +0.000 A 
ATOM     33  F   UNL     1      52.262   5.098  19.059  0.00  0.00    +0.000 F 
ENDBRANCH  26  27
ENDBRANCH  24  26
ENDBRANCH  23  24
ENDBRANCH   4  23
TORSDOF 8
ENDMDL
