MODEL 1
REMARK VINA RESULT:    -7.819      0.000      0.000
REMARK INTER + INTRA:         -11.242
REMARK INTER:                 -10.790
REMARK INTRA:                  -0.452
REMARK UNBOUND:                -0.452
REMARK  Name = 
REMARK  10 active torsions:
REMARK  status: ('A' for Active; 'I' for Inactive)
REMARK    1  A    between atoms: C_1  and  C_2
REMARK    2  A    between atoms: C_2  and  C_3
REMARK    3  A    between atoms: C_2  and  C_4
REMARK    4  A    between atoms: C_2  and  C_5
REMARK    5  A    between atoms: C_7  and  O_8
REMARK    6  A    between atoms: O_8  and  C_9
REMARK    7  A    between atoms: C_9  and  C_10
REMARK    8  A    between atoms: C_13  and  C_14
REMARK    9  A    between atoms: C_14  and  N_15
REMARK   10  A    between atoms: C_20  and  C_21
REMARK                            x       y       z     vdW  Elec       q    Type
REMARK                         _______ _______ _______ _____ _____    ______ ____
ROOT
ATOM      1  C   UNL     1      46.320   6.211  12.740  0.00  0.00    +0.000 A 
ATOM      2  N   UNL     1      45.339   5.491  12.109  0.00  0.00    +0.000 NA
ATOM      3  C   UNL     1      45.151   4.200  12.419  0.00  0.00    +0.000 A 
ATOM      4  N   UNL     1      45.872   3.531  13.317  0.00  0.00    +0.000 NA
ATOM      5  C   UNL     1      46.849   4.248  13.919  0.00  0.00    +0.000 A 
ATOM      6  C   UNL     1      47.121   5.594  13.704  0.00  0.00    +0.000 A 
ENDROOT
BRANCH   6   7
ATOM      7  C   UNL     1      48.233   6.217  14.475  0.00  0.00    +0.000 C 
ATOM      8  N   UNL     1      48.098   6.332  15.836  0.00  0.00    +0.000 N 
ATOM      9  O   UNL     1      49.267   6.622  13.972  0.00  0.00    +0.000 OA
ATOM     10  H   UNL     1      47.271   6.116  16.371  0.00  0.00    +0.000 HD
ATOM     11  H   UNL     1      48.853   6.816  16.309  0.00  0.00    +0.000 HD
ENDBRANCH   6   7
BRANCH   1  13
ATOM     12  C   UNL     1      45.130   8.053  11.448  0.00  0.00    +0.000 C 
ATOM     13  C   UNL     1      46.365   7.702  12.337  0.00  0.00    +0.000 C 
ATOM     14  C   UNL     1      47.579   8.046  11.453  0.00  0.00    +0.000 C 
ATOM     15  C   UNL     1      46.342   8.632  13.568  0.00  0.00    +0.000 C 
ENDBRANCH   1  13
BRANCH   3  16
ATOM     16  O   UNL     1      44.109   3.582  11.752  0.00  0.00    +0.000 OA
BRANCH  16  17
ATOM     17  C   UNL     1      43.869   4.124  10.452  0.00  0.00    +0.000 C 
BRANCH  17  18
ATOM     18  C   UNL     1      44.774   3.493   9.404  0.00  0.00    +0.000 A 
ATOM     19  C   UNL     1      45.496   4.310   8.518  0.00  0.00    +0.000 A 
ATOM     20  C   UNL     1      46.388   3.758   7.587  0.00  0.00    +0.000 A 
ATOM     21  C   UNL     1      46.588   2.373   7.526  0.00  0.00    +0.000 A 
ATOM     22  C   UNL     1      45.874   1.557   8.416  0.00  0.00    +0.000 A 
ATOM     23  C   UNL     1      44.985   2.110   9.347  0.00  0.00    +0.000 A 
BRANCH  21  24
ATOM     24  C   UNL     1      47.522   1.763   6.508  0.00  0.00    +0.000 C 
BRANCH  24  25
ATOM     25  N   UNL     1      48.723   2.569   6.312  0.00  0.00    +0.000 NA
ATOM     26  H   UNL     1      49.541   1.982   6.467  0.00  0.00    +0.000 HD
ATOM     27  H   UNL     1      48.754   3.302   7.017  0.00  0.00    +0.000 HD
ENDBRANCH  24  25
ENDBRANCH  21  24
ENDBRANCH  17  18
ENDBRANCH  16  17
ENDBRANCH   3  16
TORSDOF 7
ENDMDL
MODEL 2
REMARK VINA RESULT:    -7.316      1.771      2.788
REMARK INTER + INTRA:         -10.547
REMARK INTER:                 -10.397
REMARK INTRA:                  -0.150
REMARK UNBOUND:                -0.452
REMARK  Name = 
REMARK  10 active torsions:
REMARK  status: ('A' for Active; 'I' for Inactive)
REMARK    1  A    between atoms: C_1  and  C_2
REMARK    2  A    between atoms: C_2  and  C_3
REMARK    3  A    between atoms: C_2  and  C_4
REMARK    4  A    between atoms: C_2  and  C_5
REMARK    5  A    between atoms: C_7  and  O_8
REMARK    6  A    between atoms: O_8  and  C_9
REMARK    7  A    between atoms: C_9  and  C_10
REMARK    8  A    between atoms: C_13  and  C_14
REMARK    9  A    between atoms: C_14  and  N_15
REMARK   10  A    between atoms: C_20  and  C_21
REMARK                            x       y       z     vdW  Elec       q    Type
REMARK                         _______ _______ _______ _____ _____    ______ ____
ROOT
ATOM      1  C   UNL     1      46.316   6.888  12.342  0.00  0.00    +0.000 A 
ATOM      2  N   UNL     1      46.152   5.533  12.219  0.00  0.00    +0.000 NA
ATOM      3  C   UNL     1      45.013   5.039  11.713  0.00  0.00    +0.000 A 
ATOM      4  N   UNL     1      43.984   5.785  11.314  0.00  0.00    +0.000 NA
ATOM      5  C   UNL     1      44.152   7.120  11.457  0.00  0.00    +0.000 A 
ATOM      6  C   UNL     1      45.292   7.750  11.940  0.00  0.00    +0.000 A 
ENDROOT
BRANCH   6   7
ATOM      7  C   UNL     1      45.295   9.238  12.011  0.00  0.00    +0.000 C 
ATOM      8  N   UNL     1      44.338   9.854  12.777  0.00  0.00    +0.000 N 
ATOM      9  O   UNL     1      46.106   9.946  11.439  0.00  0.00    +0.000 OA
ATOM     10  H   UNL     1      43.562   9.403  13.235  0.00  0.00    +0.000 HD
ATOM     11  H   UNL     1      44.343  10.869  12.746  0.00  0.00    +0.000 HD
ENDBRANCH   6   7
BRANCH   1  13
ATOM     12  C   UNL     1      48.403   6.100  13.568  0.00  0.00    +0.000 C 
ATOM     13  C   UNL     1      47.708   7.310  12.866  0.00  0.00    +0.000 C 
ATOM     14  C   UNL     1      47.633   8.393  13.959  0.00  0.00    +0.000 C 
ATOM     15  C   UNL     1      48.631   7.789  11.726  0.00  0.00    +0.000 C 
ENDBRANCH   1  13
BRANCH   3  16
ATOM     16  O   UNL     1      44.971   3.662  11.597  0.00  0.00    +0.000 OA
BRANCH  16  17
ATOM     17  C   UNL     1      44.149   3.209  10.519  0.00  0.00    +0.000 C 
BRANCH  17  18
ATOM     18  C   UNL     1      44.952   3.033   9.238  0.00  0.00    +0.000 A 
ATOM     19  C   UNL     1      45.216   4.142   8.418  0.00  0.00    +0.000 A 
ATOM     20  C   UNL     1      46.008   4.021   7.267  0.00  0.00    +0.000 A 
ATOM     21  C   UNL     1      46.566   2.786   6.913  0.00  0.00    +0.000 A 
ATOM     22  C   UNL     1      46.309   1.679   7.735  0.00  0.00    +0.000 A 
ATOM     23  C   UNL     1      45.520   1.802   8.886  0.00  0.00    +0.000 A 
BRANCH  21  24
ATOM     24  C   UNL     1      47.395   2.634   5.660  0.00  0.00    +0.000 C 
BRANCH  24  25
ATOM     25  N   UNL     1      48.509   1.710   5.846  0.00  0.00    +0.000 NA
ATOM     26  H   UNL     1      48.139   0.764   5.935  0.00  0.00    +0.000 HD
ATOM     27  H   UNL     1      48.977   1.922   6.724  0.00  0.00    +0.000 HD
ENDBRANCH  24  25
ENDBRANCH  21  24
ENDBRANCH  17  18
ENDBRANCH  16  17
ENDBRANCH   3  16
TORSDOF 7
ENDMDL
MODEL 3
REMARK VINA RESULT:    -6.673      2.247      3.776
REMARK INTER + INTRA:          -9.660
REMARK INTER:                  -9.471
REMARK INTRA:                  -0.189
REMARK UNBOUND:                -0.452
REMARK  Name = 
REMARK  10 active torsions:
REMARK  status: ('A' for Active; 'I' for Inactive)
REMARK    1  A    between atoms: C_1  and  C_2
REMARK    2  A    between atoms: C_2  and  C_3
REMARK    3  A    between atoms: C_2  and  C_4
REMARK    4  A    between atoms: C_2  and  C_5
REMARK    5  A    between atoms: C_7  and  O_8
REMARK    6  A    between atoms: O_8  and  C_9
REMARK    7  A    between atoms: C_9  and  C_10
REMARK    8  A    between atoms: C_13  and  C_14
REMARK    9  A    between atoms: C_14  and  N_15
REMARK   10  A    between atoms: C_20  and  C_21
REMARK                            x       y       z     vdW  Elec       q    Type
REMARK                         _______ _______ _______ _____ _____    ______ ____
ROOT
ATOM      1  C   UNL     1      47.749   4.702  16.010  0.00  0.00    +0.000 A 
ATOM      2  N   UNL     1      46.770   4.076  15.284  0.00  0.00    +0.000 NA
ATOM      3  C   UNL     1      46.428   4.545  14.074  0.00  0.00    +0.000 A 
ATOM      4  N   UNL     1      46.976   5.616  13.503  0.00  0.00    +0.000 NA
ATOM      5  C   UNL     1      47.929   6.235  14.238  0.00  0.00    +0.000 A 
ATOM      6  C   UNL     1      48.387   5.830  15.485  0.00  0.00    +0.000 A 
ENDROOT
BRANCH   6   7
ATOM      7  C   UNL     1      49.457   6.636  16.136  0.00  0.00    +0.000 C 
ATOM      8  N   UNL     1      49.117   7.845  16.689  0.00  0.00    +0.000 N 
ATOM      9  O   UNL     1      50.621   6.282  16.219  0.00  0.00    +0.000 OA
ATOM     10  H   UNL     1      48.218   8.296  16.623  0.00  0.00    +0.000 HD
ATOM     11  H   UNL     1      49.889   8.384  17.066  0.00  0.00    +0.000 HD
ENDBRANCH   6   7
BRANCH   1  13
ATOM     12  C   UNL     1      49.513   3.372  17.273  0.00  0.00    +0.000 C 
ATOM     13  C   UNL     1      48.087   4.004  17.346  0.00  0.00    +0.000 C 
ATOM     14  C   UNL     1      47.159   2.813  17.651  0.00  0.00    +0.000 C 
ATOM     15  C   UNL     1      48.068   4.991  18.532  0.00  0.00    +0.000 C 
ENDBRANCH   1  13
BRANCH   3  16
ATOM     16  O   UNL     1      45.458   3.814  13.414  0.00  0.00    +0.000 OA
BRANCH  16  17
ATOM     17  C   UNL     1      44.652   4.604  12.538  0.00  0.00    +0.000 C 
BRANCH  17  18
ATOM     18  C   UNL     1      44.901   4.254  11.078  0.00  0.00    +0.000 A 
ATOM     19  C   UNL     1      45.463   5.209  10.214  0.00  0.00    +0.000 A 
ATOM     20  C   UNL     1      45.765   4.892   8.882  0.00  0.00    +0.000 A 
ATOM     21  C   UNL     1      45.521   3.607   8.382  0.00  0.00    +0.000 A 
ATOM     22  C   UNL     1      44.968   2.651   9.245  0.00  0.00    +0.000 A 
ATOM     23  C   UNL     1      44.669   2.967  10.577  0.00  0.00    +0.000 A 
BRANCH  21  24
ATOM     24  C   UNL     1      45.813   3.262   6.941  0.00  0.00    +0.000 C 
BRANCH  24  25
ATOM     25  N   UNL     1      46.914   4.052   6.398  0.00  0.00    +0.000 NA
ATOM     26  H   UNL     1      47.791   3.690   6.767  0.00  0.00    +0.000 HD
ATOM     27  H   UNL     1      46.833   5.010   6.729  0.00  0.00    +0.000 HD
ENDBRANCH  24  25
ENDBRANCH  21  24
ENDBRANCH  17  18
ENDBRANCH  16  17
ENDBRANCH   3  16
TORSDOF 7
ENDMDL
MODEL 4
REMARK VINA RESULT:    -6.640      3.637      7.328
REMARK INTER + INTRA:          -9.615
REMARK INTER:                  -9.219
REMARK INTRA:                  -0.396
REMARK UNBOUND:                -0.452
REMARK  Name = 
REMARK  10 active torsions:
REMARK  status: ('A' for Active; 'I' for Inactive)
REMARK    1  A    between atoms: C_1  and  C_2
REMARK    2  A    between atoms: C_2  and  C_3
REMARK    3  A    between atoms: C_2  and  C_4
REMARK    4  A    between atoms: C_2  and  C_5
REMARK    5  A    between atoms: C_7  and  O_8
REMARK    6  A    between atoms: O_8  and  C_9
REMARK    7  A    between atoms: C_9  and  C_10
REMARK    8  A    between atoms: C_13  and  C_14
REMARK    9  A    between atoms: C_14  and  N_15
REMARK   10  A    between atoms: C_20  and  C_21
REMARK                            x       y       z     vdW  Elec       q    Type
REMARK                         _______ _______ _______ _____ _____    ______ ____
ROOT
ATOM      1  C   UNL     1      47.054   5.836  13.006  0.00  0.00    +0.000 A 
ATOM      2  N   UNL     1      47.524   4.953  13.943  0.00  0.00    +0.000 NA
ATOM      3  C   UNL     1      46.995   3.723  14.030  0.00  0.00    +0.000 A 
ATOM      4  N   UNL     1      46.007   3.276  13.258  0.00  0.00    +0.000 NA
ATOM      5  C   UNL     1      45.539   4.164  12.349  0.00  0.00    +0.000 A 
ATOM      6  C   UNL     1      46.022   5.450  12.146  0.00  0.00    +0.000 A 
ENDROOT
BRANCH   6   7
ATOM      7  C   UNL     1      45.386   6.279  11.084  0.00  0.00    +0.000 C 
ATOM      8  N   UNL     1      45.588   5.926   9.774  0.00  0.00    +0.000 N 
ATOM      9  O   UNL     1      44.683   7.250  11.307  0.00  0.00    +0.000 OA
ATOM     10  H   UNL     1      46.207   5.203   9.442  0.00  0.00    +0.000 HD
ATOM     11  H   UNL     1      45.186   6.555   9.086  0.00  0.00    +0.000 HD
ENDBRANCH   6   7
BRANCH   1  13
ATOM     12  C   UNL     1      48.988   7.159  14.000  0.00  0.00    +0.000 C 
ATOM     13  C   UNL     1      47.811   7.183  12.974  0.00  0.00    +0.000 C 
ATOM     14  C   UNL     1      46.939   8.371  13.422  0.00  0.00    +0.000 C 
ATOM     15  C   UNL     1      48.406   7.475  11.579  0.00  0.00    +0.000 C 
ENDBRANCH   1  13
BRANCH   3  16
ATOM     16  O   UNL     1      47.571   2.902  14.981  0.00  0.00    +0.000 OA
BRANCH  16  17
ATOM     17  C   UNL     1      47.670   3.512  16.270  0.00  0.00    +0.000 C 
BRANCH  17  18
ATOM     18  C   UNL     1      49.060   3.345  16.865  0.00  0.00    +0.000 A 
ATOM     19  C   UNL     1      49.686   2.087  16.842  0.00  0.00    +0.000 A 
ATOM     20  C   UNL     1      50.993   1.919  17.323  0.00  0.00    +0.000 A 
ATOM     21  C   UNL     1      51.711   3.009  17.831  0.00  0.00    +0.000 A 
ATOM     22  C   UNL     1      51.090   4.266  17.846  0.00  0.00    +0.000 A 
ATOM     23  C   UNL     1      49.786   4.434  17.363  0.00  0.00    +0.000 A 
BRANCH  21  24
ATOM     24  C   UNL     1      53.107   2.836  18.380  0.00  0.00    +0.000 C 
BRANCH  24  25
ATOM     25  N   UNL     1      53.160   3.046  19.823  0.00  0.00    +0.000 NA
ATOM     26  H   UNL     1      53.585   2.229  20.259  0.00  0.00    +0.000 HD
ATOM     27  H   UNL     1      52.213   3.110  20.187  0.00  0.00    +0.000 HD
ENDBRANCH  24  25
ENDBRANCH  21  24
ENDBRANCH  17  18
ENDBRANCH  16  17
ENDBRANCH   3  16
TORSDOF 7
ENDMDL
MODEL 5
REMARK VINA RESULT:    -6.392      1.560      2.070
REMARK INTER + INTRA:          -9.273
REMARK INTER:                  -9.065
REMARK INTRA:                  -0.208
REMARK UNBOUND:                -0.452
REMARK  Name = 
REMARK  10 active torsions:
REMARK  status: ('A' for Active; 'I' for Inactive)
REMARK    1  A    between atoms: C_1  and  C_2
REMARK    2  A    between atoms: C_2  and  C_3
REMARK    3  A    between atoms: C_2  and  C_4
REMARK    4  A    between atoms: C_2  and  C_5
REMARK    5  A    between atoms: C_7  and  O_8
REMARK    6  A    between atoms: O_8  and  C_9
REMARK    7  A    between atoms: C_9  and  C_10
REMARK    8  A    between atoms: C_13  and  C_14
REMARK    9  A    between atoms: C_14  and  N_15
REMARK   10  A    between atoms: C_20  and  C_21
REMARK                            x       y       z     vdW  Elec       q    Type
REMARK                         _______ _______ _______ _____ _____    ______ ____
ROOT
ATOM      1  C   UNL     1      47.806   6.692  13.978  0.00  0.00    +0.000 A 
ATOM      2  N   UNL     1      47.076   6.690  12.818  0.00  0.00    +0.000 NA
ATOM      3  C   UNL     1      46.202   5.701  12.578  0.00  0.00    +0.000 A 
ATOM      4  N   UNL     1      45.984   4.677  13.400  0.00  0.00    +0.000 NA
ATOM      5  C   UNL     1      46.724   4.682  14.533  0.00  0.00    +0.000 A 
ATOM      6  C   UNL     1      47.637   5.661  14.905  0.00  0.00    +0.000 A 
ENDROOT
BRANCH   6   7
ATOM      7  C   UNL     1      48.350   5.499  16.203  0.00  0.00    +0.000 C 
ATOM      8  N   UNL     1      47.727   5.931  17.347  0.00  0.00    +0.000 N 
ATOM      9  O   UNL     1      49.453   4.993  16.315  0.00  0.00    +0.000 OA
ATOM     10  H   UNL     1      46.857   6.438  17.394  0.00  0.00    +0.000 HD
ATOM     11  H   UNL     1      48.276   5.855  18.197  0.00  0.00    +0.000 HD
ENDBRANCH   6   7
BRANCH   1  13
ATOM     12  C   UNL     1      48.236   8.775  15.375  0.00  0.00    +0.000 C 
ATOM     13  C   UNL     1      48.711   7.932  14.150  0.00  0.00    +0.000 C 
ATOM     14  C   UNL     1      48.624   8.907  12.960  0.00  0.00    +0.000 C 
ATOM     15  C   UNL     1      50.185   7.540  14.389  0.00  0.00    +0.000 C 
ENDBRANCH   1  13
BRANCH   3  16
ATOM     16  O   UNL     1      45.491   5.820  11.398  0.00  0.00    +0.000 OA
BRANCH  16  17
ATOM     17  C   UNL     1      44.729   4.655  11.076  0.00  0.00    +0.000 C 
BRANCH  17  18
ATOM     18  C   UNL     1      45.227   3.993   9.801  0.00  0.00    +0.000 A 
ATOM     19  C   UNL     1      45.802   4.773   8.783  0.00  0.00    +0.000 A 
ATOM     20  C   UNL     1      46.329   4.181   7.627  0.00  0.00    +0.000 A 
ATOM     21  C   UNL     1      46.305   2.791   7.463  0.00  0.00    +0.000 A 
ATOM     22  C   UNL     1      45.739   2.010   8.481  0.00  0.00    +0.000 A 
ATOM     23  C   UNL     1      45.215   2.602   9.637  0.00  0.00    +0.000 A 
BRANCH  21  24
ATOM     24  C   UNL     1      46.842   2.143   6.208  0.00  0.00    +0.000 C 
BRANCH  24  25
ATOM     25  N   UNL     1      48.037   1.346   6.469  0.00  0.00    +0.000 NA
ATOM     26  H   UNL     1      48.777   1.647   5.837  0.00  0.00    +0.000 HD
ATOM     27  H   UNL     1      47.844   0.372   6.247  0.00  0.00    +0.000 HD
ENDBRANCH  24  25
ENDBRANCH  21  24
ENDBRANCH  17  18
ENDBRANCH  16  17
ENDBRANCH   3  16
TORSDOF 7
ENDMDL
MODEL 6
REMARK VINA RESULT:    -6.313      2.958      4.405
REMARK INTER + INTRA:          -9.164
REMARK INTER:                  -8.900
REMARK INTRA:                  -0.264
REMARK UNBOUND:                -0.452
REMARK  Name = 
REMARK  10 active torsions:
REMARK  status: ('A' for Active; 'I' for Inactive)
REMARK    1  A    between atoms: C_1  and  C_2
REMARK    2  A    between atoms: C_2  and  C_3
REMARK    3  A    between atoms: C_2  and  C_4
REMARK    4  A    between atoms: C_2  and  C_5
REMARK    5  A    between atoms: C_7  and  O_8
REMARK    6  A    between atoms: O_8  and  C_9
REMARK    7  A    between atoms: C_9  and  C_10
REMARK    8  A    between atoms: C_13  and  C_14
REMARK    9  A    between atoms: C_14  and  N_15
REMARK   10  A    between atoms: C_20  and  C_21
REMARK                            x       y       z     vdW  Elec       q    Type
REMARK                         _______ _______ _______ _____ _____    ______ ____
ROOT
ATOM      1  C   UNL     1      48.713   5.513  16.658  0.00  0.00    +0.000 A 
ATOM      2  N   UNL     1      48.050   5.077  15.540  0.00  0.00    +0.000 NA
ATOM      3  C   UNL     1      47.155   4.083  15.637  0.00  0.00    +0.000 A 
ATOM      4  N   UNL     1      46.852   3.455  16.771  0.00  0.00    +0.000 NA
ATOM      5  C   UNL     1      47.526   3.882  17.863  0.00  0.00    +0.000 A 
ATOM      6  C   UNL     1      48.452   4.917  17.895  0.00  0.00    +0.000 A 
ENDROOT
BRANCH   6   7
ATOM      7  C   UNL     1      49.084   5.254  19.201  0.00  0.00    +0.000 C 
ATOM      8  N   UNL     1      50.169   4.520  19.609  0.00  0.00    +0.000 N 
ATOM      9  O   UNL     1      48.703   6.154  19.930  0.00  0.00    +0.000 OA
ATOM     10  H   UNL     1      50.538   3.702  19.151  0.00  0.00    +0.000 HD
ATOM     11  H   UNL     1      50.527   4.747  20.531  0.00  0.00    +0.000 HD
ENDBRANCH   6   7
BRANCH   1  13
ATOM     12  C   UNL     1      49.633   7.098  14.892  0.00  0.00    +0.000 C 
ATOM     13  C   UNL     1      49.653   6.713  16.405  0.00  0.00    +0.000 C 
ATOM     14  C   UNL     1      51.131   6.388  16.695  0.00  0.00    +0.000 C 
ATOM     15  C   UNL     1      49.229   7.957  17.216  0.00  0.00    +0.000 C 
ENDBRANCH   1  13
BRANCH   3  16
ATOM     16  O   UNL     1      46.517   3.752  14.456  0.00  0.00    +0.000 OA
BRANCH  16  17
ATOM     17  C   UNL     1      45.863   4.860  13.835  0.00  0.00    +0.000 C 
BRANCH  17  18
ATOM     18  C   UNL     1      45.630   4.614  12.352  0.00  0.00    +0.000 A 
ATOM     19  C   UNL     1      45.104   3.385  11.918  0.00  0.00    +0.000 A 
ATOM     20  C   UNL     1      44.818   3.156  10.565  0.00  0.00    +0.000 A 
ATOM     21  C   UNL     1      45.040   4.156   9.610  0.00  0.00    +0.000 A 
ATOM     22  C   UNL     1      45.558   5.385  10.042  0.00  0.00    +0.000 A 
ATOM     23  C   UNL     1      45.841   5.614  11.394  0.00  0.00    +0.000 A 
BRANCH  21  24
ATOM     24  C   UNL     1      44.765   3.912   8.145  0.00  0.00    +0.000 C 
BRANCH  24  25
ATOM     25  N   UNL     1      45.980   3.979   7.339  0.00  0.00    +0.000 NA
ATOM     26  H   UNL     1      45.858   4.692   6.621  0.00  0.00    +0.000 HD
ATOM     27  H   UNL     1      46.107   3.095   6.851  0.00  0.00    +0.000 HD
ENDBRANCH  24  25
ENDBRANCH  21  24
ENDBRANCH  17  18
ENDBRANCH  16  17
ENDBRANCH   3  16
TORSDOF 7
ENDMDL
MODEL 7
REMARK VINA RESULT:    -6.294      3.593      7.503
REMARK INTER + INTRA:          -9.137
REMARK INTER:                  -8.984
REMARK INTRA:                  -0.153
REMARK UNBOUND:                -0.452
REMARK  Name = 
REMARK  10 active torsions:
REMARK  status: ('A' for Active; 'I' for Inactive)
REMARK    1  A    between atoms: C_1  and  C_2
REMARK    2  A    between atoms: C_2  and  C_3
REMARK    3  A    between atoms: C_2  and  C_4
REMARK    4  A    between atoms: C_2  and  C_5
REMARK    5  A    between atoms: C_7  and  O_8
REMARK    6  A    between atoms: O_8  and  C_9
REMARK    7  A    between atoms: C_9  and  C_10
REMARK    8  A    between atoms: C_13  and  C_14
REMARK    9  A    between atoms: C_14  and  N_15
REMARK   10  A    between atoms: C_20  and  C_21
REMARK                            x       y       z     vdW  Elec       q    Type
REMARK                         _______ _______ _______ _____ _____    ______ ____
ROOT
ATOM      1  C   UNL     1      45.403   4.264  12.336  0.00  0.00    +0.000 A 
ATOM      2  N   UNL     1      45.962   3.422  13.262  0.00  0.00    +0.000 NA
ATOM      3  C   UNL     1      47.044   3.809  13.954  0.00  0.00    +0.000 A 
ATOM      4  N   UNL     1      47.649   4.986  13.803  0.00  0.00    +0.000 NA
ATOM      5  C   UNL     1      47.098   5.800  12.873  0.00  0.00    +0.000 A 
ATOM      6  C   UNL     1      45.966   5.524  12.117  0.00  0.00    +0.000 A 
ENDROOT
BRANCH   6   7
ATOM      7  C   UNL     1      45.500   6.555  11.148  0.00  0.00    +0.000 C 
ATOM      8  N   UNL     1      45.643   6.302   9.808  0.00  0.00    +0.000 N 
ATOM      9  O   UNL     1      44.984   7.611  11.473  0.00  0.00    +0.000 OA
ATOM     10  H   UNL     1      46.122   5.514   9.400  0.00  0.00    +0.000 HD
ATOM     11  H   UNL     1      45.367   7.058   9.189  0.00  0.00    +0.000 HD
ENDBRANCH   6   7
BRANCH   1  13
ATOM     12  C   UNL     1      43.604   2.469  12.469  0.00  0.00    +0.000 C 
ATOM     13  C   UNL     1      44.119   3.712  11.677  0.00  0.00    +0.000 C 
ATOM     14  C   UNL     1      44.358   3.183  10.251  0.00  0.00    +0.000 C 
ATOM     15  C   UNL     1      42.987   4.762  11.656  0.00  0.00    +0.000 C 
ENDBRANCH   1  13
BRANCH   3  16
ATOM     16  O   UNL     1      47.500   2.898  14.889  0.00  0.00    +0.000 OA
BRANCH  16  17
ATOM     17  C   UNL     1      47.579   3.435  16.211  0.00  0.00    +0.000 C 
BRANCH  17  18
ATOM     18  C   UNL     1      49.002   3.401  16.746  0.00  0.00    +0.000 A 
ATOM     19  C   UNL     1      49.610   4.584  17.198  0.00  0.00    +0.000 A 
ATOM     20  C   UNL     1      50.896   4.571  17.757  0.00  0.00    +0.000 A 
ATOM     21  C   UNL     1      51.604   3.369  17.887  0.00  0.00    +0.000 A 
ATOM     22  C   UNL     1      50.996   2.187  17.443  0.00  0.00    +0.000 A 
ATOM     23  C   UNL     1      49.710   2.201  16.888  0.00  0.00    +0.000 A 
BRANCH  21  24
ATOM     24  C   UNL     1      53.002   3.345  18.459  0.00  0.00    +0.000 C 
BRANCH  24  25
ATOM     25  N   UNL     1      53.003   3.108  19.899  0.00  0.00    +0.000 NA
ATOM     26  H   UNL     1      52.052   2.896  20.198  0.00  0.00    +0.000 HD
ATOM     27  H   UNL     1      53.274   3.963  20.379  0.00  0.00    +0.000 HD
ENDBRANCH  24  25
ENDBRANCH  21  24
ENDBRANCH  17  18
ENDBRANCH  16  17
ENDBRANCH   3  16
TORSDOF 7
ENDMDL
MODEL 8
REMARK VINA RESULT:    -6.235      3.625      7.455
REMARK INTER + INTRA:          -9.056
REMARK INTER:                  -8.741
REMARK INTRA:                  -0.316
REMARK UNBOUND:                -0.452
REMARK  Name = 
REMARK  10 active torsions:
REMARK  status: ('A' for Active; 'I' for Inactive)
REMARK    1  A    between atoms: C_1  and  C_2
REMARK    2  A    between atoms: C_2  and  C_3
REMARK    3  A    between atoms: C_2  and  C_4
REMARK    4  A    between atoms: C_2  and  C_5
REMARK    5  A    between atoms: C_7  and  O_8
REMARK    6  A    between atoms: O_8  and  C_9
REMARK    7  A    between atoms: C_9  and  C_10
REMARK    8  A    between atoms: C_13  and  C_14
REMARK    9  A    between atoms: C_14  and  N_15
REMARK   10  A    between atoms: C_20  and  C_21
REMARK                            x       y       z     vdW  Elec       q    Type
REMARK                         _______ _______ _______ _____ _____    ______ ____
ROOT
ATOM      1  C   UNL     1      45.726   5.121  12.627  0.00  0.00    +0.000 A 
ATOM      2  N   UNL     1      46.536   5.548  13.647  0.00  0.00    +0.000 NA
ATOM      3  C   UNL     1      47.187   4.653  14.405  0.00  0.00    +0.000 A 
ATOM      4  N   UNL     1      47.102   3.333  14.248  0.00  0.00    +0.000 NA
ATOM      5  C   UNL     1      46.285   2.925  13.249  0.00  0.00    +0.000 A 
ATOM      6  C   UNL     1      45.582   3.752  12.383  0.00  0.00    +0.000 A 
ENDROOT
BRANCH   6   7
ATOM      7  C   UNL     1      44.741   3.115  11.331  0.00  0.00    +0.000 C 
ATOM      8  N   UNL     1      43.567   2.515  11.712  0.00  0.00    +0.000 N 
ATOM      9  O   UNL     1      45.025   3.104  10.146  0.00  0.00    +0.000 OA
ATOM     10  H   UNL     1      43.249   2.378  12.658  0.00  0.00    +0.000 HD
ATOM     11  H   UNL     1      43.059   2.042  10.971  0.00  0.00    +0.000 HD
ENDBRANCH   6   7
BRANCH   1  13
ATOM     12  C   UNL     1      45.291   7.627  12.536  0.00  0.00    +0.000 C 
ATOM     13  C   UNL     1      45.105   6.265  11.795  0.00  0.00    +0.000 C 
ATOM     14  C   UNL     1      43.579   6.126  11.631  0.00  0.00    +0.000 C 
ATOM     15  C   UNL     1      45.765   6.389  10.405  0.00  0.00    +0.000 C 
ENDBRANCH   1  13
BRANCH   3  16
ATOM     16  O   UNL     1      48.007   5.194  15.378  0.00  0.00    +0.000 OA
BRANCH  16  17
ATOM     17  C   UNL     1      47.891   4.541  16.644  0.00  0.00    +0.000 C 
BRANCH  17  18
ATOM     18  C   UNL     1      49.203   3.897  17.065  0.00  0.00    +0.000 A 
ATOM     19  C   UNL     1      49.362   2.504  16.974  0.00  0.00    +0.000 A 
ATOM     20  C   UNL     1      50.583   1.892  17.292  0.00  0.00    +0.000 A 
ATOM     21  C   UNL     1      51.681   2.659  17.701  0.00  0.00    +0.000 A 
ATOM     22  C   UNL     1      51.526   4.051  17.785  0.00  0.00    +0.000 A 
ATOM     23  C   UNL     1      50.307   4.662  17.464  0.00  0.00    +0.000 A 
BRANCH  21  24
ATOM     24  C   UNL     1      52.991   2.010  18.076  0.00  0.00    +0.000 C 
BRANCH  24  25
ATOM     25  N   UNL     1      53.436   2.399  19.411  0.00  0.00    +0.000 NA
ATOM     26  H   UNL     1      52.668   2.260  20.066  0.00  0.00    +0.000 HD
ATOM     27  H   UNL     1      53.646   3.394  19.417  0.00  0.00    +0.000 HD
ENDBRANCH  24  25
ENDBRANCH  21  24
ENDBRANCH  17  18
ENDBRANCH  16  17
ENDBRANCH   3  16
TORSDOF 7
ENDMDL
MODEL 9
REMARK VINA RESULT:    -5.759      3.133      5.647
REMARK INTER + INTRA:          -8.400
REMARK INTER:                  -8.050
REMARK INTRA:                  -0.349
REMARK UNBOUND:                -0.452
REMARK  Name = 
REMARK  10 active torsions:
REMARK  status: ('A' for Active; 'I' for Inactive)
REMARK    1  A    between atoms: C_1  and  C_2
REMARK    2  A    between atoms: C_2  and  C_3
REMARK    3  A    between atoms: C_2  and  C_4
REMARK    4  A    between atoms: C_2  and  C_5
REMARK    5  A    between atoms: C_7  and  O_8
REMARK    6  A    between atoms: O_8  and  C_9
REMARK    7  A    between atoms: C_9  and  C_10
REMARK    8  A    between atoms: C_13  and  C_14
REMARK    9  A    between atoms: C_14  and  N_15
REMARK   10  A    between atoms: C_20  and  C_21
REMARK                            x       y       z     vdW  Elec       q    Type
REMARK                         _______ _______ _______ _____ _____    ______ ____
ROOT
ATOM      1  C   UNL     1      48.977   5.422  16.964  0.00  0.00    +0.000 A 
ATOM      2  N   UNL     1      48.717   5.440  15.618  0.00  0.00    +0.000 NA
ATOM      3  C   UNL     1      48.702   6.605  14.953  0.00  0.00    +0.000 A 
ATOM      4  N   UNL     1      48.918   7.792  15.516  0.00  0.00    +0.000 NA
ATOM      5  C   UNL     1      49.156   7.762  16.848  0.00  0.00    +0.000 A 
ATOM      6  C   UNL     1      49.224   6.621  17.637  0.00  0.00    +0.000 A 
ENDROOT
BRANCH   6   7
ATOM      7  C   UNL     1      49.512   6.788  19.090  0.00  0.00    +0.000 C 
ATOM      8  N   UNL     1      48.538   7.334  19.887  0.00  0.00    +0.000 N 
ATOM      9  O   UNL     1      50.559   6.458  19.619  0.00  0.00    +0.000 OA
ATOM     10  H   UNL     1      47.663   7.724  19.574  0.00  0.00    +0.000 HD
ATOM     11  H   UNL     1      48.801   7.484  20.856  0.00  0.00    +0.000 HD
ENDBRANCH   6   7
BRANCH   1  13
ATOM     12  C   UNL     1      48.273   2.995  16.661  0.00  0.00    +0.000 C 
ATOM     13  C   UNL     1      49.037   4.004  17.575  0.00  0.00    +0.000 C 
ATOM     14  C   UNL     1      48.318   3.907  18.934  0.00  0.00    +0.000 C 
ATOM     15  C   UNL     1      50.489   3.503  17.722  0.00  0.00    +0.000 C 
ENDBRANCH   1  13
BRANCH   3  16
ATOM     16  O   UNL     1      48.469   6.502  13.594  0.00  0.00    +0.000 OA
BRANCH  16  17
ATOM     17  C   UNL     1      47.213   7.051  13.191  0.00  0.00    +0.000 C 
BRANCH  17  18
ATOM     18  C   UNL     1      46.314   5.996  12.565  0.00  0.00    +0.000 A 
ATOM     19  C   UNL     1      45.977   6.080  11.203  0.00  0.00    +0.000 A 
ATOM     20  C   UNL     1      45.206   5.085  10.585  0.00  0.00    +0.000 A 
ATOM     21  C   UNL     1      44.759   3.975  11.312  0.00  0.00    +0.000 A 
ATOM     22  C   UNL     1      45.101   3.886  12.669  0.00  0.00    +0.000 A 
ATOM     23  C   UNL     1      45.874   4.878  13.285  0.00  0.00    +0.000 A 
BRANCH  21  24
ATOM     24  C   UNL     1      43.901   2.913  10.666  0.00  0.00    +0.000 C 
BRANCH  24  25
ATOM     25  N   UNL     1      43.053   2.226  11.636  0.00  0.00    +0.000 NA
ATOM     26  H   UNL     1      42.085   2.282  11.323  0.00  0.00    +0.000 HD
ATOM     27  H   UNL     1      43.100   2.714  12.526  0.00  0.00    +0.000 HD
ENDBRANCH  24  25
ENDBRANCH  21  24
ENDBRANCH  17  18
ENDBRANCH  16  17
ENDBRANCH   3  16
TORSDOF 7
ENDMDL
