MODEL 1
REMARK VINA RESULT:    -7.055      0.000      0.000
REMARK INTER + INTRA:          -9.400
REMARK INTER:                  -9.118
REMARK INTRA:                  -0.282
REMARK UNBOUND:                -0.282
REMARK  Name = 
REMARK  8 active torsions:
REMARK  status: ('A' for Active; 'I' for Inactive)
REMARK    1  A    between atoms: C_1  and  C_2
REMARK    2  A    between atoms: C_2  and  C_3
REMARK    3  A    between atoms: C_2  and  C_4
REMARK    4  A    between atoms: C_2  and  C_5
REMARK    5  A    between atoms: C_7  and  C_8
REMARK    6  A    between atoms: C_13  and  N_14
REMARK    7  A    between atoms: N_14  and  C_15
REMARK    8  A    between atoms: C_15  and  C_16
REMARK                            x       y       z     vdW  Elec       q    Type
REMARK                         _______ _______ _______ _____ _____    ______ ____
ROOT
ATOM      1  C   UNL     1      46.226   5.906  12.559  0.00  0.00    +0.000 A 
ATOM      2  N   UNL     1      46.839   5.533  13.729  0.00  0.00    +0.000 NA
ATOM      3  C   UNL     1      46.763   4.242  14.118  0.00  0.00    +0.000 A 
ATOM      4  N   UNL     1      46.150   3.272  13.442  0.00  0.00    +0.000 NA
ATOM      5  C   UNL     1      45.546   3.675  12.307  0.00  0.00    +0.000 A 
ATOM      6  C   UNL     1      45.476   4.984  11.809  0.00  0.00    +0.000 A 
ENDROOT
BRANCH   3   7
ATOM      7  C   UNL     1      47.418   3.879  15.437  0.00  0.00    +0.000 C 
ATOM      8  N   UNL     1      47.202   4.755  16.474  0.00  0.00    +0.000 N 
ATOM      9  O   UNL     1      48.097   2.876  15.606  0.00  0.00    +0.000 OA
ATOM     10  H   UNL     1      46.638   5.587  16.336  0.00  0.00    +0.000 HD
ATOM     11  H   UNL     1      47.612   4.556  17.373  0.00  0.00    +0.000 HD
ENDBRANCH   3   7
BRANCH   1  13
ATOM     12  C   UNL     1      47.621   7.489  11.208  0.00  0.00    +0.000 C 
ATOM     13  C   UNL     1      46.463   7.397  12.244  0.00  0.00    +0.000 C 
ATOM     14  C   UNL     1      46.889   8.103  13.559  0.00  0.00    +0.000 C 
ATOM     15  C   UNL     1      45.314   8.219  11.624  0.00  0.00    +0.000 C 
ENDBRANCH   1  13
BRANCH   6  16
ATOM     16  N   UNL     1      44.781   5.294  10.625  0.00  0.00    +0.000 N 
ATOM     17  H   UNL     1      44.210   6.123  10.762  0.00  0.00    +0.000 HD
BRANCH  16  18
ATOM     18  C   UNL     1      44.029   4.228   9.957  0.00  0.00    +0.000 C 
BRANCH  18  19
ATOM     19  C   UNL     1      44.797   3.538   8.823  0.00  0.00    +0.000 C 
ATOM     20  C   UNL     1      45.344   2.155   9.192  0.00  0.00    +0.000 C 
ATOM     21  C   UNL     1      46.057   1.541   7.988  0.00  0.00    +0.000 C 
ATOM     22  O   UNL     1      47.090   2.407   7.516  0.00  0.00    +0.000 OA
ATOM     23  C   UNL     1      46.585   3.668   7.077  0.00  0.00    +0.000 C 
ATOM     24  C   UNL     1      45.916   4.405   8.232  0.00  0.00    +0.000 C 
ENDBRANCH  18  19
ENDBRANCH  16  18
ENDBRANCH   6  16
TORSDOF 5
ENDMDL
MODEL 2
REMARK VINA RESULT:    -6.456      2.375      3.503
REMARK INTER + INTRA:          -8.625
REMARK INTER:                  -8.220
REMARK INTRA:                  -0.405
REMARK UNBOUND:                -0.282
REMARK  Name = 
REMARK  8 active torsions:
REMARK  status: ('A' for Active; 'I' for Inactive)
REMARK    1  A    between atoms: C_1  and  C_2
REMARK    2  A    between atoms: C_2  and  C_3
REMARK    3  A    between atoms: C_2  and  C_4
REMARK    4  A    between atoms: C_2  and  C_5
REMARK    5  A    between atoms: C_7  and  C_8
REMARK    6  A    between atoms: C_13  and  N_14
REMARK    7  A    between atoms: N_14  and  C_15
REMARK    8  A    between atoms: C_15  and  C_16
REMARK                            x       y       z     vdW  Elec       q    Type
REMARK                         _______ _______ _______ _____ _____    ______ ____
ROOT
ATOM      1  C   UNL     1      48.082   6.115  14.378  0.00  0.00    +0.000 A 
ATOM      2  N   UNL     1      48.142   5.472  15.589  0.00  0.00    +0.000 NA
ATOM      3  C   UNL     1      47.466   4.314  15.743  0.00  0.00    +0.000 A 
ATOM      4  N   UNL     1      46.747   3.713  14.796  0.00  0.00    +0.000 NA
ATOM      5  C   UNL     1      46.696   4.377  13.625  0.00  0.00    +0.000 A 
ATOM      6  C   UNL     1      47.282   5.618  13.334  0.00  0.00    +0.000 A 
ENDROOT
BRANCH   3   7
ATOM      7  C   UNL     1      47.525   3.657  17.109  0.00  0.00    +0.000 C 
ATOM      8  N   UNL     1      48.623   3.965  17.875  0.00  0.00    +0.000 N 
ATOM      9  O   UNL     1      46.664   2.901  17.537  0.00  0.00    +0.000 OA
ATOM     10  H   UNL     1      49.337   4.593  17.522  0.00  0.00    +0.000 HD
ATOM     11  H   UNL     1      48.707   3.558  18.793  0.00  0.00    +0.000 HD
ENDBRANCH   3   7
BRANCH   1  13
ATOM     12  C   UNL     1      49.976   7.278  15.534  0.00  0.00    +0.000 C 
ATOM     13  C   UNL     1      48.955   7.385  14.364  0.00  0.00    +0.000 C 
ATOM     14  C   UNL     1      48.027   8.607  14.598  0.00  0.00    +0.000 C 
ATOM     15  C   UNL     1      49.814   7.685  13.118  0.00  0.00    +0.000 C 
ENDBRANCH   1  13
BRANCH   6  16
ATOM     16  N   UNL     1      47.129   6.237  12.079  0.00  0.00    +0.000 N 
ATOM     17  H   UNL     1      47.981   6.729  11.827  0.00  0.00    +0.000 HD
BRANCH  16  18
ATOM     18  C   UNL     1      45.941   7.064  11.849  0.00  0.00    +0.000 C 
BRANCH  18  19
ATOM     19  C   UNL     1      44.735   6.287  11.305  0.00  0.00    +0.000 C 
ATOM     20  C   UNL     1      43.719   5.883  12.379  0.00  0.00    +0.000 C 
ATOM     21  C   UNL     1      42.546   5.149  11.733  0.00  0.00    +0.000 C 
ATOM     22  O   UNL     1      43.002   4.019  10.989  0.00  0.00    +0.000 OA
ATOM     23  C   UNL     1      43.875   4.387   9.922  0.00  0.00    +0.000 C 
ATOM     24  C   UNL     1      45.128   5.063  10.468  0.00  0.00    +0.000 C 
ENDBRANCH  18  19
ENDBRANCH  16  18
ENDBRANCH   6  16
TORSDOF 5
ENDMDL
MODEL 3
REMARK VINA RESULT:    -6.294      2.656      3.806
REMARK INTER + INTRA:          -8.417
REMARK INTER:                  -8.345
REMARK INTRA:                  -0.072
REMARK UNBOUND:                -0.282
REMARK  Name = 
REMARK  8 active torsions:
REMARK  status: ('A' for Active; 'I' for Inactive)
REMARK    1  A    between atoms: C_1  and  C_2
REMARK    2  A    between atoms: C_2  and  C_3
REMARK    3  A    between atoms: C_2  and  C_4
REMARK    4  A    between atoms: C_2  and  C_5
REMARK    5  A    between atoms: C_7  and  C_8
REMARK    6  A    between atoms: C_13  and  N_14
REMARK    7  A    between atoms: N_14  and  C_15
REMARK    8  A    between atoms: C_15  and  C_16
REMARK                            x       y       z     vdW  Elec       q    Type
REMARK                         _______ _______ _______ _____ _____    ______ ____
ROOT
ATOM      1  C   UNL     1      44.515   5.439  11.695  0.00  0.00    +0.000 A 
ATOM      2  N   UNL     1      44.658   6.584  12.437  0.00  0.00    +0.000 NA
ATOM      3  C   UNL     1      45.682   7.417  12.154  0.00  0.00    +0.000 A 
ATOM      4  N   UNL     1      46.574   7.233  11.182  0.00  0.00    +0.000 NA
ATOM      5  C   UNL     1      46.414   6.093  10.483  0.00  0.00    +0.000 A 
ATOM      6  C   UNL     1      45.448   5.099  10.701  0.00  0.00    +0.000 A 
ENDROOT
BRANCH   3   7
ATOM      7  C   UNL     1      45.830   8.650  13.024  0.00  0.00    +0.000 C 
ATOM      8  N   UNL     1      44.844   9.598  12.892  0.00  0.00    +0.000 N 
ATOM      9  O   UNL     1      46.752   8.822  13.810  0.00  0.00    +0.000 OA
ATOM     10  H   UNL     1      44.078   9.457  12.242  0.00  0.00    +0.000 HD
ATOM     11  H   UNL     1      44.894  10.434  13.452  0.00  0.00    +0.000 HD
ENDBRANCH   3   7
BRANCH   1  13
ATOM     12  C   UNL     1      42.009   5.454  11.689  0.00  0.00    +0.000 C 
ATOM     13  C   UNL     1      43.265   4.640  12.117  0.00  0.00    +0.000 C 
ATOM     14  C   UNL     1      43.287   4.498  13.663  0.00  0.00    +0.000 C 
ATOM     15  C   UNL     1      43.044   3.234  11.523  0.00  0.00    +0.000 C 
ENDBRANCH   1  13
BRANCH   6  16
ATOM     16  N   UNL     1      45.401   3.924   9.927  0.00  0.00    +0.000 N 
ATOM     17  H   UNL     1      46.220   3.353  10.110  0.00  0.00    +0.000 HD
BRANCH  16  18
ATOM     18  C   UNL     1      45.138   4.045   8.491  0.00  0.00    +0.000 C 
BRANCH  18  19
ATOM     19  C   UNL     1      45.862   2.999   7.633  0.00  0.00    +0.000 C 
ATOM     20  C   UNL     1      46.161   1.688   8.369  0.00  0.00    +0.000 C 
ATOM     21  C   UNL     1      46.847   0.706   7.421  0.00  0.00    +0.000 C 
ATOM     22  O   UNL     1      48.031   1.281   6.867  0.00  0.00    +0.000 OA
ATOM     23  C   UNL     1      47.759   2.451   6.096  0.00  0.00    +0.000 C 
ATOM     24  C   UNL     1      47.139   3.533   6.972  0.00  0.00    +0.000 C 
ENDBRANCH  18  19
ENDBRANCH  16  18
ENDBRANCH   6  16
TORSDOF 5
ENDMDL
MODEL 4
REMARK VINA RESULT:    -6.122      1.960      6.687
REMARK INTER + INTRA:          -8.194
REMARK INTER:                  -7.972
REMARK INTRA:                  -0.221
REMARK UNBOUND:                -0.282
REMARK  Name = 
REMARK  8 active torsions:
REMARK  status: ('A' for Active; 'I' for Inactive)
REMARK    1  A    between atoms: C_1  and  C_2
REMARK    2  A    between atoms: C_2  and  C_3
REMARK    3  A    between atoms: C_2  and  C_4
REMARK    4  A    between atoms: C_2  and  C_5
REMARK    5  A    between atoms: C_7  and  C_8
REMARK    6  A    between atoms: C_13  and  N_14
REMARK    7  A    between atoms: N_14  and  C_15
REMARK    8  A    between atoms: C_15  and  C_16
REMARK                            x       y       z     vdW  Elec       q    Type
REMARK                         _______ _______ _______ _____ _____    ______ ____
ROOT
ATOM      1  C   UNL     1      46.418   6.045  12.355  0.00  0.00    +0.000 A 
ATOM      2  N   UNL     1      46.146   5.920  11.016  0.00  0.00    +0.000 NA
ATOM      3  C   UNL     1      45.513   4.808  10.584  0.00  0.00    +0.000 A 
ATOM      4  N   UNL     1      45.099   3.809  11.362  0.00  0.00    +0.000 NA
ATOM      5  C   UNL     1      45.395   3.956  12.668  0.00  0.00    +0.000 A 
ATOM      6  C   UNL     1      46.106   5.013  13.257  0.00  0.00    +0.000 A 
ENDROOT
BRANCH   3   7
ATOM      7  C   UNL     1      45.269   4.690   9.092  0.00  0.00    +0.000 C 
ATOM      8  N   UNL     1      43.988   4.357   8.719  0.00  0.00    +0.000 N 
ATOM      9  O   UNL     1      46.131   4.877   8.244  0.00  0.00    +0.000 OA
ATOM     10  H   UNL     1      43.272   4.203   9.420  0.00  0.00    +0.000 HD
ATOM     11  H   UNL     1      43.773   4.271   7.738  0.00  0.00    +0.000 HD
ENDBRANCH   3   7
BRANCH   1  13
ATOM     12  C   UNL     1      45.966   8.447  12.905  0.00  0.00    +0.000 C 
ATOM     13  C   UNL     1      47.090   7.395  12.676  0.00  0.00    +0.000 C 
ATOM     14  C   UNL     1      47.943   7.809  11.446  0.00  0.00    +0.000 C 
ATOM     15  C   UNL     1      47.990   7.502  13.924  0.00  0.00    +0.000 C 
ENDBRANCH   1  13
BRANCH   6  16
ATOM     16  N   UNL     1      46.390   5.041  14.635  0.00  0.00    +0.000 N 
ATOM     17  H   UNL     1      46.763   5.949  14.896  0.00  0.00    +0.000 HD
BRANCH  16  18
ATOM     18  C   UNL     1      47.181   3.949  15.208  0.00  0.00    +0.000 C 
BRANCH  18  19
ATOM     19  C   UNL     1      47.632   4.195  16.653  0.00  0.00    +0.000 C 
ATOM     20  C   UNL     1      48.560   5.404  16.819  0.00  0.00    +0.000 C 
ATOM     21  C   UNL     1      48.920   5.582  18.293  0.00  0.00    +0.000 C 
ATOM     22  O   UNL     1      49.508   4.391  18.819  0.00  0.00    +0.000 OA
ATOM     23  C   UNL     1      48.621   3.275  18.760  0.00  0.00    +0.000 C 
ATOM     24  C   UNL     1      48.257   2.959  17.314  0.00  0.00    +0.000 C 
ENDBRANCH  18  19
ENDBRANCH  16  18
ENDBRANCH   6  16
TORSDOF 5
ENDMDL
MODEL 5
REMARK VINA RESULT:    -5.972      3.474      5.350
REMARK INTER + INTRA:          -8.001
REMARK INTER:                  -7.640
REMARK INTRA:                  -0.360
REMARK UNBOUND:                -0.282
REMARK  Name = 
REMARK  8 active torsions:
REMARK  status: ('A' for Active; 'I' for Inactive)
REMARK    1  A    between atoms: C_1  and  C_2
REMARK    2  A    between atoms: C_2  and  C_3
REMARK    3  A    between atoms: C_2  and  C_4
REMARK    4  A    between atoms: C_2  and  C_5
REMARK    5  A    between atoms: C_7  and  C_8
REMARK    6  A    between atoms: C_13  and  N_14
REMARK    7  A    between atoms: N_14  and  C_15
REMARK    8  A    between atoms: C_15  and  C_16
REMARK                            x       y       z     vdW  Elec       q    Type
REMARK                         _______ _______ _______ _____ _____    ______ ____
ROOT
ATOM      1  C   UNL     1      48.900   4.530  16.913  0.00  0.00    +0.000 A 
ATOM      2  N   UNL     1      50.009   3.883  17.397  0.00  0.00    +0.000 NA
ATOM      3  C   UNL     1      50.196   2.585  17.075  0.00  0.00    +0.000 A 
ATOM      4  N   UNL     1      49.393   1.866  16.293  0.00  0.00    +0.000 NA
ATOM      5  C   UNL     1      48.306   2.525  15.847  0.00  0.00    +0.000 A 
ATOM      6  C   UNL     1      47.939   3.845  16.149  0.00  0.00    +0.000 A 
ENDROOT
BRANCH   3   7
ATOM      7  C   UNL     1      51.411   1.896  17.665  0.00  0.00    +0.000 C 
ATOM      8  N   UNL     1      51.332   0.528  17.767  0.00  0.00    +0.000 N 
ATOM      9  O   UNL     1      52.418   2.487  18.030  0.00  0.00    +0.000 OA
ATOM     10  H   UNL     1      50.499   0.035  17.463  0.00  0.00    +0.000 HD
ATOM     11  H   UNL     1      52.116   0.022  18.148  0.00  0.00    +0.000 HD
ENDBRANCH   3   7
BRANCH   1  13
ATOM     12  C   UNL     1      50.259   6.353  17.965  0.00  0.00    +0.000 C 
ATOM     13  C   UNL     1      48.878   6.013  17.332  0.00  0.00    +0.000 C 
ATOM     14  C   UNL     1      47.763   6.194  18.397  0.00  0.00    +0.000 C 
ATOM     15  C   UNL     1      48.666   7.091  16.248  0.00  0.00    +0.000 C 
ENDBRANCH   1  13
BRANCH   6  16
ATOM     16  N   UNL     1      46.754   4.420  15.653  0.00  0.00    +0.000 N 
ATOM     17  H   UNL     1      45.948   3.892  15.975  0.00  0.00    +0.000 HD
BRANCH  16  18
ATOM     18  C   UNL     1      46.667   4.712  14.219  0.00  0.00    +0.000 C 
BRANCH  18  19
ATOM     19  C   UNL     1      45.293   4.417  13.604  0.00  0.00    +0.000 C 
ATOM     20  C   UNL     1      45.320   3.353  12.501  0.00  0.00    +0.000 C 
ATOM     21  C   UNL     1      43.905   3.108  11.982  0.00  0.00    +0.000 C 
ATOM     22  O   UNL     1      43.316   4.326  11.523  0.00  0.00    +0.000 OA
ATOM     23  C   UNL     1      43.194   5.296  12.563  0.00  0.00    +0.000 C 
ATOM     24  C   UNL     1      44.569   5.673  13.102  0.00  0.00    +0.000 C 
ENDBRANCH  18  19
ENDBRANCH  16  18
ENDBRANCH   6  16
TORSDOF 5
ENDMDL
MODEL 6
REMARK VINA RESULT:    -5.862      3.091      5.363
REMARK INTER + INTRA:          -7.857
REMARK INTER:                  -7.464
REMARK INTRA:                  -0.394
REMARK UNBOUND:                -0.282
REMARK  Name = 
REMARK  8 active torsions:
REMARK  status: ('A' for Active; 'I' for Inactive)
REMARK    1  A    between atoms: C_1  and  C_2
REMARK    2  A    between atoms: C_2  and  C_3
REMARK    3  A    between atoms: C_2  and  C_4
REMARK    4  A    between atoms: C_2  and  C_5
REMARK    5  A    between atoms: C_7  and  C_8
REMARK    6  A    between atoms: C_13  and  N_14
REMARK    7  A    between atoms: N_14  and  C_15
REMARK    8  A    between atoms: C_15  and  C_16
REMARK                            x       y       z     vdW  Elec       q    Type
REMARK                         _______ _______ _______ _____ _____    ______ ____
ROOT
ATOM      1  C   UNL     1      46.338   5.034  13.360  0.00  0.00    +0.000 A 
ATOM      2  N   UNL     1      46.408   4.239  14.477  0.00  0.00    +0.000 NA
ATOM      3  C   UNL     1      47.343   4.513  15.411  0.00  0.00    +0.000 A 
ATOM      4  N   UNL     1      48.209   5.524  15.356  0.00  0.00    +0.000 NA
ATOM      5  C   UNL     1      48.124   6.275  14.241  0.00  0.00    +0.000 A 
ATOM      6  C   UNL     1      47.259   6.075  13.155  0.00  0.00    +0.000 A 
ENDROOT
BRANCH   3   7
ATOM      7  C   UNL     1      47.414   3.587  16.609  0.00  0.00    +0.000 C 
ATOM      8  N   UNL     1      48.663   3.107  16.922  0.00  0.00    +0.000 N 
ATOM      9  O   UNL     1      46.444   3.269  17.283  0.00  0.00    +0.000 OA
ATOM     10  H   UNL     1      49.470   3.370  16.365  0.00  0.00    +0.000 HD
ATOM     11  H   UNL     1      48.765   2.490  17.712  0.00  0.00    +0.000 HD
ENDBRANCH   3   7
BRANCH   1  13
ATOM     12  C   UNL     1      43.874   5.264  12.969  0.00  0.00    +0.000 C 
ATOM     13  C   UNL     1      45.181   4.611  12.432  0.00  0.00    +0.000 C 
ATOM     14  C   UNL     1      45.053   3.065  12.500  0.00  0.00    +0.000 C 
ATOM     15  C   UNL     1      45.238   5.009  10.943  0.00  0.00    +0.000 C 
ENDBRANCH   1  13
BRANCH   6  16
ATOM     16  N   UNL     1      47.286   6.907  12.019  0.00  0.00    +0.000 N 
ATOM     17  H   UNL     1      47.892   6.507  11.308  0.00  0.00    +0.000 HD
BRANCH  16  18
ATOM     18  C   UNL     1      47.547   8.337  12.207  0.00  0.00    +0.000 C 
BRANCH  18  19
ATOM     19  C   UNL     1      46.427   9.249  11.691  0.00  0.00    +0.000 C 
ATOM     20  C   UNL     1      46.478  10.676  12.250  0.00  0.00    +0.000 C 
ATOM     21  C   UNL     1      45.347  11.509  11.650  0.00  0.00    +0.000 C 
ATOM     22  O   UNL     1      44.081  10.893  11.891  0.00  0.00    +0.000 OA
ATOM     23  C   UNL     1      43.982   9.601  11.294  0.00  0.00    +0.000 C 
ATOM     24  C   UNL     1      45.025   8.659  11.886  0.00  0.00    +0.000 C 
ENDBRANCH  18  19
ENDBRANCH  16  18
ENDBRANCH   6  16
TORSDOF 5
ENDMDL
MODEL 7
REMARK VINA RESULT:    -5.715      2.339      6.768
REMARK INTER + INTRA:          -7.668
REMARK INTER:                  -7.396
REMARK INTRA:                  -0.271
REMARK UNBOUND:                -0.282
REMARK  Name = 
REMARK  8 active torsions:
REMARK  status: ('A' for Active; 'I' for Inactive)
REMARK    1  A    between atoms: C_1  and  C_2
REMARK    2  A    between atoms: C_2  and  C_3
REMARK    3  A    between atoms: C_2  and  C_4
REMARK    4  A    between atoms: C_2  and  C_5
REMARK    5  A    between atoms: C_7  and  C_8
REMARK    6  A    between atoms: C_13  and  N_14
REMARK    7  A    between atoms: N_14  and  C_15
REMARK    8  A    between atoms: C_15  and  C_16
REMARK                            x       y       z     vdW  Elec       q    Type
REMARK                         _______ _______ _______ _____ _____    ______ ____
ROOT
ATOM      1  C   UNL     1      46.303   5.893  12.594  0.00  0.00    +0.000 A 
ATOM      2  N   UNL     1      45.556   5.462  11.527  0.00  0.00    +0.000 NA
ATOM      3  C   UNL     1      45.099   4.192  11.525  0.00  0.00    +0.000 A 
ATOM      4  N   UNL     1      45.294   3.305  12.501  0.00  0.00    +0.000 NA
ATOM      5  C   UNL     1      46.043   3.755  13.526  0.00  0.00    +0.000 A 
ATOM      6  C   UNL     1      46.644   5.018  13.639  0.00  0.00    +0.000 A 
ENDROOT
BRANCH   3   7
ATOM      7  C   UNL     1      44.314   3.742  10.308  0.00  0.00    +0.000 C 
ATOM      8  N   UNL     1      44.172   4.674   9.309  0.00  0.00    +0.000 N 
ATOM      9  O   UNL     1      43.830   2.625  10.186  0.00  0.00    +0.000 OA
ATOM     10  H   UNL     1      44.574   5.600   9.408  0.00  0.00    +0.000 HD
ATOM     11  H   UNL     1      43.662   4.423   8.477  0.00  0.00    +0.000 HD
ENDBRANCH   3   7
BRANCH   1  13
ATOM     12  C   UNL     1      45.544   8.103  11.689  0.00  0.00    +0.000 C 
ATOM     13  C   UNL     1      46.690   7.379  12.455  0.00  0.00    +0.000 C 
ATOM     14  C   UNL     1      47.998   7.458  11.622  0.00  0.00    +0.000 C 
ATOM     15  C   UNL     1      46.900   8.218  13.733  0.00  0.00    +0.000 C 
ENDBRANCH   1  13
BRANCH   6  16
ATOM     16  N   UNL     1      47.441   5.365  14.746  0.00  0.00    +0.000 N 
ATOM     17  H   UNL     1      48.376   5.617  14.438  0.00  0.00    +0.000 HD
BRANCH  16  18
ATOM     18  C   UNL     1      47.479   4.454  15.893  0.00  0.00    +0.000 C 
BRANCH  18  19
ATOM     19  C   UNL     1      48.324   4.963  17.068  0.00  0.00    +0.000 C 
ATOM     20  C   UNL     1      48.974   6.330  16.823  0.00  0.00    +0.000 C 
ATOM     21  C   UNL     1      49.760   6.760  18.060  0.00  0.00    +0.000 C 
ATOM     22  O   UNL     1      50.729   5.772  18.413  0.00  0.00    +0.000 OA
ATOM     23  C   UNL     1      50.133   4.517  18.739  0.00  0.00    +0.000 C 
ATOM     24  C   UNL     1      49.382   3.956  17.536  0.00  0.00    +0.000 C 
ENDBRANCH  18  19
ENDBRANCH  16  18
ENDBRANCH   6  16
TORSDOF 5
ENDMDL
MODEL 8
REMARK VINA RESULT:    -5.414      2.464      6.176
REMARK INTER + INTRA:          -7.279
REMARK INTER:                  -6.820
REMARK INTRA:                  -0.459
REMARK UNBOUND:                -0.282
REMARK  Name = 
REMARK  8 active torsions:
REMARK  status: ('A' for Active; 'I' for Inactive)
REMARK    1  A    between atoms: C_1  and  C_2
REMARK    2  A    between atoms: C_2  and  C_3
REMARK    3  A    between atoms: C_2  and  C_4
REMARK    4  A    between atoms: C_2  and  C_5
REMARK    5  A    between atoms: C_7  and  C_8
REMARK    6  A    between atoms: C_13  and  N_14
REMARK    7  A    between atoms: N_14  and  C_15
REMARK    8  A    between atoms: C_15  and  C_16
REMARK                            x       y       z     vdW  Elec       q    Type
REMARK                         _______ _______ _______ _____ _____    ______ ____
ROOT
ATOM      1  C   UNL     1      44.715   4.202  10.815  0.00  0.00    +0.000 A 
ATOM      2  N   UNL     1      45.077   3.121  10.050  0.00  0.00    +0.000 NA
ATOM      3  C   UNL     1      45.705   3.340   8.875  0.00  0.00    +0.000 A 
ATOM      4  N   UNL     1      46.032   4.537   8.391  0.00  0.00    +0.000 NA
ATOM      5  C   UNL     1      45.650   5.576   9.158  0.00  0.00    +0.000 A 
ATOM      6  C   UNL     1      44.932   5.514  10.362  0.00  0.00    +0.000 A 
ENDROOT
BRANCH   3   7
ATOM      7  C   UNL     1      46.050   2.122   8.041  0.00  0.00    +0.000 C 
ATOM      8  N   UNL     1      46.495   2.376   6.766  0.00  0.00    +0.000 N 
ATOM      9  O   UNL     1      45.957   0.971   8.445  0.00  0.00    +0.000 OA
ATOM     10  H   UNL     1      46.575   3.329   6.428  0.00  0.00    +0.000 HD
ATOM     11  H   UNL     1      46.743   1.600   6.172  0.00  0.00    +0.000 HD
ENDBRANCH   3   7
BRANCH   1  13
ATOM     12  C   UNL     1      45.191   3.613  13.203  0.00  0.00    +0.000 C 
ATOM     13  C   UNL     1      44.062   3.766  12.143  0.00  0.00    +0.000 C 
ATOM     14  C   UNL     1      43.380   2.390  11.912  0.00  0.00    +0.000 C 
ATOM     15  C   UNL     1      43.024   4.696  12.803  0.00  0.00    +0.000 C 
ENDBRANCH   1  13
BRANCH   6  16
ATOM     16  N   UNL     1      44.552   6.675  11.062  0.00  0.00    +0.000 N 
ATOM     17  H   UNL     1      43.699   7.059  10.665  0.00  0.00    +0.000 HD
BRANCH  16  18
ATOM     18  C   UNL     1      45.558   7.717  11.284  0.00  0.00    +0.000 C 
BRANCH  18  19
ATOM     19  C   UNL     1      46.312   7.584  12.614  0.00  0.00    +0.000 C 
ATOM     20  C   UNL     1      46.966   8.885  13.092  0.00  0.00    +0.000 C 
ATOM     21  C   UNL     1      47.657   8.654  14.435  0.00  0.00    +0.000 C 
ATOM     22  O   UNL     1      48.606   7.591  14.341  0.00  0.00    +0.000 OA
ATOM     23  C   UNL     1      47.999   6.349  13.989  0.00  0.00    +0.000 C 
ATOM     24  C   UNL     1      47.341   6.447  12.617  0.00  0.00    +0.000 C 
ENDBRANCH  18  19
ENDBRANCH  16  18
ENDBRANCH   6  16
TORSDOF 5
ENDMDL
MODEL 9
REMARK VINA RESULT:    -5.383      3.668      5.409
REMARK INTER + INTRA:          -7.239
REMARK INTER:                  -6.942
REMARK INTRA:                  -0.296
REMARK UNBOUND:                -0.282
REMARK  Name = 
REMARK  8 active torsions:
REMARK  status: ('A' for Active; 'I' for Inactive)
REMARK    1  A    between atoms: C_1  and  C_2
REMARK    2  A    between atoms: C_2  and  C_3
REMARK    3  A    between atoms: C_2  and  C_4
REMARK    4  A    between atoms: C_2  and  C_5
REMARK    5  A    between atoms: C_7  and  C_8
REMARK    6  A    between atoms: C_13  and  N_14
REMARK    7  A    between atoms: N_14  and  C_15
REMARK    8  A    between atoms: C_15  and  C_16
REMARK                            x       y       z     vdW  Elec       q    Type
REMARK                         _______ _______ _______ _____ _____    ______ ____
ROOT
ATOM      1  C   UNL     1      48.997   7.138  14.133  0.00  0.00    +0.000 A 
ATOM      2  N   UNL     1      50.054   7.712  13.472  0.00  0.00    +0.000 NA
ATOM      3  C   UNL     1      49.946   7.932  12.144  0.00  0.00    +0.000 A 
ATOM      4  N   UNL     1      48.872   7.656  11.406  0.00  0.00    +0.000 NA
ATOM      5  C   UNL     1      47.859   7.081  12.082  0.00  0.00    +0.000 A 
ATOM      6  C   UNL     1      47.846   6.726  13.439  0.00  0.00    +0.000 A 
ENDROOT
BRANCH   3   7
ATOM      7  C   UNL     1      51.151   8.528  11.444  0.00  0.00    +0.000 C 
ATOM      8  N   UNL     1      52.292   7.762  11.457  0.00  0.00    +0.000 N 
ATOM      9  O   UNL     1      51.144   9.617  10.886  0.00  0.00    +0.000 OA
ATOM     10  H   UNL     1      52.299   6.858  11.918  0.00  0.00    +0.000 HD
ATOM     11  H   UNL     1      53.119   8.112  11.000  0.00  0.00    +0.000 HD
ENDBRANCH   3   7
BRANCH   1  13
ATOM     12  C   UNL     1      48.636   8.249  16.351  0.00  0.00    +0.000 C 
ATOM     13  C   UNL     1      49.271   7.015  15.646  0.00  0.00    +0.000 C 
ATOM     14  C   UNL     1      50.809   7.034  15.856  0.00  0.00    +0.000 C 
ATOM     15  C   UNL     1      48.712   5.795  16.407  0.00  0.00    +0.000 C 
ENDBRANCH   1  13
BRANCH   6  16
ATOM     16  N   UNL     1      46.738   6.091  14.032  0.00  0.00    +0.000 N 
ATOM     17  H   UNL     1      46.744   6.246  15.036  0.00  0.00    +0.000 HD
BRANCH  16  18
ATOM     18  C   UNL     1      46.481   4.687  13.705  0.00  0.00    +0.000 C 
BRANCH  18  19
ATOM     19  C   UNL     1      45.036   4.399  13.278  0.00  0.00    +0.000 C 
ATOM     20  C   UNL     1      44.912   3.355  12.162  0.00  0.00    +0.000 C 
ATOM     21  C   UNL     1      43.439   3.116  11.837  0.00  0.00    +0.000 C 
ATOM     22  O   UNL     1      42.793   4.341  11.486  0.00  0.00    +0.000 OA
ATOM     23  C   UNL     1      42.815   5.292  12.549  0.00  0.00    +0.000 C 
ATOM     24  C   UNL     1      44.250   5.662  12.903  0.00  0.00    +0.000 C 
ENDBRANCH  18  19
ENDBRANCH  16  18
ENDBRANCH   6  16
TORSDOF 5
ENDMDL
