MODEL 1
REMARK VINA RESULT:    -7.892      0.000      0.000
REMARK INTER + INTRA:         -10.969
REMARK INTER:                 -10.660
REMARK INTRA:                  -0.309
REMARK UNBOUND:                -0.309
REMARK  Name = 
REMARK  7 active torsions:
REMARK  status: ('A' for Active; 'I' for Inactive)
REMARK    1  A    between atoms: C_1  and  C_2
REMARK    2  A    between atoms: C_2  and  N_3
REMARK    3  A    between atoms: N_3  and  C_4
REMARK    4  A    between atoms: C_8  and  C_9
REMARK    5  A    between atoms: C_10  and  N_11
REMARK    6  A    between atoms: N_11  and  C_12
REMARK    7  A    between atoms: C_15  and  C_16
REMARK                            x       y       z     vdW  Elec       q    Type
REMARK                         _______ _______ _______ _____ _____    ______ ____
ROOT
ATOM      1  C   UNL     1      45.819   5.691  11.586  0.00  0.00    +0.000 C 
ATOM      2  C   UNL     1      44.687   5.864  10.888  0.00  0.00    +0.000 C 
ENDROOT
BRANCH   1   7
ATOM      3  C   UNL     1      48.034   7.288  14.199  0.00  0.00    +0.000 A 
ATOM      4  C   UNL     1      47.574   8.605  14.181  0.00  0.00    +0.000 A 
ATOM      5  C   UNL     1      46.565   8.994  13.293  0.00  0.00    +0.000 A 
ATOM      6  C   UNL     1      45.977   8.060  12.439  0.00  0.00    +0.000 A 
ATOM      7  C   UNL     1      46.400   6.727  12.453  0.00  0.00    +0.000 A 
ATOM      8  C   UNL     1      47.407   6.355  13.352  0.00  0.00    +0.000 A 
BRANCH   3   9
ATOM      9  N   UNL     1      49.034   6.809  15.058  0.00  0.00    +0.000 N 
ATOM     10  H   UNL     1      49.942   7.224  14.878  0.00  0.00    +0.000 HD
BRANCH   9  12
ATOM     11  C   UNL     1      48.854   7.226  17.551  0.00  0.00    +0.000 C 
ATOM     12  C   UNL     1      48.828   6.266  16.398  0.00  0.00    +0.000 C 
ATOM     13  C   UNL     1      48.298   4.861  16.596  0.00  0.00    +0.000 C 
ATOM     14  O   UNL     1      49.697   5.143  16.649  0.00  0.00    +0.000 OA
ENDBRANCH   9  12
ENDBRANCH   3   9
ENDBRANCH   1   7
BRANCH   2  15
ATOM     15  N   UNL     1      44.077   4.963  10.057  0.00  0.00    +0.000 N 
ATOM     16  H   UNL     1      43.079   5.076   9.922  0.00  0.00    +0.000 HD
BRANCH  15  17
ATOM     17  C   UNL     1      44.704   3.949   9.314  0.00  0.00    +0.000 A 
ATOM     18  C   UNL     1      44.524   2.586   9.594  0.00  0.00    +0.000 A 
ATOM     19  C   UNL     1      45.250   1.605   8.915  0.00  0.00    +0.000 A 
ATOM     20  C   UNL     1      46.192   1.964   7.942  0.00  0.00    +0.000 A 
ATOM     21  C   UNL     1      46.369   3.317   7.657  0.00  0.00    +0.000 A 
ATOM     22  F   UNL     1      47.266   3.721   6.746  0.00  0.00    +0.000 F 
ATOM     23  C   UNL     1      45.636   4.301   8.329  0.00  0.00    +0.000 A 
BRANCH  20  24
ATOM     24  C   UNL     1      46.966   0.884   7.284  0.00  0.00    +0.000 C 
ATOM     25  N   UNL     1      46.720  -0.408   7.647  0.00  0.00    +0.000 N 
ATOM     26  O   UNL     1      47.809   1.135   6.426  0.00  0.00    +0.000 OA
ATOM     27  H   UNL     1      46.027  -0.664   8.343  0.00  0.00    +0.000 HD
ATOM     28  H   UNL     1      47.248  -1.139   7.191  0.00  0.00    +0.000 HD
ENDBRANCH  20  24
ENDBRANCH  15  17
ENDBRANCH   2  15
TORSDOF 6
ENDMDL
MODEL 2
REMARK VINA RESULT:    -7.194      2.284      2.727
REMARK INTER + INTRA:         -10.027
REMARK INTER:                  -9.771
REMARK INTRA:                  -0.256
REMARK UNBOUND:                -0.309
REMARK  Name = 
REMARK  7 active torsions:
REMARK  status: ('A' for Active; 'I' for Inactive)
REMARK    1  A    between atoms: C_1  and  C_2
REMARK    2  A    between atoms: C_2  and  N_3
REMARK    3  A    between atoms: N_3  and  C_4
REMARK    4  A    between atoms: C_8  and  C_9
REMARK    5  A    between atoms: C_10  and  N_11
REMARK    6  A    between atoms: N_11  and  C_12
REMARK    7  A    between atoms: C_15  and  C_16
REMARK                            x       y       z     vdW  Elec       q    Type
REMARK                         _______ _______ _______ _____ _____    ______ ____
ROOT
ATOM      1  C   UNL     1      45.941   6.114  11.020  0.00  0.00    +0.000 C 
ATOM      2  C   UNL     1      44.630   5.955  10.781  0.00  0.00    +0.000 C 
ENDROOT
BRANCH   1   7
ATOM      3  C   UNL     1      48.336   8.827  12.107  0.00  0.00    +0.000 A 
ATOM      4  C   UNL     1      47.665   9.362  13.207  0.00  0.00    +0.000 A 
ATOM      5  C   UNL     1      46.410   8.870  13.582  0.00  0.00    +0.000 A 
ATOM      6  C   UNL     1      45.830   7.809  12.884  0.00  0.00    +0.000 A 
ATOM      7  C   UNL     1      46.491   7.236  11.794  0.00  0.00    +0.000 A 
ATOM      8  C   UNL     1      47.749   7.739  11.436  0.00  0.00    +0.000 A 
BRANCH   3   9
ATOM      9  N   UNL     1      49.598   9.253  11.665  0.00  0.00    +0.000 N 
ATOM     10  H   UNL     1      49.650  10.256  11.523  0.00  0.00    +0.000 HD
BRANCH   9  12
ATOM     11  C   UNL     1      51.354   7.621  10.844  0.00  0.00    +0.000 C 
ATOM     12  C   UNL     1      50.867   8.569  11.900  0.00  0.00    +0.000 C 
ATOM     13  C   UNL     1      51.805   9.026  12.997  0.00  0.00    +0.000 C 
ATOM     14  O   UNL     1      50.895   7.945  13.200  0.00  0.00    +0.000 OA
ENDBRANCH   9  12
ENDBRANCH   3   9
ENDBRANCH   1   7
BRANCH   2  15
ATOM     15  N   UNL     1      44.031   4.951  10.072  0.00  0.00    +0.000 N 
ATOM     16  H   UNL     1      43.018   4.968  10.031  0.00  0.00    +0.000 HD
BRANCH  15  17
ATOM     17  C   UNL     1      44.675   3.945   9.332  0.00  0.00    +0.000 A 
ATOM     18  C   UNL     1      44.519   2.581   9.617  0.00  0.00    +0.000 A 
ATOM     19  C   UNL     1      45.262   1.609   8.941  0.00  0.00    +0.000 A 
ATOM     20  C   UNL     1      46.197   1.982   7.966  0.00  0.00    +0.000 A 
ATOM     21  C   UNL     1      46.349   3.337   7.676  0.00  0.00    +0.000 A 
ATOM     22  F   UNL     1      47.239   3.753   6.762  0.00  0.00    +0.000 F 
ATOM     23  C   UNL     1      45.600   4.310   8.345  0.00  0.00    +0.000 A 
BRANCH  20  24
ATOM     24  C   UNL     1      46.990   0.913   7.311  0.00  0.00    +0.000 C 
ATOM     25  N   UNL     1      46.742  -0.384   7.654  0.00  0.00    +0.000 N 
ATOM     26  O   UNL     1      47.850   1.179   6.474  0.00  0.00    +0.000 OA
ATOM     27  H   UNL     1      46.037  -0.652   8.332  0.00  0.00    +0.000 HD
ATOM     28  H   UNL     1      47.283  -1.108   7.201  0.00  0.00    +0.000 HD
ENDBRANCH  20  24
ENDBRANCH  15  17
ENDBRANCH   2  15
TORSDOF 6
ENDMDL
MODEL 3
REMARK VINA RESULT:    -7.181      2.107      3.307
REMARK INTER + INTRA:         -10.009
REMARK INTER:                  -9.565
REMARK INTRA:                  -0.444
REMARK UNBOUND:                -0.309
REMARK  Name = 
REMARK  7 active torsions:
REMARK  status: ('A' for Active; 'I' for Inactive)
REMARK    1  A    between atoms: C_1  and  C_2
REMARK    2  A    between atoms: C_2  and  N_3
REMARK    3  A    between atoms: N_3  and  C_4
REMARK    4  A    between atoms: C_8  and  C_9
REMARK    5  A    between atoms: C_10  and  N_11
REMARK    6  A    between atoms: N_11  and  C_12
REMARK    7  A    between atoms: C_15  and  C_16
REMARK                            x       y       z     vdW  Elec       q    Type
REMARK                         _______ _______ _______ _____ _____    ______ ____
ROOT
ATOM      1  C   UNL     1      46.167   5.603  11.839  0.00  0.00    +0.000 C 
ATOM      2  C   UNL     1      45.102   5.969  11.109  0.00  0.00    +0.000 C 
ENDROOT
BRANCH   1   7
ATOM      3  C   UNL     1      47.362   8.826  13.410  0.00  0.00    +0.000 A 
ATOM      4  C   UNL     1      48.155   8.346  14.452  0.00  0.00    +0.000 A 
ATOM      5  C   UNL     1      48.278   6.970  14.677  0.00  0.00    +0.000 A 
ATOM      6  C   UNL     1      47.640   6.057  13.835  0.00  0.00    +0.000 A 
ATOM      7  C   UNL     1      46.860   6.509  12.767  0.00  0.00    +0.000 A 
ATOM      8  C   UNL     1      46.752   7.889  12.555  0.00  0.00    +0.000 A 
BRANCH   3   9
ATOM      9  N   UNL     1      47.187  10.185  13.108  0.00  0.00    +0.000 N 
ATOM     10  H   UNL     1      46.767  10.708  13.869  0.00  0.00    +0.000 HD
BRANCH   9  12
ATOM     11  C   UNL     1      47.269  11.450  10.914  0.00  0.00    +0.000 C 
ATOM     12  C   UNL     1      47.968  10.959  12.148  0.00  0.00    +0.000 C 
ATOM     13  C   UNL     1      49.327  11.516  12.520  0.00  0.00    +0.000 C 
ATOM     14  O   UNL     1      49.197  10.286  11.805  0.00  0.00    +0.000 OA
ENDBRANCH   9  12
ENDBRANCH   3   9
ENDBRANCH   1   7
BRANCH   2  15
ATOM     15  N   UNL     1      44.399   5.201  10.222  0.00  0.00    +0.000 N 
ATOM     16  H   UNL     1      43.429   5.453  10.075  0.00  0.00    +0.000 HD
BRANCH  15  17
ATOM     17  C   UNL     1      44.904   4.150   9.437  0.00  0.00    +0.000 A 
ATOM     18  C   UNL     1      44.720   2.801   9.775  0.00  0.00    +0.000 A 
ATOM     19  C   UNL     1      45.333   1.781   9.041  0.00  0.00    +0.000 A 
ATOM     20  C   UNL     1      46.161   2.087   7.954  0.00  0.00    +0.000 A 
ATOM     21  C   UNL     1      46.340   3.428   7.613  0.00  0.00    +0.000 A 
ATOM     22  F   UNL     1      47.133   3.781   6.590  0.00  0.00    +0.000 F 
ATOM     23  C   UNL     1      45.721   4.450   8.340  0.00  0.00    +0.000 A 
BRANCH  20  24
ATOM     24  C   UNL     1      46.820   0.968   7.238  0.00  0.00    +0.000 C 
ATOM     25  N   UNL     1      46.651  -0.298   7.715  0.00  0.00    +0.000 N 
ATOM     26  O   UNL     1      47.502   1.166   6.235  0.00  0.00    +0.000 OA
ATOM     27  H   UNL     1      46.091  -0.511   8.533  0.00  0.00    +0.000 HD
ATOM     28  H   UNL     1      47.100  -1.057   7.220  0.00  0.00    +0.000 HD
ENDBRANCH  20  24
ENDBRANCH  15  17
ENDBRANCH   2  15
TORSDOF 6
ENDMDL
MODEL 4
REMARK VINA RESULT:    -6.798      3.655      8.626
REMARK INTER + INTRA:          -9.492
REMARK INTER:                  -8.918
REMARK INTRA:                  -0.574
REMARK UNBOUND:                -0.309
REMARK  Name = 
REMARK  7 active torsions:
REMARK  status: ('A' for Active; 'I' for Inactive)
REMARK    1  A    between atoms: C_1  and  C_2
REMARK    2  A    between atoms: C_2  and  N_3
REMARK    3  A    between atoms: N_3  and  C_4
REMARK    4  A    between atoms: C_8  and  C_9
REMARK    5  A    between atoms: C_10  and  N_11
REMARK    6  A    between atoms: N_11  and  C_12
REMARK    7  A    between atoms: C_15  and  C_16
REMARK                            x       y       z     vdW  Elec       q    Type
REMARK                         _______ _______ _______ _____ _____    ______ ____
ROOT
ATOM      1  C   UNL     1      46.939   4.141  14.151  0.00  0.00    +0.000 C 
ATOM      2  C   UNL     1      46.827   4.348  15.472  0.00  0.00    +0.000 C 
ENDROOT
BRANCH   1   7
ATOM      3  C   UNL     1      45.237   5.402  11.021  0.00  0.00    +0.000 A 
ATOM      4  C   UNL     1      45.452   6.776  11.126  0.00  0.00    +0.000 A 
ATOM      5  C   UNL     1      46.119   7.309  12.235  0.00  0.00    +0.000 A 
ATOM      6  C   UNL     1      46.615   6.468  13.233  0.00  0.00    +0.000 A 
ATOM      7  C   UNL     1      46.437   5.084  13.141  0.00  0.00    +0.000 A 
ATOM      8  C   UNL     1      45.771   4.569  12.022  0.00  0.00    +0.000 A 
BRANCH   3   9
ATOM      9  N   UNL     1      44.586   4.781   9.945  0.00  0.00    +0.000 N 
ATOM     10  H   UNL     1      43.805   5.323   9.589  0.00  0.00    +0.000 HD
BRANCH   9  12
ATOM     11  C   UNL     1      46.135   4.353   7.986  0.00  0.00    +0.000 C 
ATOM     12  C   UNL     1      45.181   3.824   9.016  0.00  0.00    +0.000 C 
ATOM     13  C   UNL     1      45.096   2.334   9.274  0.00  0.00    +0.000 C 
ATOM     14  O   UNL     1      44.175   2.992   8.403  0.00  0.00    +0.000 OA
ENDBRANCH   9  12
ENDBRANCH   3   9
ENDBRANCH   1   7
BRANCH   2  15
ATOM     15  N   UNL     1      47.258   3.530  16.481  0.00  0.00    +0.000 N 
ATOM     16  H   UNL     1      46.574   2.887  16.864  0.00  0.00    +0.000 HD
BRANCH  15  17
ATOM     17  C   UNL     1      48.566   3.435  16.984  0.00  0.00    +0.000 A 
ATOM     18  C   UNL     1      49.219   4.515  17.595  0.00  0.00    +0.000 A 
ATOM     19  C   UNL     1      50.560   4.427  17.981  0.00  0.00    +0.000 A 
ATOM     20  C   UNL     1      51.289   3.253  17.750  0.00  0.00    +0.000 A 
ATOM     21  C   UNL     1      50.640   2.176  17.149  0.00  0.00    +0.000 A 
ATOM     22  F   UNL     1      51.292   1.032  16.891  0.00  0.00    +0.000 F 
ATOM     23  C   UNL     1      49.296   2.259  16.771  0.00  0.00    +0.000 A 
BRANCH  20  24
ATOM     24  C   UNL     1      52.720   3.230  18.139  0.00  0.00    +0.000 C 
ATOM     25  N   UNL     1      53.142   2.269  19.010  0.00  0.00    +0.000 N 
ATOM     26  O   UNL     1      53.517   4.051  17.689  0.00  0.00    +0.000 OA
ATOM     27  H   UNL     1      52.523   1.566  19.400  0.00  0.00    +0.000 HD
ATOM     28  H   UNL     1      54.119   2.256  19.268  0.00  0.00    +0.000 HD
ENDBRANCH  20  24
ENDBRANCH  15  17
ENDBRANCH   2  15
TORSDOF 6
ENDMDL
MODEL 5
REMARK VINA RESULT:    -6.642      4.525      5.634
REMARK INTER + INTRA:          -9.280
REMARK INTER:                  -8.526
REMARK INTRA:                  -0.754
REMARK UNBOUND:                -0.309
REMARK  Name = 
REMARK  7 active torsions:
REMARK  status: ('A' for Active; 'I' for Inactive)
REMARK    1  A    between atoms: C_1  and  C_2
REMARK    2  A    between atoms: C_2  and  N_3
REMARK    3  A    between atoms: N_3  and  C_4
REMARK    4  A    between atoms: C_8  and  C_9
REMARK    5  A    between atoms: C_10  and  N_11
REMARK    6  A    between atoms: N_11  and  C_12
REMARK    7  A    between atoms: C_15  and  C_16
REMARK                            x       y       z     vdW  Elec       q    Type
REMARK                         _______ _______ _______ _____ _____    ______ ____
ROOT
ATOM      1  C   UNL     1      48.043   7.730  12.054  0.00  0.00    +0.000 C 
ATOM      2  C   UNL     1      47.108   8.298  12.831  0.00  0.00    +0.000 C 
ENDROOT
BRANCH   1   7
ATOM      3  C   UNL     1      51.663   8.236  11.097  0.00  0.00    +0.000 A 
ATOM      4  C   UNL     1      51.699   9.613  10.876  0.00  0.00    +0.000 A 
ATOM      5  C   UNL     1      50.538  10.384  10.999  0.00  0.00    +0.000 A 
ATOM      6  C   UNL     1      49.334   9.791  11.385  0.00  0.00    +0.000 A 
ATOM      7  C   UNL     1      49.274   8.417  11.638  0.00  0.00    +0.000 A 
ATOM      8  C   UNL     1      50.448   7.663  11.514  0.00  0.00    +0.000 A 
BRANCH   3   9
ATOM      9  N   UNL     1      52.778   7.389  11.003  0.00  0.00    +0.000 N 
ATOM     10  H   UNL     1      52.964   6.884  11.864  0.00  0.00    +0.000 HD
BRANCH   9  12
ATOM     11  C   UNL     1      52.517   6.987   8.515  0.00  0.00    +0.000 C 
ATOM     12  C   UNL     1      53.301   6.790   9.779  0.00  0.00    +0.000 C 
ATOM     13  C   UNL     1      54.721   6.267   9.714  0.00  0.00    +0.000 C 
ATOM     14  O   UNL     1      53.619   5.396   9.970  0.00  0.00    +0.000 OA
ENDBRANCH   9  12
ENDBRANCH   3   9
ENDBRANCH   1   7
BRANCH   2  15
ATOM     15  N   UNL     1      45.936   7.741  13.263  0.00  0.00    +0.000 N 
ATOM     16  H   UNL     1      45.395   8.283  13.927  0.00  0.00    +0.000 HD
BRANCH  15  17
ATOM     17  C   UNL     1      45.368   6.533  12.823  0.00  0.00    +0.000 A 
ATOM     18  C   UNL     1      45.784   5.284  13.306  0.00  0.00    +0.000 A 
ATOM     19  C   UNL     1      45.285   4.096  12.766  0.00  0.00    +0.000 A 
ATOM     20  C   UNL     1      44.362   4.127  11.712  0.00  0.00    +0.000 A 
ATOM     21  C   UNL     1      43.941   5.368  11.236  0.00  0.00    +0.000 A 
ATOM     22  F   UNL     1      43.069   5.460  10.220  0.00  0.00    +0.000 F 
ATOM     23  C   UNL     1      44.433   6.559  11.781  0.00  0.00    +0.000 A 
BRANCH  20  24
ATOM     24  C   UNL     1      43.898   2.836  11.148  0.00  0.00    +0.000 C 
ATOM     25  N   UNL     1      44.554   2.327  10.066  0.00  0.00    +0.000 N 
ATOM     26  O   UNL     1      42.949   2.230  11.639  0.00  0.00    +0.000 OA
ATOM     27  H   UNL     1      45.347   2.786   9.633  0.00  0.00    +0.000 HD
ATOM     28  H   UNL     1      44.235   1.444   9.689  0.00  0.00    +0.000 HD
ENDBRANCH  20  24
ENDBRANCH  15  17
ENDBRANCH   2  15
TORSDOF 6
ENDMDL
MODEL 6
REMARK VINA RESULT:    -6.558      3.033      8.526
REMARK INTER + INTRA:          -9.168
REMARK INTER:                  -8.579
REMARK INTRA:                  -0.589
REMARK UNBOUND:                -0.309
REMARK  Name = 
REMARK  7 active torsions:
REMARK  status: ('A' for Active; 'I' for Inactive)
REMARK    1  A    between atoms: C_1  and  C_2
REMARK    2  A    between atoms: C_2  and  N_3
REMARK    3  A    between atoms: N_3  and  C_4
REMARK    4  A    between atoms: C_8  and  C_9
REMARK    5  A    between atoms: C_10  and  N_11
REMARK    6  A    between atoms: N_11  and  C_12
REMARK    7  A    between atoms: C_15  and  C_16
REMARK                            x       y       z     vdW  Elec       q    Type
REMARK                         _______ _______ _______ _____ _____    ______ ____
ROOT
ATOM      1  C   UNL     1      45.748   6.194  11.184  0.00  0.00    +0.000 C 
ATOM      2  C   UNL     1      45.837   6.383  12.509  0.00  0.00    +0.000 C 
ENDROOT
BRANCH   1   7
ATOM      3  C   UNL     1      45.232   3.463   8.623  0.00  0.00    +0.000 A 
ATOM      4  C   UNL     1      44.345   2.621   9.295  0.00  0.00    +0.000 A 
ATOM      5  C   UNL     1      43.936   2.914  10.600  0.00  0.00    +0.000 A 
ATOM      6  C   UNL     1      44.380   4.076  11.235  0.00  0.00    +0.000 A 
ATOM      7  C   UNL     1      45.248   4.951  10.577  0.00  0.00    +0.000 A 
ATOM      8  C   UNL     1      45.643   4.644   9.269  0.00  0.00    +0.000 A 
BRANCH   3   9
ATOM      9  N   UNL     1      45.689   3.251   7.314  0.00  0.00    +0.000 N 
ATOM     10  H   UNL     1      45.562   4.061   6.715  0.00  0.00    +0.000 HD
BRANCH   9  12
ATOM     11  C   UNL     1      46.773   0.980   7.608  0.00  0.00    +0.000 C 
ATOM     12  C   UNL     1      46.723   2.305   6.906  0.00  0.00    +0.000 C 
ATOM     13  C   UNL     1      47.508   2.513   5.627  0.00  0.00    +0.000 C 
ATOM     14  O   UNL     1      48.026   2.925   6.893  0.00  0.00    +0.000 OA
ENDBRANCH   9  12
ENDBRANCH   3   9
ENDBRANCH   1   7
BRANCH   2  15
ATOM     15  N   UNL     1      46.291   7.498  13.160  0.00  0.00    +0.000 N 
ATOM     16  H   UNL     1      45.586   8.117  13.542  0.00  0.00    +0.000 HD
BRANCH  15  17
ATOM     17  C   UNL     1      47.632   7.831  13.421  0.00  0.00    +0.000 A 
ATOM     18  C   UNL     1      48.340   8.766  12.651  0.00  0.00    +0.000 A 
ATOM     19  C   UNL     1      49.703   8.990  12.859  0.00  0.00    +0.000 A 
ATOM     20  C   UNL     1      50.401   8.270  13.838  0.00  0.00    +0.000 A 
ATOM     21  C   UNL     1      49.697   7.345  14.608  0.00  0.00    +0.000 A 
ATOM     22  F   UNL     1      50.315   6.618  15.550  0.00  0.00    +0.000 F 
ATOM     23  C   UNL     1      48.330   7.125  14.408  0.00  0.00    +0.000 A 
BRANCH  20  24
ATOM     24  C   UNL     1      51.855   8.517  13.986  0.00  0.00    +0.000 C 
ATOM     25  N   UNL     1      52.695   8.057  13.015  0.00  0.00    +0.000 N 
ATOM     26  O   UNL     1      52.303   9.126  14.954  0.00  0.00    +0.000 OA
ATOM     27  H   UNL     1      52.371   7.557  12.193  0.00  0.00    +0.000 HD
ATOM     28  H   UNL     1      53.686   8.232  13.120  0.00  0.00    +0.000 HD
ENDBRANCH  20  24
ENDBRANCH  15  17
ENDBRANCH   2  15
TORSDOF 6
ENDMDL
MODEL 7
REMARK VINA RESULT:    -6.533      1.995      2.861
REMARK INTER + INTRA:          -9.133
REMARK INTER:                  -8.652
REMARK INTRA:                  -0.482
REMARK UNBOUND:                -0.309
REMARK  Name = 
REMARK  7 active torsions:
REMARK  status: ('A' for Active; 'I' for Inactive)
REMARK    1  A    between atoms: C_1  and  C_2
REMARK    2  A    between atoms: C_2  and  N_3
REMARK    3  A    between atoms: N_3  and  C_4
REMARK    4  A    between atoms: C_8  and  C_9
REMARK    5  A    between atoms: C_10  and  N_11
REMARK    6  A    between atoms: N_11  and  C_12
REMARK    7  A    between atoms: C_15  and  C_16
REMARK                            x       y       z     vdW  Elec       q    Type
REMARK                         _______ _______ _______ _____ _____    ______ ____
ROOT
ATOM      1  C   UNL     1      46.166   4.158  12.973  0.00  0.00    +0.000 C 
ATOM      2  C   UNL     1      45.210   4.813  12.298  0.00  0.00    +0.000 C 
ENDROOT
BRANCH   1   7
ATOM      3  C   UNL     1      48.279   6.665  14.852  0.00  0.00    +0.000 A 
ATOM      4  C   UNL     1      48.465   6.010  16.069  0.00  0.00    +0.000 A 
ATOM      5  C   UNL     1      47.874   4.764  16.305  0.00  0.00    +0.000 A 
ATOM      6  C   UNL     1      47.121   4.140  15.308  0.00  0.00    +0.000 A 
ATOM      7  C   UNL     1      46.940   4.761  14.069  0.00  0.00    +0.000 A 
ATOM      8  C   UNL     1      47.543   6.006  13.850  0.00  0.00    +0.000 A 
BRANCH   3   9
ATOM      9  N   UNL     1      48.839   7.910  14.528  0.00  0.00    +0.000 N 
ATOM     10  H   UNL     1      48.574   8.644  15.177  0.00  0.00    +0.000 HD
BRANCH   9  12
ATOM     11  C   UNL     1      51.368   8.062  14.528  0.00  0.00    +0.000 C 
ATOM     12  C   UNL     1      50.071   8.129  13.776  0.00  0.00    +0.000 C 
ATOM     13  C   UNL     1      50.073   8.109  12.262  0.00  0.00    +0.000 C 
ATOM     14  O   UNL     1      49.999   9.336  12.989  0.00  0.00    +0.000 OA
ENDBRANCH   9  12
ENDBRANCH   3   9
ENDBRANCH   1   7
BRANCH   2  15
ATOM     15  N   UNL     1      44.446   4.338  11.268  0.00  0.00    +0.000 N 
ATOM     16  H   UNL     1      43.444   4.465  11.352  0.00  0.00    +0.000 HD
BRANCH  15  17
ATOM     17  C   UNL     1      44.911   3.762  10.073  0.00  0.00    +0.000 A 
ATOM     18  C   UNL     1      44.781   2.393   9.794  0.00  0.00    +0.000 A 
ATOM     19  C   UNL     1      45.356   1.829   8.653  0.00  0.00    +0.000 A 
ATOM     20  C   UNL     1      46.093   2.621   7.763  0.00  0.00    +0.000 A 
ATOM     21  C   UNL     1      46.218   3.983   8.035  0.00  0.00    +0.000 A 
ATOM     22  F   UNL     1      46.924   4.787   7.226  0.00  0.00    +0.000 F 
ATOM     23  C   UNL     1      45.636   4.552   9.172  0.00  0.00    +0.000 A 
BRANCH  20  24
ATOM     24  C   UNL     1      46.719   1.962   6.591  0.00  0.00    +0.000 C 
ATOM     25  N   UNL     1      46.761   2.640   5.409  0.00  0.00    +0.000 N 
ATOM     26  O   UNL     1      47.195   0.832   6.675  0.00  0.00    +0.000 OA
ATOM     27  H   UNL     1      46.389   3.577   5.295  0.00  0.00    +0.000 HD
ATOM     28  H   UNL     1      47.192   2.186   4.615  0.00  0.00    +0.000 HD
ENDBRANCH  20  24
ENDBRANCH  15  17
ENDBRANCH   2  15
TORSDOF 6
ENDMDL
MODEL 8
REMARK VINA RESULT:    -6.532      3.862      8.577
REMARK INTER + INTRA:          -9.133
REMARK INTER:                  -8.457
REMARK INTRA:                  -0.676
REMARK UNBOUND:                -0.309
REMARK  Name = 
REMARK  7 active torsions:
REMARK  status: ('A' for Active; 'I' for Inactive)
REMARK    1  A    between atoms: C_1  and  C_2
REMARK    2  A    between atoms: C_2  and  N_3
REMARK    3  A    between atoms: N_3  and  C_4
REMARK    4  A    between atoms: C_8  and  C_9
REMARK    5  A    between atoms: C_10  and  N_11
REMARK    6  A    between atoms: N_11  and  C_12
REMARK    7  A    between atoms: C_15  and  C_16
REMARK                            x       y       z     vdW  Elec       q    Type
REMARK                         _______ _______ _______ _____ _____    ______ ____
ROOT
ATOM      1  C   UNL     1      47.741   5.137  14.978  0.00  0.00    +0.000 C 
ATOM      2  C   UNL     1      47.116   4.191  15.695  0.00  0.00    +0.000 C 
ENDROOT
BRANCH   1   7
ATOM      3  C   UNL     1      45.465   5.572  11.993  0.00  0.00    +0.000 A 
ATOM      4  C   UNL     1      46.178   6.502  11.237  0.00  0.00    +0.000 A 
ATOM      5  C   UNL     1      47.388   7.025  11.708  0.00  0.00    +0.000 A 
ATOM      6  C   UNL     1      47.918   6.592  12.925  0.00  0.00    +0.000 A 
ATOM      7  C   UNL     1      47.238   5.641  13.692  0.00  0.00    +0.000 A 
ATOM      8  C   UNL     1      46.031   5.126  13.202  0.00  0.00    +0.000 A 
BRANCH   3   9
ATOM      9  N   UNL     1      44.251   4.991  11.596  0.00  0.00    +0.000 N 
ATOM     10  H   UNL     1      43.567   5.675  11.291  0.00  0.00    +0.000 HD
BRANCH   9  12
ATOM     11  C   UNL     1      43.382   2.643  11.984  0.00  0.00    +0.000 C 
ATOM     12  C   UNL     1      44.072   3.633  11.092  0.00  0.00    +0.000 C 
ATOM     13  C   UNL     1      44.281   3.313   9.627  0.00  0.00    +0.000 C 
ATOM     14  O   UNL     1      45.311   3.091  10.591  0.00  0.00    +0.000 OA
ENDBRANCH   9  12
ENDBRANCH   3   9
ENDBRANCH   1   7
BRANCH   2  15
ATOM     15  N   UNL     1      47.510   3.660  16.893  0.00  0.00    +0.000 N 
ATOM     16  H   UNL     1      46.775   3.297  17.490  0.00  0.00    +0.000 HD
BRANCH  15  17
ATOM     17  C   UNL     1      48.830   3.497  17.346  0.00  0.00    +0.000 A 
ATOM     18  C   UNL     1      49.511   4.492  18.061  0.00  0.00    +0.000 A 
ATOM     19  C   UNL     1      50.860   4.349  18.396  0.00  0.00    +0.000 A 
ATOM     20  C   UNL     1      51.571   3.206  18.008  0.00  0.00    +0.000 A 
ATOM     21  C   UNL     1      50.893   2.212  17.303  0.00  0.00    +0.000 A 
ATOM     22  F   UNL     1      51.526   1.101  16.894  0.00  0.00    +0.000 F 
ATOM     23  C   UNL     1      49.541   2.348  16.975  0.00  0.00    +0.000 A 
BRANCH  20  24
ATOM     24  C   UNL     1      53.011   3.126  18.352  0.00  0.00    +0.000 C 
ATOM     25  N   UNL     1      53.425   2.134  19.192  0.00  0.00    +0.000 N 
ATOM     26  O   UNL     1      53.822   3.927  17.892  0.00  0.00    +0.000 OA
ATOM     27  H   UNL     1      52.795   1.445  19.589  0.00  0.00    +0.000 HD
ATOM     28  H   UNL     1      54.409   2.083  19.419  0.00  0.00    +0.000 HD
ENDBRANCH  20  24
ENDBRANCH  15  17
ENDBRANCH   2  15
TORSDOF 6
ENDMDL
MODEL 9
REMARK VINA RESULT:    -6.467      3.234      9.171
REMARK INTER + INTRA:          -9.045
REMARK INTER:                  -8.375
REMARK INTRA:                  -0.670
REMARK UNBOUND:                -0.309
REMARK  Name = 
REMARK  7 active torsions:
REMARK  status: ('A' for Active; 'I' for Inactive)
REMARK    1  A    between atoms: C_1  and  C_2
REMARK    2  A    between atoms: C_2  and  N_3
REMARK    3  A    between atoms: N_3  and  C_4
REMARK    4  A    between atoms: C_8  and  C_9
REMARK    5  A    between atoms: C_10  and  N_11
REMARK    6  A    between atoms: N_11  and  C_12
REMARK    7  A    between atoms: C_15  and  C_16
REMARK                            x       y       z     vdW  Elec       q    Type
REMARK                         _______ _______ _______ _____ _____    ______ ____
ROOT
ATOM      1  C   UNL     1      46.774   6.319  12.979  0.00  0.00    +0.000 C 
ATOM      2  C   UNL     1      47.150   5.852  14.179  0.00  0.00    +0.000 C 
ENDROOT
BRANCH   1   7
ATOM      3  C   UNL     1      44.680   4.984  10.130  0.00  0.00    +0.000 A 
ATOM      4  C   UNL     1      43.429   4.877  10.735  0.00  0.00    +0.000 A 
ATOM      5  C   UNL     1      43.261   5.202  12.086  0.00  0.00    +0.000 A 
ATOM      6  C   UNL     1      44.339   5.677  12.837  0.00  0.00    +0.000 A 
ATOM      7  C   UNL     1      45.599   5.819  12.249  0.00  0.00    +0.000 A 
ATOM      8  C   UNL     1      45.746   5.493  10.895  0.00  0.00    +0.000 A 
BRANCH   3   9
ATOM      9  N   UNL     1      44.938   4.688   8.783  0.00  0.00    +0.000 N 
ATOM     10  H   UNL     1      45.184   5.507   8.237  0.00  0.00    +0.000 HD
BRANCH   9  12
ATOM     11  C   UNL     1      45.161   2.183   9.098  0.00  0.00    +0.000 C 
ATOM     12  C   UNL     1      45.394   3.404   8.257  0.00  0.00    +0.000 C 
ATOM     13  C   UNL     1      45.793   3.256   6.804  0.00  0.00    +0.000 C 
ATOM     14  O   UNL     1      46.768   3.472   7.824  0.00  0.00    +0.000 OA
ENDBRANCH   9  12
ENDBRANCH   3   9
ENDBRANCH   1   7
BRANCH   2  15
ATOM     15  N   UNL     1      48.224   6.252  14.927  0.00  0.00    +0.000 N 
ATOM     16  H   UNL     1      48.863   6.903  14.487  0.00  0.00    +0.000 HD
BRANCH  15  17
ATOM     17  C   UNL     1      48.489   5.912  16.264  0.00  0.00    +0.000 A 
ATOM     18  C   UNL     1      49.217   6.747  17.125  0.00  0.00    +0.000 A 
ATOM     19  C   UNL     1      49.565   6.332  18.413  0.00  0.00    +0.000 A 
ATOM     20  C   UNL     1      49.204   5.058  18.871  0.00  0.00    +0.000 A 
ATOM     21  C   UNL     1      48.475   4.230  18.019  0.00  0.00    +0.000 A 
ATOM     22  F   UNL     1      48.114   2.995  18.399  0.00  0.00    +0.000 F 
ATOM     23  C   UNL     1      48.117   4.646  16.733  0.00  0.00    +0.000 A 
BRANCH  20  24
ATOM     24  C   UNL     1      49.638   4.654  20.230  0.00  0.00    +0.000 C 
ATOM     25  N   UNL     1      50.969   4.461  20.458  0.00  0.00    +0.000 N 
ATOM     26  O   UNL     1      48.825   4.498  21.139  0.00  0.00    +0.000 OA
ATOM     27  H   UNL     1      51.677   4.587  19.743  0.00  0.00    +0.000 HD
ATOM     28  H   UNL     1      51.258   4.190  21.388  0.00  0.00    +0.000 HD
ENDBRANCH  20  24
ENDBRANCH  15  17
ENDBRANCH   2  15
TORSDOF 6
ENDMDL
