MODEL 1
REMARK VINA RESULT:    -7.394      0.000      0.000
REMARK INTER + INTRA:          -9.943
REMARK INTER:                  -9.339
REMARK INTRA:                  -0.604
REMARK UNBOUND:                -0.604
REMARK  Name = 
REMARK  5 active torsions:
REMARK  status: ('A' for Active; 'I' for Inactive)
REMARK    1  A    between atoms: N_1  and  C_2
REMARK    2  A    between atoms: C_2  and  C_3
REMARK    3  A    between atoms: C_3  and  C_4
REMARK    4  A    between atoms: C_7  and  C_8
REMARK    5  A    between atoms: C_8  and  N_9
REMARK                            x       y       z     vdW  Elec       q    Type
REMARK                         _______ _______ _______ _____ _____    ______ ____
ROOT
ATOM      1  C   UNL     1      46.139   2.344   7.854  0.00  0.00    +0.000 A 
ATOM      2  C   UNL     1      45.279   1.737   8.776  0.00  0.00    +0.000 A 
ATOM      3  C   UNL     1      44.527   2.510   9.667  0.00  0.00    +0.000 A 
ATOM      4  C   UNL     1      44.615   3.909   9.652  0.00  0.00    +0.000 A 
ATOM      5  C   UNL     1      45.457   4.516   8.709  0.00  0.00    +0.000 A 
ATOM      6  C   UNL     1      46.207   3.742   7.816  0.00  0.00    +0.000 A 
ENDROOT
BRANCH   1   7
ATOM      7  C   UNL     1      46.995   1.511   6.929  0.00  0.00    +0.000 C 
BRANCH   7   8
ATOM      8  C   UNL     1      48.277   2.227   6.493  0.00  0.00    +0.000 C 
BRANCH   8   9
ATOM      9  N   UNL     1      48.274   2.474   5.050  0.00  0.00    +0.000 NA
ATOM     10  H   UNL     1      47.523   3.124   4.819  0.00  0.00    +0.000 HD
ATOM     11  H   UNL     1      48.062   1.608   4.553  0.00  0.00    +0.000 HD
ENDBRANCH   8   9
ENDBRANCH   7   8
ENDBRANCH   1   7
BRANCH   4  12
ATOM     12  C   UNL     1      43.814   4.747  10.616  0.00  0.00    +0.000 C 
BRANCH  12  13
ATOM     13  N   UNL     1      44.622   5.312  11.694  0.00  0.00    +0.000 N 
ATOM     14  C   UNL     1      45.379   4.561  12.564  0.00  0.00    +0.000 A 
ATOM     15  C   UNL     1      46.157   5.420  13.309  0.00  0.00    +0.000 A 
ATOM     16  C   UNL     1      45.869   6.745  12.880  0.00  0.00    +0.000 A 
ATOM     17  C   UNL     1      46.359   8.009  13.240  0.00  0.00    +0.000 A 
ATOM     18  N   UNL     1      45.889   9.128  12.639  0.00  0.00    +0.000 NA
ATOM     19  C   UNL     1      44.932   9.003  11.696  0.00  0.00    +0.000 A 
ATOM     20  C   UNL     1      44.383   7.803  11.270  0.00  0.00    +0.000 A 
ATOM     21  C   UNL     1      44.890   6.657  11.884  0.00  0.00    +0.000 A 
ENDBRANCH  12  13
ENDBRANCH   4  12
TORSDOF 5
ENDMDL
MODEL 2
REMARK VINA RESULT:    -7.381      1.196      2.376
REMARK INTER + INTRA:          -9.927
REMARK INTER:                  -9.318
REMARK INTRA:                  -0.609
REMARK UNBOUND:                -0.604
REMARK  Name = 
REMARK  5 active torsions:
REMARK  status: ('A' for Active; 'I' for Inactive)
REMARK    1  A    between atoms: N_1  and  C_2
REMARK    2  A    between atoms: C_2  and  C_3
REMARK    3  A    between atoms: C_3  and  C_4
REMARK    4  A    between atoms: C_7  and  C_8
REMARK    5  A    between atoms: C_8  and  N_9
REMARK                            x       y       z     vdW  Elec       q    Type
REMARK                         _______ _______ _______ _____ _____    ______ ____
ROOT
ATOM      1  C   UNL     1      46.067   2.368   7.787  0.00  0.00    +0.000 A 
ATOM      2  C   UNL     1      45.275   1.762   8.770  0.00  0.00    +0.000 A 
ATOM      3  C   UNL     1      44.607   2.536   9.724  0.00  0.00    +0.000 A 
ATOM      4  C   UNL     1      44.710   3.933   9.714  0.00  0.00    +0.000 A 
ATOM      5  C   UNL     1      45.482   4.539   8.713  0.00  0.00    +0.000 A 
ATOM      6  C   UNL     1      46.149   3.766   7.757  0.00  0.00    +0.000 A 
ENDROOT
BRANCH   1   7
ATOM      7  C   UNL     1      46.837   1.534   6.790  0.00  0.00    +0.000 C 
BRANCH   7   8
ATOM      8  C   UNL     1      48.202   2.133   6.436  0.00  0.00    +0.000 C 
BRANCH   8   9
ATOM      9  N   UNL     1      48.270   2.477   5.015  0.00  0.00    +0.000 NA
ATOM     10  H   UNL     1      48.325   1.622   4.462  0.00  0.00    +0.000 HD
ATOM     11  H   UNL     1      49.129   2.993   4.827  0.00  0.00    +0.000 HD
ENDBRANCH   8   9
ENDBRANCH   7   8
ENDBRANCH   1   7
BRANCH   4  12
ATOM     12  C   UNL     1      43.998   4.771  10.746  0.00  0.00    +0.000 C 
BRANCH  12  13
ATOM     13  N   UNL     1      44.907   5.575  11.560  0.00  0.00    +0.000 N 
ATOM     14  C   UNL     1      44.885   6.950  11.607  0.00  0.00    +0.000 A 
ATOM     15  C   UNL     1      45.729   7.359  12.616  0.00  0.00    +0.000 A 
ATOM     16  C   UNL     1      46.287   6.194  13.211  0.00  0.00    +0.000 A 
ATOM     17  C   UNL     1      47.170   5.979  14.279  0.00  0.00    +0.000 A 
ATOM     18  N   UNL     1      47.528   4.722  14.636  0.00  0.00    +0.000 NA
ATOM     19  C   UNL     1      47.028   3.683  13.935  0.00  0.00    +0.000 A 
ATOM     20  C   UNL     1      46.152   3.789  12.866  0.00  0.00    +0.000 A 
ATOM     21  C   UNL     1      45.775   5.089  12.522  0.00  0.00    +0.000 A 
ENDBRANCH  12  13
ENDBRANCH   4  12
TORSDOF 5
ENDMDL
MODEL 3
REMARK VINA RESULT:    -6.691      1.732      2.860
REMARK INTER + INTRA:          -9.056
REMARK INTER:                  -8.421
REMARK INTRA:                  -0.635
REMARK UNBOUND:                -0.604
REMARK  Name = 
REMARK  5 active torsions:
REMARK  status: ('A' for Active; 'I' for Inactive)
REMARK    1  A    between atoms: N_1  and  C_2
REMARK    2  A    between atoms: C_2  and  C_3
REMARK    3  A    between atoms: C_3  and  C_4
REMARK    4  A    between atoms: C_7  and  C_8
REMARK    5  A    between atoms: C_8  and  N_9
REMARK                            x       y       z     vdW  Elec       q    Type
REMARK                         _______ _______ _______ _____ _____    ______ ____
ROOT
ATOM      1  C   UNL     1      45.677   2.931   8.026  0.00  0.00    +0.000 A 
ATOM      2  C   UNL     1      46.143   4.249   8.113  0.00  0.00    +0.000 A 
ATOM      3  C   UNL     1      45.683   5.101   9.123  0.00  0.00    +0.000 A 
ATOM      4  C   UNL     1      44.751   4.654  10.070  0.00  0.00    +0.000 A 
ATOM      5  C   UNL     1      44.308   3.326   9.995  0.00  0.00    +0.000 A 
ATOM      6  C   UNL     1      44.769   2.472   8.988  0.00  0.00    +0.000 A 
ENDROOT
BRANCH   1   7
ATOM      7  C   UNL     1      46.128   2.025   6.904  0.00  0.00    +0.000 C 
BRANCH   7   8
ATOM      8  C   UNL     1      47.332   1.158   7.283  0.00  0.00    +0.000 C 
BRANCH   8   9
ATOM      9  N   UNL     1      46.905  -0.180   7.697  0.00  0.00    +0.000 NA
ATOM     10  H   UNL     1      47.611  -0.588   8.308  0.00  0.00    +0.000 HD
ATOM     11  H   UNL     1      46.848  -0.791   6.882  0.00  0.00    +0.000 HD
ENDBRANCH   8   9
ENDBRANCH   7   8
ENDBRANCH   1   7
BRANCH   4  12
ATOM     12  C   UNL     1      44.246   5.572  11.154  0.00  0.00    +0.000 C 
BRANCH  12  13
ATOM     13  N   UNL     1      45.318   6.254  11.875  0.00  0.00    +0.000 N 
ATOM     14  C   UNL     1      45.546   7.609  11.814  0.00  0.00    +0.000 A 
ATOM     15  C   UNL     1      46.492   7.930  12.762  0.00  0.00    +0.000 A 
ATOM     16  C   UNL     1      46.857   6.730  13.431  0.00  0.00    +0.000 A 
ATOM     17  C   UNL     1      47.731   6.435  14.487  0.00  0.00    +0.000 A 
ATOM     18  N   UNL     1      47.874   5.163  14.932  0.00  0.00    +0.000 NA
ATOM     19  C   UNL     1      47.166   4.184  14.330  0.00  0.00    +0.000 A 
ATOM     20  C   UNL     1      46.277   4.371  13.282  0.00  0.00    +0.000 A 
ATOM     21  C   UNL     1      46.126   5.689  12.847  0.00  0.00    +0.000 A 
ENDBRANCH  12  13
ENDBRANCH   4  12
TORSDOF 5
ENDMDL
MODEL 4
REMARK VINA RESULT:    -6.104      1.990      2.998
REMARK INTER + INTRA:          -8.314
REMARK INTER:                  -7.886
REMARK INTRA:                  -0.428
REMARK UNBOUND:                -0.604
REMARK  Name = 
REMARK  5 active torsions:
REMARK  status: ('A' for Active; 'I' for Inactive)
REMARK    1  A    between atoms: N_1  and  C_2
REMARK    2  A    between atoms: C_2  and  C_3
REMARK    3  A    between atoms: C_3  and  C_4
REMARK    4  A    between atoms: C_7  and  C_8
REMARK    5  A    between atoms: C_8  and  N_9
REMARK                            x       y       z     vdW  Elec       q    Type
REMARK                         _______ _______ _______ _____ _____    ______ ____
ROOT
ATOM      1  C   UNL     1      45.558   3.345   8.461  0.00  0.00    +0.000 A 
ATOM      2  C   UNL     1      44.909   2.726   9.536  0.00  0.00    +0.000 A 
ATOM      3  C   UNL     1      44.656   3.430  10.718  0.00  0.00    +0.000 A 
ATOM      4  C   UNL     1      45.041   4.772  10.849  0.00  0.00    +0.000 A 
ATOM      5  C   UNL     1      45.666   5.397   9.761  0.00  0.00    +0.000 A 
ATOM      6  C   UNL     1      45.917   4.693   8.578  0.00  0.00    +0.000 A 
ENDROOT
BRANCH   1   7
ATOM      7  C   UNL     1      45.883   2.572   7.204  0.00  0.00    +0.000 C 
BRANCH   7   8
ATOM      8  C   UNL     1      46.963   1.507   7.421  0.00  0.00    +0.000 C 
BRANCH   8   9
ATOM      9  N   UNL     1      48.241   1.934   6.849  0.00  0.00    +0.000 NA
ATOM     10  H   UNL     1      48.144   2.033   5.839  0.00  0.00    +0.000 HD
ATOM     11  H   UNL     1      48.944   1.209   6.997  0.00  0.00    +0.000 HD
ENDBRANCH   8   9
ENDBRANCH   7   8
ENDBRANCH   1   7
BRANCH   4  12
ATOM     12  C   UNL     1      44.779   5.533  12.123  0.00  0.00    +0.000 C 
BRANCH  12  13
ATOM     13  N   UNL     1      45.985   6.123  12.699  0.00  0.00    +0.000 N 
ATOM     14  C   UNL     1      46.457   7.375  12.378  0.00  0.00    +0.000 A 
ATOM     15  C   UNL     1      47.481   7.684  13.246  0.00  0.00    +0.000 A 
ATOM     16  C   UNL     1      47.643   6.584  14.132  0.00  0.00    +0.000 A 
ATOM     17  C   UNL     1      48.487   6.334  15.223  0.00  0.00    +0.000 A 
ATOM     18  N   UNL     1      48.408   5.164  15.903  0.00  0.00    +0.000 NA
ATOM     19  C   UNL     1      47.510   4.241  15.501  0.00  0.00    +0.000 A 
ATOM     20  C   UNL     1      46.632   4.392  14.438  0.00  0.00    +0.000 A 
ATOM     21  C   UNL     1      46.711   5.609  13.759  0.00  0.00    +0.000 A 
ENDBRANCH  12  13
ENDBRANCH   4  12
TORSDOF 5
ENDMDL
MODEL 5
REMARK VINA RESULT:    -5.824      2.308      6.038
REMARK INTER + INTRA:          -7.961
REMARK INTER:                  -7.354
REMARK INTRA:                  -0.607
REMARK UNBOUND:                -0.604
REMARK  Name = 
REMARK  5 active torsions:
REMARK  status: ('A' for Active; 'I' for Inactive)
REMARK    1  A    between atoms: N_1  and  C_2
REMARK    2  A    between atoms: C_2  and  C_3
REMARK    3  A    between atoms: C_3  and  C_4
REMARK    4  A    between atoms: C_7  and  C_8
REMARK    5  A    between atoms: C_8  and  N_9
REMARK                            x       y       z     vdW  Elec       q    Type
REMARK                         _______ _______ _______ _____ _____    ______ ____
ROOT
ATOM      1  C   UNL     1      48.211   7.490  12.981  0.00  0.00    +0.000 A 
ATOM      2  C   UNL     1      47.339   8.350  12.303  0.00  0.00    +0.000 A 
ATOM      3  C   UNL     1      46.049   7.931  11.958  0.00  0.00    +0.000 A 
ATOM      4  C   UNL     1      45.601   6.645  12.289  0.00  0.00    +0.000 A 
ATOM      5  C   UNL     1      46.467   5.796  12.992  0.00  0.00    +0.000 A 
ATOM      6  C   UNL     1      47.756   6.216  13.340  0.00  0.00    +0.000 A 
ENDROOT
BRANCH   1   7
ATOM      7  C   UNL     1      49.623   7.919  13.305  0.00  0.00    +0.000 C 
BRANCH   7   8
ATOM      8  C   UNL     1      50.372   8.476  12.090  0.00  0.00    +0.000 C 
BRANCH   8   9
ATOM      9  N   UNL     1      51.023   7.402  11.339  0.00  0.00    +0.000 NA
ATOM     10  H   UNL     1      50.330   6.701  11.078  0.00  0.00    +0.000 HD
ATOM     11  H   UNL     1      51.698   6.923  11.937  0.00  0.00    +0.000 HD
ENDBRANCH   8   9
ENDBRANCH   7   8
ENDBRANCH   1   7
BRANCH   4  12
ATOM     12  C   UNL     1      44.215   6.185  11.913  0.00  0.00    +0.000 C 
BRANCH  12  13
ATOM     13  N   UNL     1      44.163   4.779  11.521  0.00  0.00    +0.000 N 
ATOM     14  C   UNL     1      43.463   3.814  12.209  0.00  0.00    +0.000 A 
ATOM     15  C   UNL     1      43.467   2.661  11.455  0.00  0.00    +0.000 A 
ATOM     16  C   UNL     1      44.193   2.928  10.262  0.00  0.00    +0.000 A 
ATOM     17  C   UNL     1      44.500   2.167   9.124  0.00  0.00    +0.000 A 
ATOM     18  N   UNL     1      45.223   2.704   8.111  0.00  0.00    +0.000 NA
ATOM     19  C   UNL     1      45.650   3.979   8.224  0.00  0.00    +0.000 A 
ATOM     20  C   UNL     1      45.399   4.811   9.304  0.00  0.00    +0.000 A 
ATOM     21  C   UNL     1      44.637   4.253  10.332  0.00  0.00    +0.000 A 
ENDBRANCH  12  13
ENDBRANCH   4  12
TORSDOF 5
ENDMDL
MODEL 6
REMARK VINA RESULT:    -5.807      2.032      6.778
REMARK INTER + INTRA:          -7.939
REMARK INTER:                  -7.633
REMARK INTRA:                  -0.306
REMARK UNBOUND:                -0.604
REMARK  Name = 
REMARK  5 active torsions:
REMARK  status: ('A' for Active; 'I' for Inactive)
REMARK    1  A    between atoms: N_1  and  C_2
REMARK    2  A    between atoms: C_2  and  C_3
REMARK    3  A    between atoms: C_3  and  C_4
REMARK    4  A    between atoms: C_7  and  C_8
REMARK    5  A    between atoms: C_8  and  N_9
REMARK                            x       y       z     vdW  Elec       q    Type
REMARK                         _______ _______ _______ _____ _____    ______ ____
ROOT
ATOM      1  C   UNL     1      46.895   5.270  13.489  0.00  0.00    +0.000 A 
ATOM      2  C   UNL     1      46.403   3.958  13.470  0.00  0.00    +0.000 A 
ATOM      3  C   UNL     1      45.663   3.491  12.379  0.00  0.00    +0.000 A 
ATOM      4  C   UNL     1      45.403   4.322  11.280  0.00  0.00    +0.000 A 
ATOM      5  C   UNL     1      45.920   5.625  11.291  0.00  0.00    +0.000 A 
ATOM      6  C   UNL     1      46.662   6.092  12.381  0.00  0.00    +0.000 A 
ENDROOT
BRANCH   1   7
ATOM      7  C   UNL     1      47.645   5.796  14.690  0.00  0.00    +0.000 C 
BRANCH   7   8
ATOM      8  C   UNL     1      48.352   7.128  14.417  0.00  0.00    +0.000 C 
BRANCH   8   9
ATOM      9  N   UNL     1      49.796   6.935  14.280  0.00  0.00    +0.000 NA
ATOM     10  H   UNL     1      50.286   7.622  14.852  0.00  0.00    +0.000 HD
ATOM     11  H   UNL     1      50.078   7.116  13.316  0.00  0.00    +0.000 HD
ENDBRANCH   8   9
ENDBRANCH   7   8
ENDBRANCH   1   7
BRANCH   4  12
ATOM     12  C   UNL     1      44.599   3.825  10.105  0.00  0.00    +0.000 C 
BRANCH  12  13
ATOM     13  N   UNL     1      45.381   3.723   8.875  0.00  0.00    +0.000 N 
ATOM     14  C   UNL     1      45.898   4.805   8.200  0.00  0.00    +0.000 A 
ATOM     15  C   UNL     1      46.738   4.336   7.215  0.00  0.00    +0.000 A 
ATOM     16  C   UNL     1      46.738   2.916   7.288  0.00  0.00    +0.000 A 
ATOM     17  C   UNL     1      47.409   1.908   6.579  0.00  0.00    +0.000 A 
ATOM     18  N   UNL     1      47.212   0.602   6.883  0.00  0.00    +0.000 NA
ATOM     19  C   UNL     1      46.349   0.291   7.873  0.00  0.00    +0.000 A 
ATOM     20  C   UNL     1      45.639   1.210   8.631  0.00  0.00    +0.000 A 
ATOM     21  C   UNL     1      45.866   2.552   8.320  0.00  0.00    +0.000 A 
ENDBRANCH  12  13
ENDBRANCH   4  12
TORSDOF 5
ENDMDL
MODEL 7
REMARK VINA RESULT:    -5.419      1.622      2.815
REMARK INTER + INTRA:          -7.448
REMARK INTER:                  -6.900
REMARK INTRA:                  -0.548
REMARK UNBOUND:                -0.604
REMARK  Name = 
REMARK  5 active torsions:
REMARK  status: ('A' for Active; 'I' for Inactive)
REMARK    1  A    between atoms: N_1  and  C_2
REMARK    2  A    between atoms: C_2  and  C_3
REMARK    3  A    between atoms: C_3  and  C_4
REMARK    4  A    between atoms: C_7  and  C_8
REMARK    5  A    between atoms: C_8  and  N_9
REMARK                            x       y       z     vdW  Elec       q    Type
REMARK                         _______ _______ _______ _____ _____    ______ ____
ROOT
ATOM      1  C   UNL     1      44.993   3.225   9.800  0.00  0.00    +0.000 A 
ATOM      2  C   UNL     1      45.234   4.571   9.496  0.00  0.00    +0.000 A 
ATOM      3  C   UNL     1      45.284   5.533  10.511  0.00  0.00    +0.000 A 
ATOM      4  C   UNL     1      45.100   5.171  11.852  0.00  0.00    +0.000 A 
ATOM      5  C   UNL     1      44.885   3.819  12.156  0.00  0.00    +0.000 A 
ATOM      6  C   UNL     1      44.838   2.856  11.142  0.00  0.00    +0.000 A 
ENDROOT
BRANCH   1   7
ATOM      7  C   UNL     1      44.882   2.192   8.703  0.00  0.00    +0.000 C 
BRANCH   7   8
ATOM      8  C   UNL     1      46.229   1.864   8.052  0.00  0.00    +0.000 C 
BRANCH   8   9
ATOM      9  N   UNL     1      46.414   2.630   6.818  0.00  0.00    +0.000 NA
ATOM     10  H   UNL     1      46.666   3.590   7.049  0.00  0.00    +0.000 HD
ATOM     11  H   UNL     1      45.530   2.684   6.311  0.00  0.00    +0.000 HD
ENDBRANCH   8   9
ENDBRANCH   7   8
ENDBRANCH   1   7
BRANCH   4  12
ATOM     12  C   UNL     1      45.144   6.205  12.948  0.00  0.00    +0.000 C 
BRANCH  12  13
ATOM     13  N   UNL     1      46.307   7.085  12.861  0.00  0.00    +0.000 N 
ATOM     14  C   UNL     1      47.609   6.649  12.950  0.00  0.00    +0.000 A 
ATOM     15  C   UNL     1      48.438   7.701  12.626  0.00  0.00    +0.000 A 
ATOM     16  C   UNL     1      47.615   8.822  12.327  0.00  0.00    +0.000 A 
ATOM     17  C   UNL     1      47.880  10.135  11.912  0.00  0.00    +0.000 A 
ATOM     18  N   UNL     1      46.865  11.006  11.689  0.00  0.00    +0.000 NA
ATOM     19  C   UNL     1      45.598  10.587  11.885  0.00  0.00    +0.000 A 
ATOM     20  C   UNL     1      45.232   9.313  12.292  0.00  0.00    +0.000 A 
ATOM     21  C   UNL     1      46.286   8.420  12.499  0.00  0.00    +0.000 A 
ENDBRANCH  12  13
ENDBRANCH   4  12
TORSDOF 5
ENDMDL
MODEL 8
REMARK VINA RESULT:    -5.257      1.799      6.536
REMARK INTER + INTRA:          -7.245
REMARK INTER:                  -6.615
REMARK INTRA:                  -0.630
REMARK UNBOUND:                -0.604
REMARK  Name = 
REMARK  5 active torsions:
REMARK  status: ('A' for Active; 'I' for Inactive)
REMARK    1  A    between atoms: N_1  and  C_2
REMARK    2  A    between atoms: C_2  and  C_3
REMARK    3  A    between atoms: C_3  and  C_4
REMARK    4  A    between atoms: C_7  and  C_8
REMARK    5  A    between atoms: C_8  and  N_9
REMARK                            x       y       z     vdW  Elec       q    Type
REMARK                         _______ _______ _______ _____ _____    ______ ____
ROOT
ATOM      1  C   UNL     1      46.972   6.663  13.100  0.00  0.00    +0.000 A 
ATOM      2  C   UNL     1      46.556   5.337  13.270  0.00  0.00    +0.000 A 
ATOM      3  C   UNL     1      45.659   4.750  12.371  0.00  0.00    +0.000 A 
ATOM      4  C   UNL     1      45.164   5.474  11.277  0.00  0.00    +0.000 A 
ATOM      5  C   UNL     1      45.603   6.792  11.094  0.00  0.00    +0.000 A 
ATOM      6  C   UNL     1      46.502   7.379  11.992  0.00  0.00    +0.000 A 
ENDROOT
BRANCH   1   7
ATOM      7  C   UNL     1      47.895   7.318  14.100  0.00  0.00    +0.000 C 
BRANCH   7   8
ATOM      8  C   UNL     1      48.623   6.309  14.993  0.00  0.00    +0.000 C 
BRANCH   8   9
ATOM      9  N   UNL     1      48.224   6.464  16.393  0.00  0.00    +0.000 NA
ATOM     10  H   UNL     1      48.311   5.568  16.871  0.00  0.00    +0.000 HD
ATOM     11  H   UNL     1      47.236   6.717  16.443  0.00  0.00    +0.000 HD
ENDBRANCH   8   9
ENDBRANCH   7   8
ENDBRANCH   1   7
BRANCH   4  12
ATOM     12  C   UNL     1      44.191   4.848  10.310  0.00  0.00    +0.000 C 
BRANCH  12  13
ATOM     13  N   UNL     1      44.696   3.620   9.702  0.00  0.00    +0.000 N 
ATOM     14  C   UNL     1      44.211   2.364   9.988  0.00  0.00    +0.000 A 
ATOM     15  C   UNL     1      44.768   1.474   9.096  0.00  0.00    +0.000 A 
ATOM     16  C   UNL     1      45.624   2.210   8.231  0.00  0.00    +0.000 A 
ATOM     17  C   UNL     1      46.421   1.862   7.130  0.00  0.00    +0.000 A 
ATOM     18  N   UNL     1      47.143   2.804   6.476  0.00  0.00    +0.000 NA
ATOM     19  C   UNL     1      47.090   4.079   6.913  0.00  0.00    +0.000 A 
ATOM     20  C   UNL     1      46.335   4.524   7.988  0.00  0.00    +0.000 A 
ATOM     21  C   UNL     1      45.580   3.547   8.640  0.00  0.00    +0.000 A 
ENDBRANCH  12  13
ENDBRANCH   4  12
TORSDOF 5
ENDMDL
MODEL 9
REMARK VINA RESULT:    -5.237      2.620      4.040
REMARK INTER + INTRA:          -7.219
REMARK INTER:                  -6.625
REMARK INTRA:                  -0.593
REMARK UNBOUND:                -0.604
REMARK  Name = 
REMARK  5 active torsions:
REMARK  status: ('A' for Active; 'I' for Inactive)
REMARK    1  A    between atoms: N_1  and  C_2
REMARK    2  A    between atoms: C_2  and  C_3
REMARK    3  A    between atoms: C_3  and  C_4
REMARK    4  A    between atoms: C_7  and  C_8
REMARK    5  A    between atoms: C_8  and  N_9
REMARK                            x       y       z     vdW  Elec       q    Type
REMARK                         _______ _______ _______ _____ _____    ______ ____
ROOT
ATOM      1  C   UNL     1      44.745   3.898  11.009  0.00  0.00    +0.000 A 
ATOM      2  C   UNL     1      45.051   3.800  12.373  0.00  0.00    +0.000 A 
ATOM      3  C   UNL     1      45.551   4.904  13.072  0.00  0.00    +0.000 A 
ATOM      4  C   UNL     1      45.752   6.131  12.426  0.00  0.00    +0.000 A 
ATOM      5  C   UNL     1      45.419   6.234  11.068  0.00  0.00    +0.000 A 
ATOM      6  C   UNL     1      44.917   5.131  10.369  0.00  0.00    +0.000 A 
ENDROOT
BRANCH   1   7
ATOM      7  C   UNL     1      44.259   2.694  10.237  0.00  0.00    +0.000 C 
BRANCH   7   8
ATOM      8  C   UNL     1      44.915   2.563   8.859  0.00  0.00    +0.000 C 
BRANCH   8   9
ATOM      9  N   UNL     1      45.679   1.317   8.760  0.00  0.00    +0.000 NA
ATOM     10  H   UNL     1      45.315   0.757   7.989  0.00  0.00    +0.000 HD
ATOM     11  H   UNL     1      45.541   0.761   9.604  0.00  0.00    +0.000 HD
ENDBRANCH   8   9
ENDBRANCH   7   8
ENDBRANCH   1   7
BRANCH   4  12
ATOM     12  C   UNL     1      46.299   7.321  13.173  0.00  0.00    +0.000 C 
BRANCH  12  13
ATOM     13  N   UNL     1      47.639   7.706  12.739  0.00  0.00    +0.000 N 
ATOM     14  C   UNL     1      48.705   6.837  12.669  0.00  0.00    +0.000 A 
ATOM     15  C   UNL     1      49.744   7.482  12.035  0.00  0.00    +0.000 A 
ATOM     16  C   UNL     1      49.301   8.791  11.702  0.00  0.00    +0.000 A 
ATOM     17  C   UNL     1      49.892   9.874  11.035  0.00  0.00    +0.000 A 
ATOM     18  N   UNL     1      49.206  11.029  10.852  0.00  0.00    +0.000 NA
ATOM     19  C   UNL     1      47.949  11.119  11.335  0.00  0.00    +0.000 A 
ATOM     20  C   UNL     1      47.277  10.108  12.006  0.00  0.00    +0.000 A 
ATOM     21  C   UNL     1      47.988   8.918  12.170  0.00  0.00    +0.000 A 
ENDBRANCH  12  13
ENDBRANCH   4  12
TORSDOF 5
ENDMDL
