MODEL 1
REMARK VINA RESULT:    -7.792      0.000      0.000
REMARK INTER + INTRA:          -9.552
REMARK INTER:                  -9.159
REMARK INTRA:                  -0.392
REMARK UNBOUND:                -0.392
REMARK  Name = 
REMARK  3 active torsions:
REMARK  status: ('A' for Active; 'I' for Inactive)
REMARK    1  A    between atoms: C_2  and  C_4
REMARK    2  A    between atoms: N_8  and  C_9
REMARK    3  A    between atoms: C_9  and  C_10
REMARK                            x       y       z     vdW  Elec       q    Type
REMARK                         _______ _______ _______ _____ _____    ______ ____
ROOT
ATOM      1  C   UNL     1      46.553   2.658   7.405  0.00  0.00    +0.000 A 
ATOM      2  C   UNL     1      46.036   1.726   8.281  0.00  0.00    +0.000 A 
ATOM      3  C   UNL     1      45.103   2.133   9.235  0.00  0.00    +0.000 A 
ATOM      4  C   UNL     1      44.722   3.489   9.292  0.00  0.00    +0.000 A 
ATOM      5  N   UNL     1      43.806   3.868  10.260  0.00  0.00    +0.000 N 
ATOM      6  N   UNL     1      45.260   4.399   8.471  0.00  0.00    +0.000 NA
ATOM      7  C   UNL     1      46.156   3.981   7.541  0.00  0.00    +0.000 A 
ATOM      8  H   UNL     1      42.918   3.392  10.210  0.00  0.00    +0.000 HD
ENDROOT
BRANCH   1  10
ATOM      9  N   UNL     1      47.512   3.083   5.224  0.00  0.00    +0.000 N 
ATOM     10  C   UNL     1      47.520   2.298   6.343  0.00  0.00    +0.000 C 
ATOM     11  O   UNL     1      48.303   1.369   6.472  0.00  0.00    +0.000 OA
ATOM     12  H   UNL     1      48.232   2.902   4.536  0.00  0.00    +0.000 HD
ATOM     13  H   UNL     1      47.062   3.988   5.201  0.00  0.00    +0.000 HD
ENDBRANCH   1  10
BRANCH   5  14
ATOM     14  C   UNL     1      43.799   5.252  10.730  0.00  0.00    +0.000 C 
BRANCH  14  15
ATOM     15  C   UNL     1      44.974   5.436  11.674  0.00  0.00    +0.000 A 
ATOM     16  C   UNL     1      45.962   6.396  11.398  0.00  0.00    +0.000 A 
ATOM     17  C   UNL     1      47.052   6.561  12.255  0.00  0.00    +0.000 A 
ATOM     18  C   UNL     1      47.166   5.771  13.397  0.00  0.00    +0.000 A 
ATOM     19  C   UNL     1      46.195   4.812  13.681  0.00  0.00    +0.000 A 
ATOM     20  C   UNL     1      45.108   4.640  12.821  0.00  0.00    +0.000 A 
ENDBRANCH  14  15
ENDBRANCH   5  14
TORSDOF 3
ENDMDL
MODEL 2
REMARK VINA RESULT:    -7.740      2.868      6.132
REMARK INTER + INTRA:          -9.490
REMARK INTER:                  -9.064
REMARK INTRA:                  -0.426
REMARK UNBOUND:                -0.392
REMARK  Name = 
REMARK  3 active torsions:
REMARK  status: ('A' for Active; 'I' for Inactive)
REMARK    1  A    between atoms: C_2  and  C_4
REMARK    2  A    between atoms: N_8  and  C_9
REMARK    3  A    between atoms: C_9  and  C_10
REMARK                            x       y       z     vdW  Elec       q    Type
REMARK                         _______ _______ _______ _____ _____    ______ ____
ROOT
ATOM      1  C   UNL     1      46.604   5.123  13.207  0.00  0.00    +0.000 A 
ATOM      2  C   UNL     1      46.787   6.108  12.259  0.00  0.00    +0.000 A 
ATOM      3  C   UNL     1      46.112   6.014  11.041  0.00  0.00    +0.000 A 
ATOM      4  C   UNL     1      45.271   4.907  10.802  0.00  0.00    +0.000 A 
ATOM      5  N   UNL     1      44.626   4.831   9.579  0.00  0.00    +0.000 N 
ATOM      6  N   UNL     1      45.132   3.931  11.707  0.00  0.00    +0.000 NA
ATOM      7  C   UNL     1      45.786   4.047  12.890  0.00  0.00    +0.000 A 
ATOM      8  H   UNL     1      44.025   5.614   9.370  0.00  0.00    +0.000 HD
ENDROOT
BRANCH   1  10
ATOM      9  N   UNL     1      46.694   4.401  15.515  0.00  0.00    +0.000 N 
ATOM     10  C   UNL     1      47.256   5.171  14.536  0.00  0.00    +0.000 C 
ATOM     11  O   UNL     1      48.260   5.837  14.738  0.00  0.00    +0.000 OA
ATOM     12  H   UNL     1      47.188   4.354  16.397  0.00  0.00    +0.000 HD
ATOM     13  H   UNL     1      46.033   3.664  15.312  0.00  0.00    +0.000 HD
ENDBRANCH   1  10
BRANCH   5  14
ATOM     14  C   UNL     1      44.227   3.523   9.066  0.00  0.00    +0.000 C 
BRANCH  14  15
ATOM     15  C   UNL     1      45.398   2.939   8.295  0.00  0.00    +0.000 A 
ATOM     16  C   UNL     1      46.119   3.737   7.390  0.00  0.00    +0.000 A 
ATOM     17  C   UNL     1      47.189   3.202   6.668  0.00  0.00    +0.000 A 
ATOM     18  C   UNL     1      47.550   1.869   6.843  0.00  0.00    +0.000 A 
ATOM     19  C   UNL     1      46.840   1.064   7.734  0.00  0.00    +0.000 A 
ATOM     20  C   UNL     1      45.765   1.594   8.451  0.00  0.00    +0.000 A 
ENDBRANCH  14  15
ENDBRANCH   5  14
TORSDOF 3
ENDMDL
MODEL 3
REMARK VINA RESULT:    -7.501      3.072      6.178
REMARK INTER + INTRA:          -9.209
REMARK INTER:                  -8.976
REMARK INTRA:                  -0.233
REMARK UNBOUND:                -0.392
REMARK  Name = 
REMARK  3 active torsions:
REMARK  status: ('A' for Active; 'I' for Inactive)
REMARK    1  A    between atoms: C_2  and  C_4
REMARK    2  A    between atoms: N_8  and  C_9
REMARK    3  A    between atoms: C_9  and  C_10
REMARK                            x       y       z     vdW  Elec       q    Type
REMARK                         _______ _______ _______ _____ _____    ______ ____
ROOT
ATOM      1  C   UNL     1      45.585   6.629  12.426  0.00  0.00    +0.000 A 
ATOM      2  C   UNL     1      45.482   5.530  13.255  0.00  0.00    +0.000 A 
ATOM      3  C   UNL     1      45.291   4.269  12.690  0.00  0.00    +0.000 A 
ATOM      4  C   UNL     1      45.193   4.148  11.289  0.00  0.00    +0.000 A 
ATOM      5  N   UNL     1      44.988   2.886  10.756  0.00  0.00    +0.000 N 
ATOM      6  N   UNL     1      45.248   5.222  10.492  0.00  0.00    +0.000 NA
ATOM      7  C   UNL     1      45.448   6.438  11.059  0.00  0.00    +0.000 A 
ATOM      8  H   UNL     1      45.701   2.210  10.986  0.00  0.00    +0.000 HD
ENDROOT
BRANCH   1  10
ATOM      9  N   UNL     1      44.849   8.919  12.694  0.00  0.00    +0.000 N 
ATOM     10  C   UNL     1      45.824   7.995  12.948  0.00  0.00    +0.000 C 
ATOM     11  O   UNL     1      46.821   8.273  13.595  0.00  0.00    +0.000 OA
ATOM     12  H   UNL     1      44.960   9.827  13.126  0.00  0.00    +0.000 HD
ATOM     13  H   UNL     1      43.922   8.657  12.388  0.00  0.00    +0.000 HD
ENDBRANCH   1  10
BRANCH   5  14
ATOM     14  C   UNL     1      44.341   2.760   9.452  0.00  0.00    +0.000 C 
BRANCH  14  15
ATOM     15  C   UNL     1      45.419   2.520   8.410  0.00  0.00    +0.000 A 
ATOM     16  C   UNL     1      45.762   3.533   7.498  0.00  0.00    +0.000 A 
ATOM     17  C   UNL     1      46.744   3.314   6.528  0.00  0.00    +0.000 A 
ATOM     18  C   UNL     1      47.393   2.084   6.461  0.00  0.00    +0.000 A 
ATOM     19  C   UNL     1      47.060   1.068   7.356  0.00  0.00    +0.000 A 
ATOM     20  C   UNL     1      46.073   1.282   8.322  0.00  0.00    +0.000 A 
ENDBRANCH  14  15
ENDBRANCH   5  14
TORSDOF 3
ENDMDL
MODEL 4
REMARK VINA RESULT:    -6.339      4.036      5.873
REMARK INTER + INTRA:          -7.843
REMARK INTER:                  -7.561
REMARK INTRA:                  -0.282
REMARK UNBOUND:                -0.392
REMARK  Name = 
REMARK  3 active torsions:
REMARK  status: ('A' for Active; 'I' for Inactive)
REMARK    1  A    between atoms: C_2  and  C_4
REMARK    2  A    between atoms: N_8  and  C_9
REMARK    3  A    between atoms: C_9  and  C_10
REMARK                            x       y       z     vdW  Elec       q    Type
REMARK                         _______ _______ _______ _____ _____    ______ ____
ROOT
ATOM      1  C   UNL     1      45.235   4.421  11.608  0.00  0.00    +0.000 A 
ATOM      2  C   UNL     1      45.627   5.703  11.935  0.00  0.00    +0.000 A 
ATOM      3  C   UNL     1      46.328   5.917  13.122  0.00  0.00    +0.000 A 
ATOM      4  C   UNL     1      46.608   4.822  13.966  0.00  0.00    +0.000 A 
ATOM      5  N   UNL     1      47.292   5.065  15.145  0.00  0.00    +0.000 N 
ATOM      6  N   UNL     1      46.185   3.587  13.666  0.00  0.00    +0.000 NA
ATOM      7  C   UNL     1      45.517   3.397  12.501  0.00  0.00    +0.000 A 
ATOM      8  H   UNL     1      48.199   5.489  15.026  0.00  0.00    +0.000 HD
ENDROOT
BRANCH   1  10
ATOM      9  N   UNL     1      44.848   4.866   9.260  0.00  0.00    +0.000 N 
ATOM     10  C   UNL     1      44.518   4.109  10.349  0.00  0.00    +0.000 C 
ATOM     11  O   UNL     1      43.700   3.204  10.280  0.00  0.00    +0.000 OA
ATOM     12  H   UNL     1      44.433   4.598   8.377  0.00  0.00    +0.000 HD
ATOM     13  H   UNL     1      45.683   5.436   9.230  0.00  0.00    +0.000 HD
ENDBRANCH   1  10
BRANCH   5  14
ATOM     14  C   UNL     1      47.122   4.146  16.269  0.00  0.00    +0.000 C 
BRANCH  14  15
ATOM     15  C   UNL     1      48.500   3.714  16.739  0.00  0.00    +0.000 A 
ATOM     16  C   UNL     1      49.406   4.661  17.246  0.00  0.00    +0.000 A 
ATOM     17  C   UNL     1      50.679   4.272  17.667  0.00  0.00    +0.000 A 
ATOM     18  C   UNL     1      51.060   2.935  17.588  0.00  0.00    +0.000 A 
ATOM     19  C   UNL     1      50.174   1.985  17.082  0.00  0.00    +0.000 A 
ATOM     20  C   UNL     1      48.902   2.373  16.653  0.00  0.00    +0.000 A 
ENDBRANCH  14  15
ENDBRANCH   5  14
TORSDOF 3
ENDMDL
MODEL 5
REMARK VINA RESULT:    -6.023      3.389      6.355
REMARK INTER + INTRA:          -7.472
REMARK INTER:                  -7.311
REMARK INTRA:                  -0.161
REMARK UNBOUND:                -0.392
REMARK  Name = 
REMARK  3 active torsions:
REMARK  status: ('A' for Active; 'I' for Inactive)
REMARK    1  A    between atoms: C_2  and  C_4
REMARK    2  A    between atoms: N_8  and  C_9
REMARK    3  A    between atoms: C_9  and  C_10
REMARK                            x       y       z     vdW  Elec       q    Type
REMARK                         _______ _______ _______ _____ _____    ______ ____
ROOT
ATOM      1  C   UNL     1      46.565   7.718  12.956  0.00  0.00    +0.000 A 
ATOM      2  C   UNL     1      45.781   8.234  11.945  0.00  0.00    +0.000 A 
ATOM      3  C   UNL     1      44.853   7.404  11.314  0.00  0.00    +0.000 A 
ATOM      4  C   UNL     1      44.747   6.057  11.715  0.00  0.00    +0.000 A 
ATOM      5  N   UNL     1      43.828   5.252  11.062  0.00  0.00    +0.000 N 
ATOM      6  N   UNL     1      45.542   5.549  12.666  0.00  0.00    +0.000 NA
ATOM      7  C   UNL     1      46.429   6.374  13.276  0.00  0.00    +0.000 A 
ATOM      8  H   UNL     1      42.873   5.573  11.116  0.00  0.00    +0.000 HD
ENDROOT
BRANCH   1  10
ATOM      9  N   UNL     1      47.239   8.834  14.995  0.00  0.00    +0.000 N 
ATOM     10  C   UNL     1      47.548   8.544  13.696  0.00  0.00    +0.000 C 
ATOM     11  O   UNL     1      48.591   8.919  13.183  0.00  0.00    +0.000 OA
ATOM     12  H   UNL     1      47.947   9.316  15.534  0.00  0.00    +0.000 HD
ATOM     13  H   UNL     1      46.523   8.336  15.506  0.00  0.00    +0.000 HD
ENDBRANCH   1  10
BRANCH   5  14
ATOM     14  C   UNL     1      44.049   3.808  11.021  0.00  0.00    +0.000 C 
BRANCH  14  15
ATOM     15  C   UNL     1      44.861   3.490   9.778  0.00  0.00    +0.000 A 
ATOM     16  C   UNL     1      45.324   4.525   8.949  0.00  0.00    +0.000 A 
ATOM     17  C   UNL     1      46.060   4.238   7.796  0.00  0.00    +0.000 A 
ATOM     18  C   UNL     1      46.340   2.916   7.461  0.00  0.00    +0.000 A 
ATOM     19  C   UNL     1      45.883   1.877   8.272  0.00  0.00    +0.000 A 
ATOM     20  C   UNL     1      45.140   2.162   9.421  0.00  0.00    +0.000 A 
ENDBRANCH  14  15
ENDBRANCH   5  14
TORSDOF 3
ENDMDL
MODEL 6
REMARK VINA RESULT:    -5.738      3.395      5.039
REMARK INTER + INTRA:          -7.136
REMARK INTER:                  -6.892
REMARK INTRA:                  -0.245
REMARK UNBOUND:                -0.392
REMARK  Name = 
REMARK  3 active torsions:
REMARK  status: ('A' for Active; 'I' for Inactive)
REMARK    1  A    between atoms: C_2  and  C_4
REMARK    2  A    between atoms: N_8  and  C_9
REMARK    3  A    between atoms: C_9  and  C_10
REMARK                            x       y       z     vdW  Elec       q    Type
REMARK                         _______ _______ _______ _____ _____    ______ ____
ROOT
ATOM      1  C   UNL     1      44.598   4.065  11.624  0.00  0.00    +0.000 A 
ATOM      2  C   UNL     1      45.416   3.975  12.732  0.00  0.00    +0.000 A 
ATOM      3  C   UNL     1      45.943   5.142  13.285  0.00  0.00    +0.000 A 
ATOM      4  C   UNL     1      45.639   6.385  12.692  0.00  0.00    +0.000 A 
ATOM      5  N   UNL     1      46.188   7.526  13.253  0.00  0.00    +0.000 N 
ATOM      6  N   UNL     1      44.883   6.464  11.591  0.00  0.00    +0.000 NA
ATOM      7  C   UNL     1      44.369   5.319  11.075  0.00  0.00    +0.000 A 
ATOM      8  H   UNL     1      45.947   7.679  14.220  0.00  0.00    +0.000 HD
ENDROOT
BRANCH   1  10
ATOM      9  N   UNL     1      44.582   2.388   9.879  0.00  0.00    +0.000 N 
ATOM     10  C   UNL     1      43.972   2.876  11.001  0.00  0.00    +0.000 C 
ATOM     11  O   UNL     1      42.985   2.341  11.481  0.00  0.00    +0.000 OA
ATOM     12  H   UNL     1      44.218   1.523   9.503  0.00  0.00    +0.000 HD
ATOM     13  H   UNL     1      45.522   2.653   9.616  0.00  0.00    +0.000 HD
ENDBRANCH   1  10
BRANCH   5  14
ATOM     14  C   UNL     1      46.383   8.708  12.416  0.00  0.00    +0.000 C 
BRANCH  14  15
ATOM     15  C   UNL     1      47.854   8.790  12.048  0.00  0.00    +0.000 A 
ATOM     16  C   UNL     1      48.437  10.027  11.726  0.00  0.00    +0.000 A 
ATOM     17  C   UNL     1      49.786  10.107  11.374  0.00  0.00    +0.000 A 
ATOM     18  C   UNL     1      50.566   8.955  11.342  0.00  0.00    +0.000 A 
ATOM     19  C   UNL     1      50.001   7.719  11.654  0.00  0.00    +0.000 A 
ATOM     20  C   UNL     1      48.649   7.635  11.999  0.00  0.00    +0.000 A 
ENDBRANCH  14  15
ENDBRANCH   5  14
TORSDOF 3
ENDMDL
MODEL 7
REMARK VINA RESULT:    -5.722      5.720      8.540
REMARK INTER + INTRA:          -7.117
REMARK INTER:                  -6.879
REMARK INTRA:                  -0.238
REMARK UNBOUND:                -0.392
REMARK  Name = 
REMARK  3 active torsions:
REMARK  status: ('A' for Active; 'I' for Inactive)
REMARK    1  A    between atoms: C_2  and  C_4
REMARK    2  A    between atoms: N_8  and  C_9
REMARK    3  A    between atoms: C_9  and  C_10
REMARK                            x       y       z     vdW  Elec       q    Type
REMARK                         _______ _______ _______ _____ _____    ______ ____
ROOT
ATOM      1  C   UNL     1      48.930   4.436  18.209  0.00  0.00    +0.000 A 
ATOM      2  C   UNL     1      48.016   3.404  18.142  0.00  0.00    +0.000 A 
ATOM      3  C   UNL     1      47.286   3.217  16.968  0.00  0.00    +0.000 A 
ATOM      4  C   UNL     1      47.488   4.094  15.883  0.00  0.00    +0.000 A 
ATOM      5  N   UNL     1      46.739   3.894  14.735  0.00  0.00    +0.000 N 
ATOM      6  N   UNL     1      48.343   5.121  15.968  0.00  0.00    +0.000 NA
ATOM      7  C   UNL     1      49.053   5.279  17.113  0.00  0.00    +0.000 A 
ATOM      8  H   UNL     1      46.854   2.987  14.309  0.00  0.00    +0.000 HD
ENDROOT
BRANCH   1  10
ATOM      9  N   UNL     1      49.223   4.319  20.608  0.00  0.00    +0.000 N 
ATOM     10  C   UNL     1      49.767   4.677  19.407  0.00  0.00    +0.000 C 
ATOM     11  O   UNL     1      50.893   5.142  19.324  0.00  0.00    +0.000 OA
ATOM     12  H   UNL     1      49.823   4.392  21.420  0.00  0.00    +0.000 HD
ATOM     13  H   UNL     1      48.417   3.713  20.678  0.00  0.00    +0.000 HD
ENDBRANCH   1  10
BRANCH   5  14
ATOM     14  C   UNL     1      46.485   5.026  13.846  0.00  0.00    +0.000 C 
BRANCH  14  15
ATOM     15  C   UNL     1      45.245   4.714  13.026  0.00  0.00    +0.000 A 
ATOM     16  C   UNL     1      45.162   3.518  12.292  0.00  0.00    +0.000 A 
ATOM     17  C   UNL     1      44.031   3.232  11.526  0.00  0.00    +0.000 A 
ATOM     18  C   UNL     1      42.971   4.134  11.485  0.00  0.00    +0.000 A 
ATOM     19  C   UNL     1      43.040   5.326  12.204  0.00  0.00    +0.000 A 
ATOM     20  C   UNL     1      44.175   5.619  12.966  0.00  0.00    +0.000 A 
ENDBRANCH  14  15
ENDBRANCH   5  14
TORSDOF 3
ENDMDL
