MODEL 1
REMARK VINA RESULT:    -8.074      0.000      0.000
REMARK INTER + INTRA:          -8.431
REMARK INTER:                  -9.490
REMARK INTRA:                   1.059
REMARK UNBOUND:                 1.059
REMARK  Name = 
REMARK  4 active torsions:
REMARK  status: ('A' for Active; 'I' for Inactive)
REMARK    1  A    between atoms: C_1  and  C_2
REMARK    2  A    between atoms: C_2  and  N_3
REMARK    3  A    between atoms: C_2  and  C_13
REMARK    4  A    between atoms: C_8  and  C_9
REMARK                            x       y       z     vdW  Elec       q    Type
REMARK                         _______ _______ _______ _____ _____    ______ ____
ROOT
ATOM      1  N   UNL     1      45.093   5.123   9.408  0.00  0.00    +0.000 N 
ATOM      2  C   UNL     1      45.436   5.552  10.677  0.00  0.00    +0.000 A 
ATOM      3  N   UNL     1      45.379   6.878  10.874  0.00  0.00    +0.000 NA
ATOM      4  C   UNL     1      45.752   7.347  12.080  0.00  0.00    +0.000 A 
ATOM      5  C   UNL     1      46.177   6.541  13.102  0.00  0.00    +0.000 A 
ATOM      6  C   UNL     1      46.183   5.201  12.796  0.00  0.00    +0.000 A 
ATOM      7  N   UNL     1      45.815   4.677  11.605  0.00  0.00    +0.000 NA
ATOM      8  H   UNL     1      44.619   5.918   8.993  0.00  0.00    +0.000 HD
ENDROOT
BRANCH   6   9
ATOM      9  C   UNL     1      46.633   4.209  13.819  0.00  0.00    +0.000 C 
ATOM     10  N   UNL     1      46.838   4.717  15.074  0.00  0.00    +0.000 N 
ATOM     11  O   UNL     1      46.804   3.023  13.561  0.00  0.00    +0.000 OA
ATOM     12  H   UNL     1      46.641   5.696  15.251  0.00  0.00    +0.000 HD
ATOM     13  H   UNL     1      47.105   4.102  15.827  0.00  0.00    +0.000 HD
ENDBRANCH   6   9
BRANCH   1  15
ATOM     14  C   UNL     1      44.428   3.094  10.621  0.00  0.00    +0.000 C 
ATOM     15  C   UNL     1      44.425   3.827   9.271  0.00  0.00    +0.000 C 
BRANCH  15  16
ATOM     16  C   UNL     1      45.135   2.979   8.167  0.00  0.00    +0.000 C 
ATOM     17  C   UNL     1      45.760   1.683   8.722  0.00  0.00    +0.000 C 
ATOM     18  C   UNL     1      46.565   0.912   7.680  0.00  0.00    +0.000 C 
ATOM     19  C   UNL     1      47.616   1.800   7.029  0.00  0.00    +0.000 C 
ATOM     20  C   UNL     1      46.966   3.014   6.378  0.00  0.00    +0.000 C 
ATOM     21  C   UNL     1      46.169   3.827   7.393  0.00  0.00    +0.000 C 
ENDBRANCH  15  16
ENDBRANCH   1  15
TORSDOF 3
ENDMDL
MODEL 2
REMARK VINA RESULT:    -7.963      1.986      3.098
REMARK INTER + INTRA:          -8.300
REMARK INTER:                  -7.802
REMARK INTRA:                  -0.498
REMARK UNBOUND:                 1.059
REMARK  Name = 
REMARK  4 active torsions:
REMARK  status: ('A' for Active; 'I' for Inactive)
REMARK    1  A    between atoms: C_1  and  C_2
REMARK    2  A    between atoms: C_2  and  N_3
REMARK    3  A    between atoms: C_2  and  C_13
REMARK    4  A    between atoms: C_8  and  C_9
REMARK                            x       y       z     vdW  Elec       q    Type
REMARK                         _______ _______ _______ _____ _____    ______ ____
ROOT
ATOM      1  N   UNL     1      44.853   2.511  10.966  0.00  0.00    +0.000 N 
ATOM      2  C   UNL     1      45.116   3.718  11.586  0.00  0.00    +0.000 A 
ATOM      3  N   UNL     1      45.990   3.668  12.603  0.00  0.00    +0.000 NA
ATOM      4  C   UNL     1      46.239   4.811  13.270  0.00  0.00    +0.000 A 
ATOM      5  C   UNL     1      45.652   6.008  12.958  0.00  0.00    +0.000 A 
ATOM      6  C   UNL     1      44.785   5.947  11.892  0.00  0.00    +0.000 A 
ATOM      7  N   UNL     1      44.504   4.829  11.186  0.00  0.00    +0.000 NA
ATOM      8  H   UNL     1      45.603   1.901  11.273  0.00  0.00    +0.000 HD
ENDROOT
BRANCH   6   9
ATOM      9  C   UNL     1      44.069   7.181  11.449  0.00  0.00    +0.000 C 
ATOM     10  N   UNL     1      42.747   7.010  11.135  0.00  0.00    +0.000 N 
ATOM     11  O   UNL     1      44.619   8.275  11.374  0.00  0.00    +0.000 OA
ATOM     12  H   UNL     1      42.325   6.096  11.255  0.00  0.00    +0.000 HD
ATOM     13  H   UNL     1      42.188   7.804  10.865  0.00  0.00    +0.000 HD
ENDBRANCH   6   9
BRANCH   1  15
ATOM     14  C   UNL     1      43.831   1.230   9.136  0.00  0.00    +0.000 C 
ATOM     15  C   UNL     1      44.573   2.517   9.528  0.00  0.00    +0.000 C 
BRANCH  15  16
ATOM     16  C   UNL     1      45.909   2.663   8.730  0.00  0.00    +0.000 C 
ATOM     17  C   UNL     1      45.870   3.821   7.712  0.00  0.00    +0.000 C 
ATOM     18  C   UNL     1      47.119   3.893   6.838  0.00  0.00    +0.000 C 
ATOM     19  C   UNL     1      47.388   2.561   6.152  0.00  0.00    +0.000 C 
ATOM     20  C   UNL     1      47.547   1.449   7.181  0.00  0.00    +0.000 C 
ATOM     21  C   UNL     1      46.308   1.328   8.062  0.00  0.00    +0.000 C 
ENDBRANCH  15  16
ENDBRANCH   1  15
TORSDOF 3
ENDMDL
MODEL 3
REMARK VINA RESULT:    -7.923      2.612      3.635
REMARK INTER + INTRA:          -8.254
REMARK INTER:                  -7.851
REMARK INTRA:                  -0.403
REMARK UNBOUND:                 1.059
REMARK  Name = 
REMARK  4 active torsions:
REMARK  status: ('A' for Active; 'I' for Inactive)
REMARK    1  A    between atoms: C_1  and  C_2
REMARK    2  A    between atoms: C_2  and  N_3
REMARK    3  A    between atoms: C_2  and  C_13
REMARK    4  A    between atoms: C_8  and  C_9
REMARK                            x       y       z     vdW  Elec       q    Type
REMARK                         _______ _______ _______ _____ _____    ______ ____
ROOT
ATOM      1  N   UNL     1      45.121   5.278  11.813  0.00  0.00    +0.000 N 
ATOM      2  C   UNL     1      45.901   6.407  11.979  0.00  0.00    +0.000 A 
ATOM      3  N   UNL     1      47.201   6.182  12.220  0.00  0.00    +0.000 NA
ATOM      4  C   UNL     1      47.990   7.252  12.438  0.00  0.00    +0.000 A 
ATOM      5  C   UNL     1      47.532   8.542  12.419  0.00  0.00    +0.000 A 
ATOM      6  C   UNL     1      46.189   8.657  12.150  0.00  0.00    +0.000 A 
ATOM      7  N   UNL     1      45.353   7.619  11.919  0.00  0.00    +0.000 NA
ATOM      8  H   UNL     1      45.789   4.532  11.654  0.00  0.00    +0.000 HD
ENDROOT
BRANCH   6   9
ATOM      9  C   UNL     1      45.556  10.009  12.108  0.00  0.00    +0.000 C 
ATOM     10  N   UNL     1      44.245  10.054  12.503  0.00  0.00    +0.000 N 
ATOM     11  O   UNL     1      46.162  11.013  11.750  0.00  0.00    +0.000 OA
ATOM     12  H   UNL     1      43.798   9.205  12.832  0.00  0.00    +0.000 HD
ATOM     13  H   UNL     1      43.761  10.937  12.538  0.00  0.00    +0.000 HD
ENDBRANCH   6   9
BRANCH   1  15
ATOM     14  C   UNL     1      42.678   5.089  11.635  0.00  0.00    +0.000 C 
ATOM     15  C   UNL     1      43.993   5.345  10.881  0.00  0.00    +0.000 C 
BRANCH  15  16
ATOM     16  C   UNL     1      44.195   4.307   9.731  0.00  0.00    +0.000 C 
ATOM     17  C   UNL     1      44.229   2.852  10.241  0.00  0.00    +0.000 C 
ATOM     18  C   UNL     1      44.554   1.841   9.145  0.00  0.00    +0.000 C 
ATOM     19  C   UNL     1      45.843   2.206   8.423  0.00  0.00    +0.000 C 
ATOM     20  C   UNL     1      45.745   3.601   7.818  0.00  0.00    +0.000 C 
ATOM     21  C   UNL     1      45.443   4.647   8.887  0.00  0.00    +0.000 C 
ENDBRANCH  15  16
ENDBRANCH   1  15
TORSDOF 3
ENDMDL
MODEL 4
REMARK VINA RESULT:    -7.707      2.096      3.104
REMARK INTER + INTRA:          -7.999
REMARK INTER:                  -7.568
REMARK INTRA:                  -0.432
REMARK UNBOUND:                 1.059
REMARK  Name = 
REMARK  4 active torsions:
REMARK  status: ('A' for Active; 'I' for Inactive)
REMARK    1  A    between atoms: C_1  and  C_2
REMARK    2  A    between atoms: C_2  and  N_3
REMARK    3  A    between atoms: C_2  and  C_13
REMARK    4  A    between atoms: C_8  and  C_9
REMARK                            x       y       z     vdW  Elec       q    Type
REMARK                         _______ _______ _______ _____ _____    ______ ____
ROOT
ATOM      1  N   UNL     1      44.504   4.656  12.287  0.00  0.00    +0.000 N 
ATOM      2  C   UNL     1      45.626   4.965  13.034  0.00  0.00    +0.000 A 
ATOM      3  N   UNL     1      46.161   3.945  13.724  0.00  0.00    +0.000 NA
ATOM      4  C   UNL     1      47.225   4.210  14.505  0.00  0.00    +0.000 A 
ATOM      5  C   UNL     1      47.783   5.454  14.622  0.00  0.00    +0.000 A 
ATOM      6  C   UNL     1      47.165   6.420  13.862  0.00  0.00    +0.000 A 
ATOM      7  N   UNL     1      46.098   6.208  13.058  0.00  0.00    +0.000 NA
ATOM      8  H   UNL     1      44.507   3.643  12.237  0.00  0.00    +0.000 HD
ENDROOT
BRANCH   6   9
ATOM      9  C   UNL     1      47.668   7.827  13.902  0.00  0.00    +0.000 C 
ATOM     10  N   UNL     1      46.699   8.792  13.988  0.00  0.00    +0.000 N 
ATOM     11  O   UNL     1      48.861   8.104  13.863  0.00  0.00    +0.000 OA
ATOM     12  H   UNL     1      45.727   8.512  14.061  0.00  0.00    +0.000 HD
ATOM     13  H   UNL     1      46.962   9.762  14.058  0.00  0.00    +0.000 HD
ENDBRANCH   6   9
BRANCH   1  15
ATOM     14  C   UNL     1      42.941   6.091  11.050  0.00  0.00    +0.000 C 
ATOM     15  C   UNL     1      44.296   5.366  11.023  0.00  0.00    +0.000 C 
BRANCH  15  16
ATOM     16  C   UNL     1      44.374   4.358   9.832  0.00  0.00    +0.000 C 
ATOM     17  C   UNL     1      44.414   2.888  10.297  0.00  0.00    +0.000 C 
ATOM     18  C   UNL     1      44.620   1.903   9.150  0.00  0.00    +0.000 C 
ATOM     19  C   UNL     1      45.852   2.260   8.332  0.00  0.00    +0.000 C 
ATOM     20  C   UNL     1      45.739   3.674   7.776  0.00  0.00    +0.000 C 
ATOM     21  C   UNL     1      45.555   4.695   8.894  0.00  0.00    +0.000 C 
ENDBRANCH  15  16
ENDBRANCH   1  15
TORSDOF 3
ENDMDL
MODEL 5
REMARK VINA RESULT:    -7.433      2.480      5.600
REMARK INTER + INTRA:          -7.678
REMARK INTER:                  -7.189
REMARK INTRA:                  -0.488
REMARK UNBOUND:                 1.059
REMARK  Name = 
REMARK  4 active torsions:
REMARK  status: ('A' for Active; 'I' for Inactive)
REMARK    1  A    between atoms: C_1  and  C_2
REMARK    2  A    between atoms: C_2  and  N_3
REMARK    3  A    between atoms: C_2  and  C_13
REMARK    4  A    between atoms: C_8  and  C_9
REMARK                            x       y       z     vdW  Elec       q    Type
REMARK                         _______ _______ _______ _____ _____    ______ ____
ROOT
ATOM      1  N   UNL     1      45.812   6.946  11.077  0.00  0.00    +0.000 N 
ATOM      2  C   UNL     1      45.388   5.694  10.672  0.00  0.00    +0.000 A 
ATOM      3  N   UNL     1      45.694   5.359   9.410  0.00  0.00    +0.000 NA
ATOM      4  C   UNL     1      45.258   4.168   8.956  0.00  0.00    +0.000 A 
ATOM      5  C   UNL     1      44.529   3.294   9.717  0.00  0.00    +0.000 A 
ATOM      6  C   UNL     1      44.284   3.732  10.997  0.00  0.00    +0.000 A 
ATOM      7  N   UNL     1      44.702   4.914  11.504  0.00  0.00    +0.000 NA
ATOM      8  H   UNL     1      46.498   7.216  10.380  0.00  0.00    +0.000 HD
ENDROOT
BRANCH   6   9
ATOM      9  C   UNL     1      43.492   2.878  11.933  0.00  0.00    +0.000 C 
ATOM     10  N   UNL     1      43.529   3.261  13.248  0.00  0.00    +0.000 N 
ATOM     11  O   UNL     1      42.849   1.905  11.557  0.00  0.00    +0.000 OA
ATOM     12  H   UNL     1      44.039   4.099  13.504  0.00  0.00    +0.000 HD
ATOM     13  H   UNL     1      42.989   2.757  13.933  0.00  0.00    +0.000 HD
ENDBRANCH   6   9
BRANCH   1  15
ATOM     14  C   UNL     1      45.726   8.498  12.978  0.00  0.00    +0.000 C 
ATOM     15  C   UNL     1      46.204   7.127  12.476  0.00  0.00    +0.000 C 
BRANCH  15  16
ATOM     16  C   UNL     1      47.755   6.985  12.613  0.00  0.00    +0.000 C 
ATOM     17  C   UNL     1      48.270   7.405  14.005  0.00  0.00    +0.000 C 
ATOM     18  C   UNL     1      49.792   7.393  14.108  0.00  0.00    +0.000 C 
ATOM     19  C   UNL     1      50.426   8.231  13.007  0.00  0.00    +0.000 C 
ATOM     20  C   UNL     1      50.003   7.723  11.634  0.00  0.00    +0.000 C 
ATOM     21  C   UNL     1      48.485   7.741  11.480  0.00  0.00    +0.000 C 
ENDBRANCH  15  16
ENDBRANCH   1  15
TORSDOF 3
ENDMDL
MODEL 6
REMARK VINA RESULT:    -7.401      2.525      6.300
REMARK INTER + INTRA:          -7.639
REMARK INTER:                  -7.245
REMARK INTRA:                  -0.395
REMARK UNBOUND:                 1.059
REMARK  Name = 
REMARK  4 active torsions:
REMARK  status: ('A' for Active; 'I' for Inactive)
REMARK    1  A    between atoms: C_1  and  C_2
REMARK    2  A    between atoms: C_2  and  N_3
REMARK    3  A    between atoms: C_2  and  C_13
REMARK    4  A    between atoms: C_8  and  C_9
REMARK                            x       y       z     vdW  Elec       q    Type
REMARK                         _______ _______ _______ _____ _____    ______ ____
ROOT
ATOM      1  N   UNL     1      46.023   6.288  13.302  0.00  0.00    +0.000 N 
ATOM      2  C   UNL     1      45.032   5.575  12.652  0.00  0.00    +0.000 A 
ATOM      3  N   UNL     1      43.850   5.520  13.284  0.00  0.00    +0.000 NA
ATOM      4  C   UNL     1      42.870   4.794  12.714  0.00  0.00    +0.000 A 
ATOM      5  C   UNL     1      43.021   4.123  11.530  0.00  0.00    +0.000 A 
ATOM      6  C   UNL     1      44.267   4.259  10.963  0.00  0.00    +0.000 A 
ATOM      7  N   UNL     1      45.284   4.978  11.490  0.00  0.00    +0.000 NA
ATOM      8  H   UNL     1      45.526   6.830  14.000  0.00  0.00    +0.000 HD
ENDROOT
BRANCH   6   9
ATOM      9  C   UNL     1      44.572   3.571   9.672  0.00  0.00    +0.000 C 
ATOM     10  N   UNL     1      44.163   4.234   8.545  0.00  0.00    +0.000 N 
ATOM     11  O   UNL     1      45.150   2.491   9.618  0.00  0.00    +0.000 OA
ATOM     12  H   UNL     1      43.728   5.146   8.638  0.00  0.00    +0.000 HD
ATOM     13  H   UNL     1      44.367   3.852   7.635  0.00  0.00    +0.000 HD
ENDBRANCH   6   9
BRANCH   1  15
ATOM     14  C   UNL     1      48.423   6.653  12.931  0.00  0.00    +0.000 C 
ATOM     15  C   UNL     1      46.998   7.018  12.489  0.00  0.00    +0.000 C 
BRANCH  15  16
ATOM     16  C   UNL     1      46.745   8.555  12.613  0.00  0.00    +0.000 C 
ATOM     17  C   UNL     1      45.446   9.004  11.913  0.00  0.00    +0.000 C 
ATOM     18  C   UNL     1      45.255  10.518  11.917  0.00  0.00    +0.000 C 
ATOM     19  C   UNL     1      46.470  11.227  11.338  0.00  0.00    +0.000 C 
ATOM     20  C   UNL     1      47.727  10.869  12.121  0.00  0.00    +0.000 C 
ATOM     21  C   UNL     1      47.968   9.363  12.122  0.00  0.00    +0.000 C 
ENDBRANCH  15  16
ENDBRANCH   1  15
TORSDOF 3
ENDMDL
MODEL 7
REMARK VINA RESULT:    -7.231      2.506      5.943
REMARK INTER + INTRA:          -7.440
REMARK INTER:                  -6.965
REMARK INTRA:                  -0.475
REMARK UNBOUND:                 1.059
REMARK  Name = 
REMARK  4 active torsions:
REMARK  status: ('A' for Active; 'I' for Inactive)
REMARK    1  A    between atoms: C_1  and  C_2
REMARK    2  A    between atoms: C_2  and  N_3
REMARK    3  A    between atoms: C_2  and  C_13
REMARK    4  A    between atoms: C_8  and  C_9
REMARK                            x       y       z     vdW  Elec       q    Type
REMARK                         _______ _______ _______ _____ _____    ______ ____
ROOT
ATOM      1  N   UNL     1      45.416   4.762  14.174  0.00  0.00    +0.000 N 
ATOM      2  C   UNL     1      44.638   4.824  13.033  0.00  0.00    +0.000 A 
ATOM      3  N   UNL     1      43.488   5.504  13.153  0.00  0.00    +0.000 NA
ATOM      4  C   UNL     1      42.673   5.548  12.082  0.00  0.00    +0.000 A 
ATOM      5  C   UNL     1      42.964   4.943  10.889  0.00  0.00    +0.000 A 
ATOM      6  C   UNL     1      44.172   4.285  10.873  0.00  0.00    +0.000 A 
ATOM      7  N   UNL     1      45.029   4.214  11.916  0.00  0.00    +0.000 NA
ATOM      8  H   UNL     1      45.040   5.486  14.775  0.00  0.00    +0.000 HD
ENDROOT
BRANCH   6   9
ATOM      9  C   UNL     1      44.610   3.573   9.635  0.00  0.00    +0.000 C 
ATOM     10  N   UNL     1      44.211   4.148   8.457  0.00  0.00    +0.000 N 
ATOM     11  O   UNL     1      45.283   2.549   9.664  0.00  0.00    +0.000 OA
ATOM     12  H   UNL     1      43.693   5.019   8.482  0.00  0.00    +0.000 HD
ATOM     13  H   UNL     1      44.501   3.747   7.579  0.00  0.00    +0.000 HD
ENDBRANCH   6   9
BRANCH   1  15
ATOM     14  C   UNL     1      47.519   4.084  15.248  0.00  0.00    +0.000 C 
ATOM     15  C   UNL     1      46.873   4.742  14.019  0.00  0.00    +0.000 C 
BRANCH  15  16
ATOM     16  C   UNL     1      47.403   6.198  13.815  0.00  0.00    +0.000 C 
ATOM     17  C   UNL     1      47.805   6.486  12.354  0.00  0.00    +0.000 C 
ATOM     18  C   UNL     1      48.443   7.860  12.169  0.00  0.00    +0.000 C 
ATOM     19  C   UNL     1      49.618   8.053  13.116  0.00  0.00    +0.000 C 
ATOM     20  C   UNL     1      49.175   7.887  14.564  0.00  0.00    +0.000 C 
ATOM     21  C   UNL     1      48.551   6.515  14.799  0.00  0.00    +0.000 C 
ENDBRANCH  15  16
ENDBRANCH   1  15
TORSDOF 3
ENDMDL
MODEL 8
REMARK VINA RESULT:    -7.196      3.792      6.021
REMARK INTER + INTRA:          -7.399
REMARK INTER:                  -6.995
REMARK INTRA:                  -0.404
REMARK UNBOUND:                 1.059
REMARK  Name = 
REMARK  4 active torsions:
REMARK  status: ('A' for Active; 'I' for Inactive)
REMARK    1  A    between atoms: C_1  and  C_2
REMARK    2  A    between atoms: C_2  and  N_3
REMARK    3  A    between atoms: C_2  and  C_13
REMARK    4  A    between atoms: C_8  and  C_9
REMARK                            x       y       z     vdW  Elec       q    Type
REMARK                         _______ _______ _______ _____ _____    ______ ____
ROOT
ATOM      1  N   UNL     1      46.797   5.143  15.121  0.00  0.00    +0.000 N 
ATOM      2  C   UNL     1      47.469   4.424  16.092  0.00  0.00    +0.000 A 
ATOM      3  N   UNL     1      46.728   3.535  16.770  0.00  0.00    +0.000 NA
ATOM      4  C   UNL     1      47.328   2.847  17.760  0.00  0.00    +0.000 A 
ATOM      5  C   UNL     1      48.645   3.008  18.098  0.00  0.00    +0.000 A 
ATOM      6  C   UNL     1      49.312   3.934  17.330  0.00  0.00    +0.000 A 
ATOM      7  N   UNL     1      48.760   4.647  16.323  0.00  0.00    +0.000 NA
ATOM      8  H   UNL     1      45.936   4.625  14.976  0.00  0.00    +0.000 HD
ENDROOT
BRANCH   6   9
ATOM      9  C   UNL     1      50.755   4.215  17.597  0.00  0.00    +0.000 C 
ATOM     10  N   UNL     1      51.315   3.486  18.612  0.00  0.00    +0.000 N 
ATOM     11  O   UNL     1      51.399   5.037  16.954  0.00  0.00    +0.000 OA
ATOM     12  H   UNL     1      50.755   2.786  19.087  0.00  0.00    +0.000 HD
ATOM     13  H   UNL     1      52.294   3.592  18.826  0.00  0.00    +0.000 HD
ENDBRANCH   6   9
BRANCH   1  15
ATOM     14  C   UNL     1      47.780   7.046  13.920  0.00  0.00    +0.000 C 
ATOM     15  C   UNL     1      47.529   5.530  13.913  0.00  0.00    +0.000 C 
BRANCH  15  16
ATOM     16  C   UNL     1      46.726   5.097  12.645  0.00  0.00    +0.000 C 
ATOM     17  C   UNL     1      46.418   6.278  11.702  0.00  0.00    +0.000 C 
ATOM     18  C   UNL     1      45.526   5.890  10.528  0.00  0.00    +0.000 C 
ATOM     19  C   UNL     1      44.248   5.216  11.006  0.00  0.00    +0.000 C 
ATOM     20  C   UNL     1      44.571   3.977  11.833  0.00  0.00    +0.000 C 
ATOM     21  C   UNL     1      45.445   4.326  13.034  0.00  0.00    +0.000 C 
ENDBRANCH  15  16
ENDBRANCH   1  15
TORSDOF 3
ENDMDL
MODEL 9
REMARK VINA RESULT:    -6.864      4.408      6.575
REMARK INTER + INTRA:          -7.009
REMARK INTER:                  -6.577
REMARK INTRA:                  -0.433
REMARK UNBOUND:                 1.059
REMARK  Name = 
REMARK  4 active torsions:
REMARK  status: ('A' for Active; 'I' for Inactive)
REMARK    1  A    between atoms: C_1  and  C_2
REMARK    2  A    between atoms: C_2  and  N_3
REMARK    3  A    between atoms: C_2  and  C_13
REMARK    4  A    between atoms: C_8  and  C_9
REMARK                            x       y       z     vdW  Elec       q    Type
REMARK                         _______ _______ _______ _____ _____    ______ ____
ROOT
ATOM      1  N   UNL     1      48.605   6.756  15.969  0.00  0.00    +0.000 N 
ATOM      2  C   UNL     1      48.595   5.658  16.809  0.00  0.00    +0.000 A 
ATOM      3  N   UNL     1      47.829   5.774  17.904  0.00  0.00    +0.000 NA
ATOM      4  C   UNL     1      47.828   4.748  18.778  0.00  0.00    +0.000 A 
ATOM      5  C   UNL     1      48.559   3.605  18.597  0.00  0.00    +0.000 A 
ATOM      6  C   UNL     1      49.297   3.587  17.437  0.00  0.00    +0.000 A 
ATOM      7  N   UNL     1      49.330   4.586  16.525  0.00  0.00    +0.000 NA
ATOM      8  H   UNL     1      47.803   7.304  16.262  0.00  0.00    +0.000 HD
ENDROOT
BRANCH   6   9
ATOM      9  C   UNL     1      50.148   2.402  17.119  0.00  0.00    +0.000 C 
ATOM     10  N   UNL     1      51.161   2.154  18.008  0.00  0.00    +0.000 N 
ATOM     11  O   UNL     1      49.958   1.694  16.136  0.00  0.00    +0.000 OA
ATOM     12  H   UNL     1      51.252   2.740  18.830  0.00  0.00    +0.000 HD
ATOM     13  H   UNL     1      51.754   1.348  17.882  0.00  0.00    +0.000 HD
ENDBRANCH   6   9
BRANCH   1  15
ATOM     14  C   UNL     1      49.559   7.659  13.894  0.00  0.00    +0.000 C 
ATOM     15  C   UNL     1      48.738   6.526  14.529  0.00  0.00    +0.000 C 
BRANCH  15  16
ATOM     16  C   UNL     1      47.323   6.420  13.876  0.00  0.00    +0.000 C 
ATOM     17  C   UNL     1      46.790   4.973  13.839  0.00  0.00    +0.000 C 
ATOM     18  C   UNL     1      45.468   4.840  13.090  0.00  0.00    +0.000 C 
ATOM     19  C   UNL     1      45.566   5.430  11.690  0.00  0.00    +0.000 C 
ATOM     20  C   UNL     1      45.974   6.897  11.752  0.00  0.00    +0.000 C 
ATOM     21  C   UNL     1      47.305   7.072  12.475  0.00  0.00    +0.000 C 
ENDBRANCH  15  16
ENDBRANCH   1  15
TORSDOF 3
ENDMDL
