MODEL 1
REMARK VINA RESULT:    -8.256      0.000      0.000
REMARK INTER + INTRA:         -11.279
REMARK INTER:                 -10.670
REMARK INTRA:                  -0.609
REMARK UNBOUND:                -0.609
REMARK  Name = 
REMARK  6 active torsions:
REMARK  status: ('A' for Active; 'I' for Inactive)
REMARK    1  A    between atoms: C_1  and  O_2
REMARK    2  A    between atoms: O_2  and  C_3
REMARK    3  A    between atoms: C_7  and  N_8
REMARK    4  A    between atoms: N_8  and  C_9
REMARK    5  A    between atoms: C_9  and  C_10
REMARK    6  A    between atoms: C_14  and  C_15
REMARK                            x       y       z     vdW  Elec       q    Type
REMARK                         _______ _______ _______ _____ _____    ______ ____
ROOT
ATOM      1  C   UNL     1      45.159   4.780  12.839  0.00  0.00    +0.000 A 
ATOM      2  C   UNL     1      43.954   5.487  12.809  0.00  0.00    +0.000 A 
ATOM      3  C   UNL     1      43.160   5.465  11.668  0.00  0.00    +0.000 A 
ATOM      4  C   UNL     1      43.580   4.763  10.534  0.00  0.00    +0.000 A 
ATOM      5  C   UNL     1      44.791   4.045  10.520  0.00  0.00    +0.000 A 
ATOM      6  C   UNL     1      45.536   4.023  11.715  0.00  0.00    +0.000 A 
ENDROOT
BRANCH   5   7
ATOM      7  C   UNL     1      45.322   3.456   9.265  0.00  0.00    +0.000 A 
ATOM      8  C   UNL     1      45.784   4.247   8.195  0.00  0.00    +0.000 A 
ATOM      9  C   UNL     1      46.431   3.682   7.088  0.00  0.00    +0.000 A 
ATOM     10  C   UNL     1      46.606   2.303   7.017  0.00  0.00    +0.000 A 
ATOM     11  C   UNL     1      46.117   1.503   8.043  0.00  0.00    +0.000 A 
ATOM     12  F   UNL     1      46.284   0.176   7.976  0.00  0.00    +0.000 F 
ATOM     13  C   UNL     1      45.485   2.062   9.146  0.00  0.00    +0.000 A 
ENDBRANCH   5   7
BRANCH   1  14
ATOM     14  C   UNL     1      46.065   4.856  14.047  0.00  0.00    +0.000 C 
BRANCH  14  15
ATOM     15  N   UNL     1      46.765   3.592  14.204  0.00  0.00    +0.000 N 
ATOM     16  H   UNL     1      47.402   3.415  13.433  0.00  0.00    +0.000 HD
BRANCH  15  21
ATOM     17  C   UNL     1      49.048   2.511  16.776  0.00  0.00    +0.000 A 
ATOM     18  C   UNL     1      48.724   3.378  17.807  0.00  0.00    +0.000 A 
ATOM     19  N   UNL     1      47.753   4.311  17.688  0.00  0.00    +0.000 NA
ATOM     20  C   UNL     1      47.134   4.331  16.482  0.00  0.00    +0.000 A 
ATOM     21  C   UNL     1      47.440   3.458  15.430  0.00  0.00    +0.000 A 
ATOM     22  N   UNL     1      48.415   2.537  15.579  0.00  0.00    +0.000 NA
BRANCH  17  24
ATOM     23  C   UNL     1      51.271   2.222  17.428  0.00  0.00    +0.000 C 
ATOM     24  O   UNL     1      50.062   1.602  17.002  0.00  0.00    +0.000 OA
ENDBRANCH  17  24
ENDBRANCH  15  21
ENDBRANCH  14  15
ENDBRANCH   1  14
TORSDOF 5
ENDMDL
MODEL 2
REMARK VINA RESULT:    -8.244      3.471      4.342
REMARK INTER + INTRA:         -11.263
REMARK INTER:                 -10.500
REMARK INTRA:                  -0.763
REMARK UNBOUND:                -0.609
REMARK  Name = 
REMARK  6 active torsions:
REMARK  status: ('A' for Active; 'I' for Inactive)
REMARK    1  A    between atoms: C_1  and  O_2
REMARK    2  A    between atoms: O_2  and  C_3
REMARK    3  A    between atoms: C_7  and  N_8
REMARK    4  A    between atoms: N_8  and  C_9
REMARK    5  A    between atoms: C_9  and  C_10
REMARK    6  A    between atoms: C_14  and  C_15
REMARK                            x       y       z     vdW  Elec       q    Type
REMARK                         _______ _______ _______ _____ _____    ______ ____
ROOT
ATOM      1  C   UNL     1      44.159   5.269  11.217  0.00  0.00    +0.000 A 
ATOM      2  C   UNL     1      43.318   4.416  11.936  0.00  0.00    +0.000 A 
ATOM      3  C   UNL     1      43.273   3.059  11.631  0.00  0.00    +0.000 A 
ATOM      4  C   UNL     1      44.044   2.551  10.582  0.00  0.00    +0.000 A 
ATOM      5  C   UNL     1      44.897   3.378   9.827  0.00  0.00    +0.000 A 
ATOM      6  C   UNL     1      44.978   4.731  10.209  0.00  0.00    +0.000 A 
ENDROOT
BRANCH   5   7
ATOM      7  C   UNL     1      45.572   2.877   8.603  0.00  0.00    +0.000 A 
ATOM      8  C   UNL     1      45.990   3.735   7.566  0.00  0.00    +0.000 A 
ATOM      9  C   UNL     1      46.767   3.271   6.497  0.00  0.00    +0.000 A 
ATOM     10  C   UNL     1      47.122   1.927   6.429  0.00  0.00    +0.000 A 
ATOM     11  C   UNL     1      46.680   1.057   7.419  0.00  0.00    +0.000 A 
ATOM     12  F   UNL     1      47.019  -0.236   7.355  0.00  0.00    +0.000 F 
ATOM     13  C   UNL     1      45.919   1.518   8.486  0.00  0.00    +0.000 A 
ENDBRANCH   5   7
BRANCH   1  14
ATOM     14  C   UNL     1      44.162   6.756  11.491  0.00  0.00    +0.000 C 
BRANCH  14  15
ATOM     15  N   UNL     1      44.820   7.010  12.761  0.00  0.00    +0.000 N 
ATOM     16  H   UNL     1      44.485   6.388  13.491  0.00  0.00    +0.000 HD
BRANCH  15  21
ATOM     17  C   UNL     1      48.264   7.868  12.130  0.00  0.00    +0.000 A 
ATOM     18  C   UNL     1      48.921   6.816  12.747  0.00  0.00    +0.000 A 
ATOM     19  N   UNL     1      48.259   5.809  13.359  0.00  0.00    +0.000 NA
ATOM     20  C   UNL     1      46.908   5.920  13.325  0.00  0.00    +0.000 A 
ATOM     21  C   UNL     1      46.223   6.971  12.700  0.00  0.00    +0.000 A 
ATOM     22  N   UNL     1      46.913   7.962  12.098  0.00  0.00    +0.000 NA
BRANCH  17  24
ATOM     23  C   UNL     1      48.430  10.133  11.590  0.00  0.00    +0.000 C 
ATOM     24  O   UNL     1      49.039   8.848  11.542  0.00  0.00    +0.000 OA
ENDBRANCH  17  24
ENDBRANCH  15  21
ENDBRANCH  14  15
ENDBRANCH   1  14
TORSDOF 5
ENDMDL
MODEL 3
REMARK VINA RESULT:    -8.028      3.230      3.964
REMARK INTER + INTRA:         -10.984
REMARK INTER:                 -10.207
REMARK INTRA:                  -0.778
REMARK UNBOUND:                -0.609
REMARK  Name = 
REMARK  6 active torsions:
REMARK  status: ('A' for Active; 'I' for Inactive)
REMARK    1  A    between atoms: C_1  and  O_2
REMARK    2  A    between atoms: O_2  and  C_3
REMARK    3  A    between atoms: C_7  and  N_8
REMARK    4  A    between atoms: N_8  and  C_9
REMARK    5  A    between atoms: C_9  and  C_10
REMARK    6  A    between atoms: C_14  and  C_15
REMARK                            x       y       z     vdW  Elec       q    Type
REMARK                         _______ _______ _______ _____ _____    ______ ____
ROOT
ATOM      1  C   UNL     1      44.082   5.237  11.109  0.00  0.00    +0.000 A 
ATOM      2  C   UNL     1      43.284   4.369  11.860  0.00  0.00    +0.000 A 
ATOM      3  C   UNL     1      43.299   3.003  11.596  0.00  0.00    +0.000 A 
ATOM      4  C   UNL     1      44.087   2.498  10.558  0.00  0.00    +0.000 A 
ATOM      5  C   UNL     1      44.898   3.339   9.773  0.00  0.00    +0.000 A 
ATOM      6  C   UNL     1      44.920   4.706  10.113  0.00  0.00    +0.000 A 
ENDROOT
BRANCH   5   7
ATOM      7  C   UNL     1      45.589   2.832   8.561  0.00  0.00    +0.000 A 
ATOM      8  C   UNL     1      46.020   3.684   7.525  0.00  0.00    +0.000 A 
ATOM      9  C   UNL     1      46.811   3.215   6.468  0.00  0.00    +0.000 A 
ATOM     10  C   UNL     1      47.168   1.871   6.413  0.00  0.00    +0.000 A 
ATOM     11  C   UNL     1      46.715   1.007   7.403  0.00  0.00    +0.000 A 
ATOM     12  F   UNL     1      47.056  -0.286   7.351  0.00  0.00    +0.000 F 
ATOM     13  C   UNL     1      45.939   1.472   8.457  0.00  0.00    +0.000 A 
ENDBRANCH   5   7
BRANCH   1  14
ATOM     14  C   UNL     1      44.019   6.730  11.338  0.00  0.00    +0.000 C 
BRANCH  14  15
ATOM     15  N   UNL     1      44.427   7.027  12.700  0.00  0.00    +0.000 N 
ATOM     16  H   UNL     1      44.289   6.231  13.318  0.00  0.00    +0.000 HD
BRANCH  15  21
ATOM     17  C   UNL     1      47.967   7.241  13.347  0.00  0.00    +0.000 A 
ATOM     18  C   UNL     1      48.249   8.516  12.884  0.00  0.00    +0.000 A 
ATOM     19  N   UNL     1      47.296   9.327  12.373  0.00  0.00    +0.000 NA
ATOM     20  C   UNL     1      46.053   8.787  12.345  0.00  0.00    +0.000 A 
ATOM     21  C   UNL     1      45.744   7.504  12.816  0.00  0.00    +0.000 A 
ATOM     22  N   UNL     1      46.717   6.718  13.320  0.00  0.00    +0.000 NA
BRANCH  17  24
ATOM     23  C   UNL     1      49.674   7.127  14.935  0.00  0.00    +0.000 C 
ATOM     24  O   UNL     1      49.018   6.494  13.842  0.00  0.00    +0.000 OA
ENDBRANCH  17  24
ENDBRANCH  15  21
ENDBRANCH  14  15
ENDBRANCH   1  14
TORSDOF 5
ENDMDL
MODEL 4
REMARK VINA RESULT:    -7.715      4.289      7.923
REMARK INTER + INTRA:         -10.580
REMARK INTER:                  -9.956
REMARK INTRA:                  -0.624
REMARK UNBOUND:                -0.609
REMARK  Name = 
REMARK  6 active torsions:
REMARK  status: ('A' for Active; 'I' for Inactive)
REMARK    1  A    between atoms: C_1  and  O_2
REMARK    2  A    between atoms: O_2  and  C_3
REMARK    3  A    between atoms: C_7  and  N_8
REMARK    4  A    between atoms: N_8  and  C_9
REMARK    5  A    between atoms: C_9  and  C_10
REMARK    6  A    between atoms: C_14  and  C_15
REMARK                            x       y       z     vdW  Elec       q    Type
REMARK                         _______ _______ _______ _____ _____    ______ ____
ROOT
ATOM      1  C   UNL     1      45.343   5.178  11.962  0.00  0.00    +0.000 A 
ATOM      2  C   UNL     1      45.873   6.290  11.303  0.00  0.00    +0.000 A 
ATOM      3  C   UNL     1      46.985   6.945  11.822  0.00  0.00    +0.000 A 
ATOM      4  C   UNL     1      47.557   6.513  13.022  0.00  0.00    +0.000 A 
ATOM      5  C   UNL     1      47.049   5.401  13.721  0.00  0.00    +0.000 A 
ATOM      6  C   UNL     1      45.971   4.713  13.132  0.00  0.00    +0.000 A 
ENDROOT
BRANCH   5   7
ATOM      7  C   UNL     1      47.538   5.056  15.080  0.00  0.00    +0.000 A 
ATOM      8  C   UNL     1      48.439   5.875  15.789  0.00  0.00    +0.000 A 
ATOM      9  C   UNL     1      48.764   5.622  17.128  0.00  0.00    +0.000 A 
ATOM     10  C   UNL     1      48.212   4.524  17.780  0.00  0.00    +0.000 A 
ATOM     11  C   UNL     1      47.356   3.679  17.083  0.00  0.00    +0.000 A 
ATOM     12  F   UNL     1      46.825   2.622  17.708  0.00  0.00    +0.000 F 
ATOM     13  C   UNL     1      47.024   3.935  15.758  0.00  0.00    +0.000 A 
ENDBRANCH   5   7
BRANCH   1  14
ATOM     14  C   UNL     1      44.092   4.503  11.447  0.00  0.00    +0.000 C 
BRANCH  14  15
ATOM     15  N   UNL     1      43.959   4.756  10.023  0.00  0.00    +0.000 N 
ATOM     16  H   UNL     1      44.188   5.718   9.787  0.00  0.00    +0.000 HD
BRANCH  15  21
ATOM     17  C   UNL     1      46.026   3.407   7.396  0.00  0.00    +0.000 A 
ATOM     18  C   UNL     1      46.147   2.087   7.799  0.00  0.00    +0.000 A 
ATOM     19  N   UNL     1      45.550   1.614   8.915  0.00  0.00    +0.000 NA
ATOM     20  C   UNL     1      44.834   2.536   9.605  0.00  0.00    +0.000 A 
ATOM     21  C   UNL     1      44.691   3.873   9.210  0.00  0.00    +0.000 A 
ATOM     22  N   UNL     1      45.300   4.315   8.091  0.00  0.00    +0.000 NA
BRANCH  17  24
ATOM     23  C   UNL     1      47.232   2.679   5.534  0.00  0.00    +0.000 C 
ATOM     24  O   UNL     1      46.685   3.786   6.243  0.00  0.00    +0.000 OA
ENDBRANCH  17  24
ENDBRANCH  15  21
ENDBRANCH  14  15
ENDBRANCH   1  14
TORSDOF 5
ENDMDL
MODEL 5
REMARK VINA RESULT:    -7.678      4.757      7.603
REMARK INTER + INTRA:         -10.531
REMARK INTER:                  -9.797
REMARK INTRA:                  -0.734
REMARK UNBOUND:                -0.609
REMARK  Name = 
REMARK  6 active torsions:
REMARK  status: ('A' for Active; 'I' for Inactive)
REMARK    1  A    between atoms: C_1  and  O_2
REMARK    2  A    between atoms: O_2  and  C_3
REMARK    3  A    between atoms: C_7  and  N_8
REMARK    4  A    between atoms: N_8  and  C_9
REMARK    5  A    between atoms: C_9  and  C_10
REMARK    6  A    between atoms: C_14  and  C_15
REMARK                            x       y       z     vdW  Elec       q    Type
REMARK                         _______ _______ _______ _____ _____    ______ ____
ROOT
ATOM      1  C   UNL     1      44.829   4.812  12.047  0.00  0.00    +0.000 A 
ATOM      2  C   UNL     1      45.495   3.927  12.899  0.00  0.00    +0.000 A 
ATOM      3  C   UNL     1      46.658   4.326  13.550  0.00  0.00    +0.000 A 
ATOM      4  C   UNL     1      47.182   5.603  13.329  0.00  0.00    +0.000 A 
ATOM      5  C   UNL     1      46.546   6.522  12.472  0.00  0.00    +0.000 A 
ATOM      6  C   UNL     1      45.331   6.116  11.888  0.00  0.00    +0.000 A 
ENDROOT
BRANCH   5   7
ATOM      7  C   UNL     1      47.196   7.803  12.097  0.00  0.00    +0.000 A 
ATOM      8  C   UNL     1      46.536   9.043  12.199  0.00  0.00    +0.000 A 
ATOM      9  C   UNL     1      47.211  10.254  11.997  0.00  0.00    +0.000 A 
ATOM     10  C   UNL     1      48.561  10.248  11.663  0.00  0.00    +0.000 A 
ATOM     11  C   UNL     1      49.218   9.032  11.514  0.00  0.00    +0.000 A 
ATOM     12  F   UNL     1      50.517   9.024  11.191  0.00  0.00    +0.000 F 
ATOM     13  C   UNL     1      48.553   7.830  11.724  0.00  0.00    +0.000 A 
ENDBRANCH   5   7
BRANCH   1  14
ATOM     14  C   UNL     1      43.606   4.365  11.278  0.00  0.00    +0.000 C 
BRANCH  14  15
ATOM     15  N   UNL     1      43.742   4.758   9.886  0.00  0.00    +0.000 N 
ATOM     16  H   UNL     1      44.075   5.714   9.794  0.00  0.00    +0.000 HD
BRANCH  15  21
ATOM     17  C   UNL     1      46.059   3.473   7.443  0.00  0.00    +0.000 A 
ATOM     18  C   UNL     1      46.109   2.134   7.795  0.00  0.00    +0.000 A 
ATOM     19  N   UNL     1      45.381   1.628   8.816  0.00  0.00    +0.000 NA
ATOM     20  C   UNL     1      44.612   2.536   9.465  0.00  0.00    +0.000 A 
ATOM     21  C   UNL     1      44.541   3.893   9.119  0.00  0.00    +0.000 A 
ATOM     22  N   UNL     1      45.280   4.368   8.095  0.00  0.00    +0.000 NA
BRANCH  17  24
ATOM     23  C   UNL     1      47.049   2.861   5.418  0.00  0.00    +0.000 C 
ATOM     24  O   UNL     1      46.851   3.884   6.388  0.00  0.00    +0.000 OA
ENDBRANCH  17  24
ENDBRANCH  15  21
ENDBRANCH  14  15
ENDBRANCH   1  14
TORSDOF 5
ENDMDL
MODEL 6
REMARK VINA RESULT:    -7.558      5.332      6.959
REMARK INTER + INTRA:         -10.376
REMARK INTER:                  -9.734
REMARK INTRA:                  -0.642
REMARK UNBOUND:                -0.609
REMARK  Name = 
REMARK  6 active torsions:
REMARK  status: ('A' for Active; 'I' for Inactive)
REMARK    1  A    between atoms: C_1  and  O_2
REMARK    2  A    between atoms: O_2  and  C_3
REMARK    3  A    between atoms: C_7  and  N_8
REMARK    4  A    between atoms: N_8  and  C_9
REMARK    5  A    between atoms: C_9  and  C_10
REMARK    6  A    between atoms: C_14  and  C_15
REMARK                            x       y       z     vdW  Elec       q    Type
REMARK                         _______ _______ _______ _____ _____    ______ ____
ROOT
ATOM      1  C   UNL     1      44.481   5.433  11.568  0.00  0.00    +0.000 A 
ATOM      2  C   UNL     1      43.458   4.683  12.152  0.00  0.00    +0.000 A 
ATOM      3  C   UNL     1      43.178   3.402  11.688  0.00  0.00    +0.000 A 
ATOM      4  C   UNL     1      43.898   2.873  10.613  0.00  0.00    +0.000 A 
ATOM      5  C   UNL     1      44.931   3.600   9.990  0.00  0.00    +0.000 A 
ATOM      6  C   UNL     1      45.242   4.862  10.532  0.00  0.00    +0.000 A 
ENDROOT
BRANCH   5   7
ATOM      7  C   UNL     1      45.568   3.116   8.739  0.00  0.00    +0.000 A 
ATOM      8  C   UNL     1      45.932   3.985   7.692  0.00  0.00    +0.000 A 
ATOM      9  C   UNL     1      46.677   3.539   6.592  0.00  0.00    +0.000 A 
ATOM     10  C   UNL     1      47.052   2.202   6.505  0.00  0.00    +0.000 A 
ATOM     11  C   UNL     1      46.663   1.321   7.507  0.00  0.00    +0.000 A 
ATOM     12  F   UNL     1      47.022   0.034   7.424  0.00  0.00    +0.000 F 
ATOM     13  C   UNL     1      45.935   1.763   8.604  0.00  0.00    +0.000 A 
ENDBRANCH   5   7
BRANCH   1  14
ATOM     14  C   UNL     1      44.746   6.853  12.016  0.00  0.00    +0.000 C 
BRANCH  14  15
ATOM     15  N   UNL     1      44.796   7.724  10.855  0.00  0.00    +0.000 N 
ATOM     16  H   UNL     1      44.480   7.250  10.013  0.00  0.00    +0.000 HD
BRANCH  15  21
ATOM     17  C   UNL     1      42.192  10.215  10.945  0.00  0.00    +0.000 A 
ATOM     18  C   UNL     1      42.876  11.302  11.465  0.00  0.00    +0.000 A 
ATOM     19  N   UNL     1      44.190  11.247  11.778  0.00  0.00    +0.000 NA
ATOM     20  C   UNL     1      44.774  10.045  11.548  0.00  0.00    +0.000 A 
ATOM     21  C   UNL     1      44.103   8.936  11.014  0.00  0.00    +0.000 A 
ATOM     22  N   UNL     1      42.791   9.022  10.712  0.00  0.00    +0.000 NA
BRANCH  17  24
ATOM     23  C   UNL     1      40.591  11.516   9.853  0.00  0.00    +0.000 C 
ATOM     24  O   UNL     1      40.849  10.379  10.669  0.00  0.00    +0.000 OA
ENDBRANCH  17  24
ENDBRANCH  15  21
ENDBRANCH  14  15
ENDBRANCH   1  14
TORSDOF 5
ENDMDL
MODEL 7
REMARK VINA RESULT:    -7.169      2.221      2.834
REMARK INTER + INTRA:          -9.874
REMARK INTER:                  -9.123
REMARK INTRA:                  -0.750
REMARK UNBOUND:                -0.609
REMARK  Name = 
REMARK  6 active torsions:
REMARK  status: ('A' for Active; 'I' for Inactive)
REMARK    1  A    between atoms: C_1  and  O_2
REMARK    2  A    between atoms: O_2  and  C_3
REMARK    3  A    between atoms: C_7  and  N_8
REMARK    4  A    between atoms: N_8  and  C_9
REMARK    5  A    between atoms: C_9  and  C_10
REMARK    6  A    between atoms: C_14  and  C_15
REMARK                            x       y       z     vdW  Elec       q    Type
REMARK                         _______ _______ _______ _____ _____    ______ ____
ROOT
ATOM      1  C   UNL     1      47.425   7.107  13.446  0.00  0.00    +0.000 A 
ATOM      2  C   UNL     1      46.930   8.410  13.345  0.00  0.00    +0.000 A 
ATOM      3  C   UNL     1      45.858   8.686  12.503  0.00  0.00    +0.000 A 
ATOM      4  C   UNL     1      45.293   7.668  11.729  0.00  0.00    +0.000 A 
ATOM      5  C   UNL     1      45.768   6.344  11.795  0.00  0.00    +0.000 A 
ATOM      6  C   UNL     1      46.803   6.081  12.713  0.00  0.00    +0.000 A 
ENDROOT
BRANCH   5   7
ATOM      7  C   UNL     1      45.294   5.307  10.844  0.00  0.00    +0.000 A 
ATOM      8  C   UNL     1      45.680   5.292   9.489  0.00  0.00    +0.000 A 
ATOM      9  C   UNL     1      45.357   4.220   8.646  0.00  0.00    +0.000 A 
ATOM     10  C   UNL     1      44.616   3.150   9.137  0.00  0.00    +0.000 A 
ATOM     11  C   UNL     1      44.189   3.169  10.459  0.00  0.00    +0.000 A 
ATOM     12  F   UNL     1      43.476   2.141  10.933  0.00  0.00    +0.000 F 
ATOM     13  C   UNL     1      44.517   4.225  11.300  0.00  0.00    +0.000 A 
ENDBRANCH   5   7
BRANCH   1  14
ATOM     14  C   UNL     1      48.635   6.809  14.302  0.00  0.00    +0.000 C 
BRANCH  14  15
ATOM     15  N   UNL     1      48.219   6.646  15.684  0.00  0.00    +0.000 N 
ATOM     16  H   UNL     1      47.283   7.010  15.843  0.00  0.00    +0.000 HD
BRANCH  15  21
ATOM     17  C   UNL     1      49.439   3.607  17.190  0.00  0.00    +0.000 A 
ATOM     18  C   UNL     1      48.312   2.804  17.129  0.00  0.00    +0.000 A 
ATOM     19  N   UNL     1      47.149   3.230  16.586  0.00  0.00    +0.000 NA
ATOM     20  C   UNL     1      47.179   4.502  16.118  0.00  0.00    +0.000 A 
ATOM     21  C   UNL     1      48.310   5.327  16.161  0.00  0.00    +0.000 A 
ATOM     22  N   UNL     1      49.456   4.873  16.710  0.00  0.00    +0.000 NA
BRANCH  17  24
ATOM     23  C   UNL     1      50.907   1.793  17.251  0.00  0.00    +0.000 C 
ATOM     24  O   UNL     1      50.571   3.073  17.773  0.00  0.00    +0.000 OA
ENDBRANCH  17  24
ENDBRANCH  15  21
ENDBRANCH  14  15
ENDBRANCH   1  14
TORSDOF 5
ENDMDL
MODEL 8
REMARK VINA RESULT:    -7.154      4.200      7.892
REMARK INTER + INTRA:          -9.855
REMARK INTER:                  -9.390
REMARK INTRA:                  -0.464
REMARK UNBOUND:                -0.609
REMARK  Name = 
REMARK  6 active torsions:
REMARK  status: ('A' for Active; 'I' for Inactive)
REMARK    1  A    between atoms: C_1  and  O_2
REMARK    2  A    between atoms: O_2  and  C_3
REMARK    3  A    between atoms: C_7  and  N_8
REMARK    4  A    between atoms: N_8  and  C_9
REMARK    5  A    between atoms: C_9  and  C_10
REMARK    6  A    between atoms: C_14  and  C_15
REMARK                            x       y       z     vdW  Elec       q    Type
REMARK                         _______ _______ _______ _____ _____    ______ ____
ROOT
ATOM      1  C   UNL     1      45.295   4.672  12.475  0.00  0.00    +0.000 A 
ATOM      2  C   UNL     1      45.602   5.915  11.917  0.00  0.00    +0.000 A 
ATOM      3  C   UNL     1      46.608   6.701  12.470  0.00  0.00    +0.000 A 
ATOM      4  C   UNL     1      47.293   6.263  13.607  0.00  0.00    +0.000 A 
ATOM      5  C   UNL     1      47.009   5.021  14.206  0.00  0.00    +0.000 A 
ATOM      6  C   UNL     1      46.039   4.215  13.578  0.00  0.00    +0.000 A 
ENDROOT
BRANCH   5   7
ATOM      7  C   UNL     1      47.604   4.640  15.511  0.00  0.00    +0.000 A 
ATOM      8  C   UNL     1      47.602   3.312  15.984  0.00  0.00    +0.000 A 
ATOM      9  C   UNL     1      48.307   2.941  17.136  0.00  0.00    +0.000 A 
ATOM     10  C   UNL     1      49.012   3.900  17.857  0.00  0.00    +0.000 A 
ATOM     11  C   UNL     1      48.988   5.223  17.431  0.00  0.00    +0.000 A 
ATOM     12  F   UNL     1      49.664   6.148  18.124  0.00  0.00    +0.000 F 
ATOM     13  C   UNL     1      48.298   5.591  16.282  0.00  0.00    +0.000 A 
ENDBRANCH   5   7
BRANCH   1  14
ATOM     14  C   UNL     1      44.156   3.843  11.927  0.00  0.00    +0.000 C 
BRANCH  14  15
ATOM     15  N   UNL     1      43.856   4.272  10.572  0.00  0.00    +0.000 N 
ATOM     16  H   UNL     1      43.816   5.285  10.496  0.00  0.00    +0.000 HD
BRANCH  15  21
ATOM     17  C   UNL     1      45.755   2.002   8.513  0.00  0.00    +0.000 A 
ATOM     18  C   UNL     1      46.338   2.878   7.612  0.00  0.00    +0.000 A 
ATOM     19  N   UNL     1      46.138   4.213   7.670  0.00  0.00    +0.000 NA
ATOM     20  C   UNL     1      45.318   4.618   8.670  0.00  0.00    +0.000 A 
ATOM     21  C   UNL     1      44.725   3.750   9.598  0.00  0.00    +0.000 A 
ATOM     22  N   UNL     1      44.944   2.421   9.514  0.00  0.00    +0.000 NA
BRANCH  17  24
ATOM     23  C   UNL     1      47.002   0.401   7.359  0.00  0.00    +0.000 C 
ATOM     24  O   UNL     1      46.021   0.656   8.358  0.00  0.00    +0.000 OA
ENDBRANCH  17  24
ENDBRANCH  15  21
ENDBRANCH  14  15
ENDBRANCH   1  14
TORSDOF 5
ENDMDL
MODEL 9
REMARK VINA RESULT:    -7.080      1.980      2.486
REMARK INTER + INTRA:          -9.759
REMARK INTER:                  -9.024
REMARK INTRA:                  -0.735
REMARK UNBOUND:                -0.609
REMARK  Name = 
REMARK  6 active torsions:
REMARK  status: ('A' for Active; 'I' for Inactive)
REMARK    1  A    between atoms: C_1  and  O_2
REMARK    2  A    between atoms: O_2  and  C_3
REMARK    3  A    between atoms: C_7  and  N_8
REMARK    4  A    between atoms: N_8  and  C_9
REMARK    5  A    between atoms: C_9  and  C_10
REMARK    6  A    between atoms: C_14  and  C_15
REMARK                            x       y       z     vdW  Elec       q    Type
REMARK                         _______ _______ _______ _____ _____    ______ ____
ROOT
ATOM      1  C   UNL     1      45.176   6.379  12.011  0.00  0.00    +0.000 A 
ATOM      2  C   UNL     1      43.791   6.526  12.122  0.00  0.00    +0.000 A 
ATOM      3  C   UNL     1      42.941   5.700  11.393  0.00  0.00    +0.000 A 
ATOM      4  C   UNL     1      43.470   4.743  10.523  0.00  0.00    +0.000 A 
ATOM      5  C   UNL     1      44.859   4.569  10.376  0.00  0.00    +0.000 A 
ATOM      6  C   UNL     1      45.692   5.367  11.183  0.00  0.00    +0.000 A 
ENDROOT
BRANCH   5   7
ATOM      7  C   UNL     1      45.418   3.685   9.322  0.00  0.00    +0.000 A 
ATOM      8  C   UNL     1      45.375   2.280   9.414  0.00  0.00    +0.000 A 
ATOM      9  C   UNL     1      45.758   1.461   8.343  0.00  0.00    +0.000 A 
ATOM     10  C   UNL     1      46.218   2.034   7.162  0.00  0.00    +0.000 A 
ATOM     11  C   UNL     1      46.309   3.418   7.069  0.00  0.00    +0.000 A 
ATOM     12  F   UNL     1      46.753   3.972   5.934  0.00  0.00    +0.000 F 
ATOM     13  C   UNL     1      45.920   4.232   8.126  0.00  0.00    +0.000 A 
ENDBRANCH   5   7
BRANCH   1  14
ATOM     14  C   UNL     1      46.109   7.318  12.743  0.00  0.00    +0.000 C 
BRANCH  14  15
ATOM     15  N   UNL     1      47.425   6.710  12.841  0.00  0.00    +0.000 N 
ATOM     16  H   UNL     1      48.155   7.333  12.506  0.00  0.00    +0.000 HD
BRANCH  15  21
ATOM     17  C   UNL     1      47.689   4.643  15.782  0.00  0.00    +0.000 A 
ATOM     18  C   UNL     1      48.526   5.410  16.577  0.00  0.00    +0.000 A 
ATOM     19  N   UNL     1      49.002   6.610  16.178  0.00  0.00    +0.000 NA
ATOM     20  C   UNL     1      48.599   6.993  14.941  0.00  0.00    +0.000 A 
ATOM     21  C   UNL     1      47.746   6.238  14.125  0.00  0.00    +0.000 A 
ATOM     22  N   UNL     1      47.288   5.043  14.552  0.00  0.00    +0.000 NA
BRANCH  17  24
ATOM     23  C   UNL     1      48.348   2.613  16.728  0.00  0.00    +0.000 C 
ATOM     24  O   UNL     1      47.268   3.428  16.286  0.00  0.00    +0.000 OA
ENDBRANCH  17  24
ENDBRANCH  15  21
ENDBRANCH  14  15
ENDBRANCH   1  14
TORSDOF 5
ENDMDL
