MODEL 1
REMARK VINA RESULT:    -8.084      0.000      0.000
REMARK INTER + INTRA:         -13.491
REMARK INTER:                 -11.865
REMARK INTRA:                  -1.627
REMARK UNBOUND:                -1.627
REMARK  Name = 
REMARK  10 active torsions:
REMARK  status: ('A' for Active; 'I' for Inactive)
REMARK    1  A    between atoms: C_1  and  O_2
REMARK    2  A    between atoms: O_2  and  C_3
REMARK    3  A    between atoms: C_10  and  C_11
REMARK    4  A    between atoms: N_13  and  C_14
REMARK    5  A    between atoms: C_14  and  C_15
REMARK    6  A    between atoms: C_18  and  C_19
REMARK    7  A    between atoms: C_19  and  N_20
REMARK    8  A    between atoms: N_20  and  C_21
REMARK    9  A    between atoms: N_20  and  C_22
REMARK   10  A    between atoms: C_22  and  C_23
REMARK                            x       y       z     vdW  Elec       q    Type
REMARK                         _______ _______ _______ _____ _____    ______ ____
ROOT
ATOM      1  C   UNL     1      47.101   8.397  13.302  0.00  0.00    +0.000 C 
ENDROOT
BRANCH   1   2
ATOM      2  C   UNL     1      46.294   7.413  12.496  0.00  0.00    +0.000 A 
ATOM      3  C   UNL     1      44.962   7.143  12.837  0.00  0.00    +0.000 A 
ATOM      4  C   UNL     1      44.218   6.214  12.109  0.00  0.00    +0.000 A 
ATOM      5  C   UNL     1      44.789   5.534  11.026  0.00  0.00    +0.000 A 
ATOM      6  C   UNL     1      46.131   5.779  10.703  0.00  0.00    +0.000 A 
ATOM      7  C   UNL     1      46.877   6.708  11.433  0.00  0.00    +0.000 A 
BRANCH   5   8
ATOM      8  C   UNL     1      43.963   4.566  10.203  0.00  0.00    +0.000 C 
BRANCH   8   9
ATOM      9  N   UNL     1      44.366   3.158  10.386  0.00  0.00    +0.000 NA
ATOM     10  C   UNL     1      43.563   2.510  11.433  0.00  0.00    +0.000 C 
BRANCH   9  11
ATOM     11  C   UNL     1      44.212   2.398   9.132  0.00  0.00    +0.000 C 
BRANCH  11  12
ATOM     12  C   UNL     1      45.452   2.362   8.263  0.00  0.00    +0.000 A 
ATOM     13  C   UNL     1      45.910   3.521   7.620  0.00  0.00    +0.000 A 
ATOM     14  C   UNL     1      47.097   3.502   6.887  0.00  0.00    +0.000 A 
ATOM     15  C   UNL     1      47.835   2.325   6.782  0.00  0.00    +0.000 A 
ATOM     16  C   UNL     1      47.376   1.159   7.393  0.00  0.00    +0.000 A 
ATOM     17  C   UNL     1      46.190   1.177   8.130  0.00  0.00    +0.000 A 
ENDBRANCH  11  12
ENDBRANCH   9  11
ENDBRANCH   8   9
ENDBRANCH   5   8
ENDBRANCH   1   2
BRANCH   1  20
ATOM     18  C   UNL     1      48.860   7.326  14.651  0.00  0.00    +0.000 C 
ATOM     19  O   UNL     1      49.675   7.428  13.741  0.00  0.00    +0.000 OA
ATOM     20  N   UNL     1      47.579   7.782  14.514  0.00  0.00    +0.000 N 
ATOM     21  H   UNL     1      46.942   7.752  15.298  0.00  0.00    +0.000 HD
BRANCH  18  29
ATOM     22  C   UNL     1      47.660   4.560  16.324  0.00  0.00    +0.000 A 
ATOM     23  N   UNL     1      47.452   3.499  17.132  0.00  0.00    +0.000 NA
ATOM     24  C   UNL     1      48.232   3.366  18.208  0.00  0.00    +0.000 A 
ATOM     25  N   UNL     1      49.208   4.180  18.595  0.00  0.00    +0.000 NA
ATOM     26  C   UNL     1      49.389   5.218  17.761  0.00  0.00    +0.000 A 
ATOM     27  S   UNL     1      50.585   6.371  18.108  0.00  0.00    +0.000 S 
ATOM     28  C   UNL     1      50.228   7.242  16.695  0.00  0.00    +0.000 A 
ATOM     29  C   UNL     1      49.210   6.683  15.930  0.00  0.00    +0.000 A 
ATOM     30  C   UNL     1      48.683   5.488  16.592  0.00  0.00    +0.000 A 
BRANCH  22  32
ATOM     31  C   UNL     1      46.960   3.730  14.235  0.00  0.00    +0.000 C 
ATOM     32  O   UNL     1      46.824   4.731  15.241  0.00  0.00    +0.000 OA
ENDBRANCH  22  32
ENDBRANCH  18  29
ENDBRANCH   1  20
TORSDOF 8
ENDMDL
MODEL 2
REMARK VINA RESULT:    -7.481      1.635      2.146
REMARK INTER + INTRA:         -12.607
REMARK INTER:                 -11.410
REMARK INTRA:                  -1.197
REMARK UNBOUND:                -1.627
REMARK  Name = 
REMARK  10 active torsions:
REMARK  status: ('A' for Active; 'I' for Inactive)
REMARK    1  A    between atoms: C_1  and  O_2
REMARK    2  A    between atoms: O_2  and  C_3
REMARK    3  A    between atoms: C_10  and  C_11
REMARK    4  A    between atoms: N_13  and  C_14
REMARK    5  A    between atoms: C_14  and  C_15
REMARK    6  A    between atoms: C_18  and  C_19
REMARK    7  A    between atoms: C_19  and  N_20
REMARK    8  A    between atoms: N_20  and  C_21
REMARK    9  A    between atoms: N_20  and  C_22
REMARK   10  A    between atoms: C_22  and  C_23
REMARK                            x       y       z     vdW  Elec       q    Type
REMARK                         _______ _______ _______ _____ _____    ______ ____
ROOT
ATOM      1  C   UNL     1      49.298   7.131  13.703  0.00  0.00    +0.000 C 
ENDROOT
BRANCH   1   2
ATOM      2  C   UNL     1      48.024   6.643  13.065  0.00  0.00    +0.000 A 
ATOM      3  C   UNL     1      47.481   7.318  11.964  0.00  0.00    +0.000 A 
ATOM      4  C   UNL     1      46.288   6.886  11.384  0.00  0.00    +0.000 A 
ATOM      5  C   UNL     1      45.610   5.770  11.894  0.00  0.00    +0.000 A 
ATOM      6  C   UNL     1      46.135   5.113  13.016  0.00  0.00    +0.000 A 
ATOM      7  C   UNL     1      47.329   5.547  13.597  0.00  0.00    +0.000 A 
BRANCH   5   8
ATOM      8  C   UNL     1      44.344   5.270  11.230  0.00  0.00    +0.000 C 
BRANCH   8   9
ATOM      9  N   UNL     1      44.462   3.890  10.720  0.00  0.00    +0.000 NA
ATOM     10  C   UNL     1      43.470   3.007  11.350  0.00  0.00    +0.000 C 
BRANCH   9  11
ATOM     11  C   UNL     1      44.272   3.849   9.258  0.00  0.00    +0.000 C 
BRANCH  11  12
ATOM     12  C   UNL     1      45.373   3.135   8.501  0.00  0.00    +0.000 A 
ATOM     13  C   UNL     1      45.586   1.760   8.677  0.00  0.00    +0.000 A 
ATOM     14  C   UNL     1      46.547   1.090   7.918  0.00  0.00    +0.000 A 
ATOM     15  C   UNL     1      47.309   1.787   6.983  0.00  0.00    +0.000 A 
ATOM     16  C   UNL     1      47.126   3.159   6.819  0.00  0.00    +0.000 A 
ATOM     17  C   UNL     1      46.163   3.831   7.575  0.00  0.00    +0.000 A 
ENDBRANCH  11  12
ENDBRANCH   9  11
ENDBRANCH   8   9
ENDBRANCH   5   8
ENDBRANCH   1   2
BRANCH   1  20
ATOM     18  C   UNL     1      48.623   7.951  15.924  0.00  0.00    +0.000 C 
ATOM     19  O   UNL     1      48.107   8.953  15.441  0.00  0.00    +0.000 OA
ATOM     20  N   UNL     1      49.222   7.009  15.136  0.00  0.00    +0.000 N 
ATOM     21  H   UNL     1      49.580   6.157  15.546  0.00  0.00    +0.000 HD
BRANCH  18  29
ATOM     22  C   UNL     1      48.718   5.112  17.880  0.00  0.00    +0.000 A 
ATOM     23  N   UNL     1      48.844   4.196  18.862  0.00  0.00    +0.000 NA
ATOM     24  C   UNL     1      48.939   4.632  20.121  0.00  0.00    +0.000 A 
ATOM     25  N   UNL     1      48.912   5.895  20.535  0.00  0.00    +0.000 NA
ATOM     26  C   UNL     1      48.795   6.776  19.527  0.00  0.00    +0.000 A 
ATOM     27  S   UNL     1      48.730   8.437  19.873  0.00  0.00    +0.000 S 
ATOM     28  C   UNL     1      48.627   8.827  18.223  0.00  0.00    +0.000 A 
ATOM     29  C   UNL     1      48.646   7.722  17.380  0.00  0.00    +0.000 A 
ATOM     30  C   UNL     1      48.710   6.490  18.167  0.00  0.00    +0.000 A 
BRANCH  22  32
ATOM     31  C   UNL     1      47.851   3.439  16.469  0.00  0.00    +0.000 C 
ATOM     32  O   UNL     1      48.568   4.667  16.584  0.00  0.00    +0.000 OA
ENDBRANCH  22  32
ENDBRANCH  18  29
ENDBRANCH   1  20
TORSDOF 8
ENDMDL
MODEL 3
REMARK VINA RESULT:    -7.062      2.522      3.845
REMARK INTER + INTRA:         -11.992
REMARK INTER:                 -10.750
REMARK INTRA:                  -1.242
REMARK UNBOUND:                -1.627
REMARK  Name = 
REMARK  10 active torsions:
REMARK  status: ('A' for Active; 'I' for Inactive)
REMARK    1  A    between atoms: C_1  and  O_2
REMARK    2  A    between atoms: O_2  and  C_3
REMARK    3  A    between atoms: C_10  and  C_11
REMARK    4  A    between atoms: N_13  and  C_14
REMARK    5  A    between atoms: C_14  and  C_15
REMARK    6  A    between atoms: C_18  and  C_19
REMARK    7  A    between atoms: C_19  and  N_20
REMARK    8  A    between atoms: N_20  and  C_21
REMARK    9  A    between atoms: N_20  and  C_22
REMARK   10  A    between atoms: C_22  and  C_23
REMARK                            x       y       z     vdW  Elec       q    Type
REMARK                         _______ _______ _______ _____ _____    ______ ____
ROOT
ATOM      1  C   UNL     1      47.640   4.195  16.146  0.00  0.00    +0.000 C 
ENDROOT
BRANCH   1   2
ATOM      2  C   UNL     1      47.096   4.513  14.778  0.00  0.00    +0.000 A 
ATOM      3  C   UNL     1      46.648   3.485  13.938  0.00  0.00    +0.000 A 
ATOM      4  C   UNL     1      46.167   3.771  12.660  0.00  0.00    +0.000 A 
ATOM      5  C   UNL     1      46.124   5.092  12.193  0.00  0.00    +0.000 A 
ATOM      6  C   UNL     1      46.601   6.119  13.020  0.00  0.00    +0.000 A 
ATOM      7  C   UNL     1      47.084   5.831  14.299  0.00  0.00    +0.000 A 
BRANCH   5   8
ATOM      8  C   UNL     1      45.550   5.406  10.826  0.00  0.00    +0.000 C 
BRANCH   8   9
ATOM      9  N   UNL     1      44.710   4.319  10.286  0.00  0.00    +0.000 NA
ATOM     10  C   UNL     1      43.329   4.426  10.775  0.00  0.00    +0.000 C 
BRANCH   9  11
ATOM     11  C   UNL     1      44.694   4.348   8.812  0.00  0.00    +0.000 C 
BRANCH  11  12
ATOM     12  C   UNL     1      45.575   3.307   8.154  0.00  0.00    +0.000 A 
ATOM     13  C   UNL     1      46.457   3.662   7.123  0.00  0.00    +0.000 A 
ATOM     14  C   UNL     1      47.324   2.716   6.575  0.00  0.00    +0.000 A 
ATOM     15  C   UNL     1      47.315   1.404   7.046  0.00  0.00    +0.000 A 
ATOM     16  C   UNL     1      46.424   1.032   8.051  0.00  0.00    +0.000 A 
ATOM     17  C   UNL     1      45.557   1.977   8.602  0.00  0.00    +0.000 A 
ENDBRANCH  11  12
ENDBRANCH   9  11
ENDBRANCH   8   9
ENDBRANCH   5   8
ENDBRANCH   1   2
BRANCH   1  20
ATOM     18  C   UNL     1      48.292   5.498  18.130  0.00  0.00    +0.000 C 
ATOM     19  O   UNL     1      49.140   4.669  18.444  0.00  0.00    +0.000 OA
ATOM     20  N   UNL     1      47.520   5.338  17.014  0.00  0.00    +0.000 N 
ATOM     21  H   UNL     1      46.876   6.064  16.733  0.00  0.00    +0.000 HD
BRANCH  18  29
ATOM     22  C   UNL     1      48.165   8.872  17.432  0.00  0.00    +0.000 A 
ATOM     23  N   UNL     1      47.970  10.207  17.427  0.00  0.00    +0.000 NA
ATOM     24  C   UNL     1      47.615  10.796  18.572  0.00  0.00    +0.000 A 
ATOM     25  N   UNL     1      47.435  10.210  19.751  0.00  0.00    +0.000 NA
ATOM     26  C   UNL     1      47.630   8.881  19.713  0.00  0.00    +0.000 A 
ATOM     27  S   UNL     1      47.457   7.970  21.135  0.00  0.00    +0.000 S 
ATOM     28  C   UNL     1      47.800   6.525  20.311  0.00  0.00    +0.000 A 
ATOM     29  C   UNL     1      48.043   6.695  18.952  0.00  0.00    +0.000 A 
ATOM     30  C   UNL     1      47.977   8.115  18.603  0.00  0.00    +0.000 A 
BRANCH  22  32
ATOM     31  C   UNL     1      48.672   9.150  15.150  0.00  0.00    +0.000 C 
ATOM     32  O   UNL     1      48.582   8.267  16.266  0.00  0.00    +0.000 OA
ENDBRANCH  22  32
ENDBRANCH  18  29
ENDBRANCH   1  20
TORSDOF 8
ENDMDL
MODEL 4
REMARK VINA RESULT:    -6.905      1.415      1.969
REMARK INTER + INTRA:         -11.761
REMARK INTER:                 -10.240
REMARK INTRA:                  -1.522
REMARK UNBOUND:                -1.627
REMARK  Name = 
REMARK  10 active torsions:
REMARK  status: ('A' for Active; 'I' for Inactive)
REMARK    1  A    between atoms: C_1  and  O_2
REMARK    2  A    between atoms: O_2  and  C_3
REMARK    3  A    between atoms: C_10  and  C_11
REMARK    4  A    between atoms: N_13  and  C_14
REMARK    5  A    between atoms: C_14  and  C_15
REMARK    6  A    between atoms: C_18  and  C_19
REMARK    7  A    between atoms: C_19  and  N_20
REMARK    8  A    between atoms: N_20  and  C_21
REMARK    9  A    between atoms: N_20  and  C_22
REMARK   10  A    between atoms: C_22  and  C_23
REMARK                            x       y       z     vdW  Elec       q    Type
REMARK                         _______ _______ _______ _____ _____    ______ ____
ROOT
ATOM      1  C   UNL     1      48.979   8.846  13.495  0.00  0.00    +0.000 C 
ENDROOT
BRANCH   1   2
ATOM      2  C   UNL     1      47.766   8.134  12.955  0.00  0.00    +0.000 A 
ATOM      3  C   UNL     1      47.911   6.957  12.209  0.00  0.00    +0.000 A 
ATOM      4  C   UNL     1      46.792   6.307  11.685  0.00  0.00    +0.000 A 
ATOM      5  C   UNL     1      45.506   6.821  11.894  0.00  0.00    +0.000 A 
ATOM      6  C   UNL     1      45.361   8.016  12.613  0.00  0.00    +0.000 A 
ATOM      7  C   UNL     1      46.481   8.667  13.136  0.00  0.00    +0.000 A 
BRANCH   5   8
ATOM      8  C   UNL     1      44.289   6.084  11.371  0.00  0.00    +0.000 C 
BRANCH   8   9
ATOM      9  N   UNL     1      44.489   4.625  11.279  0.00  0.00    +0.000 NA
ATOM     10  C   UNL     1      43.916   3.939  12.446  0.00  0.00    +0.000 C 
BRANCH   9  11
ATOM     11  C   UNL     1      43.867   4.083  10.057  0.00  0.00    +0.000 C 
BRANCH  11  12
ATOM     12  C   UNL     1      44.838   3.431   9.094  0.00  0.00    +0.000 A 
ATOM     13  C   UNL     1      45.582   4.205   8.194  0.00  0.00    +0.000 A 
ATOM     14  C   UNL     1      46.533   3.609   7.364  0.00  0.00    +0.000 A 
ATOM     15  C   UNL     1      46.746   2.233   7.422  0.00  0.00    +0.000 A 
ATOM     16  C   UNL     1      45.992   1.448   8.294  0.00  0.00    +0.000 A 
ATOM     17  C   UNL     1      45.042   2.043   9.126  0.00  0.00    +0.000 A 
ENDBRANCH  11  12
ENDBRANCH   9  11
ENDBRANCH   8   9
ENDBRANCH   5   8
ENDBRANCH   1   2
BRANCH   1  20
ATOM     18  C   UNL     1      50.806   7.778  14.751  0.00  0.00    +0.000 C 
ATOM     19  O   UNL     1      51.614   8.021  13.861  0.00  0.00    +0.000 OA
ATOM     20  N   UNL     1      49.497   8.155  14.647  0.00  0.00    +0.000 N 
ATOM     21  H   UNL     1      48.862   8.007  15.420  0.00  0.00    +0.000 HD
BRANCH  18  29
ATOM     22  C   UNL     1      49.174   5.535  16.801  0.00  0.00    +0.000 A 
ATOM     23  N   UNL     1      48.817   4.593  17.697  0.00  0.00    +0.000 NA
ATOM     24  C   UNL     1      49.725   4.202  18.595  0.00  0.00    +0.000 A 
ATOM     25  N   UNL     1      50.969   4.652  18.724  0.00  0.00    +0.000 NA
ATOM     26  C   UNL     1      51.288   5.582  17.808  0.00  0.00    +0.000 A 
ATOM     27  S   UNL     1      52.835   6.280  17.831  0.00  0.00    +0.000 S 
ATOM     28  C   UNL     1      52.481   7.234  16.471  0.00  0.00    +0.000 A 
ATOM     29  C   UNL     1      51.199   7.043  15.968  0.00  0.00    +0.000 A 
ATOM     30  C   UNL     1      50.472   6.079  16.795  0.00  0.00    +0.000 A 
BRANCH  22  32
ATOM     31  C   UNL     1      47.502   4.936  15.255  0.00  0.00    +0.000 C 
ATOM     32  O   UNL     1      48.225   5.980  15.904  0.00  0.00    +0.000 OA
ENDBRANCH  22  32
ENDBRANCH  18  29
ENDBRANCH   1  20
TORSDOF 8
ENDMDL
MODEL 5
REMARK VINA RESULT:    -6.882      2.602      3.509
REMARK INTER + INTRA:         -11.728
REMARK INTER:                 -10.524
REMARK INTRA:                  -1.204
REMARK UNBOUND:                -1.627
REMARK  Name = 
REMARK  10 active torsions:
REMARK  status: ('A' for Active; 'I' for Inactive)
REMARK    1  A    between atoms: C_1  and  O_2
REMARK    2  A    between atoms: O_2  and  C_3
REMARK    3  A    between atoms: C_10  and  C_11
REMARK    4  A    between atoms: N_13  and  C_14
REMARK    5  A    between atoms: C_14  and  C_15
REMARK    6  A    between atoms: C_18  and  C_19
REMARK    7  A    between atoms: C_19  and  N_20
REMARK    8  A    between atoms: N_20  and  C_21
REMARK    9  A    between atoms: N_20  and  C_22
REMARK   10  A    between atoms: C_22  and  C_23
REMARK                            x       y       z     vdW  Elec       q    Type
REMARK                         _______ _______ _______ _____ _____    ______ ____
ROOT
ATOM      1  C   UNL     1      47.816   4.787  15.967  0.00  0.00    +0.000 C 
ENDROOT
BRANCH   1   2
ATOM      2  C   UNL     1      47.231   4.975  14.591  0.00  0.00    +0.000 A 
ATOM      3  C   UNL     1      46.641   3.895  13.921  0.00  0.00    +0.000 A 
ATOM      4  C   UNL     1      46.120   4.056  12.636  0.00  0.00    +0.000 A 
ATOM      5  C   UNL     1      46.179   5.300  11.994  0.00  0.00    +0.000 A 
ATOM      6  C   UNL     1      46.798   6.374  12.650  0.00  0.00    +0.000 A 
ATOM      7  C   UNL     1      47.320   6.211  13.936  0.00  0.00    +0.000 A 
BRANCH   5   8
ATOM      8  C   UNL     1      45.564   5.487  10.622  0.00  0.00    +0.000 C 
BRANCH   8   9
ATOM      9  N   UNL     1      44.677   4.375  10.227  0.00  0.00    +0.000 NA
ATOM     10  C   UNL     1      43.325   4.558  10.773  0.00  0.00    +0.000 C 
BRANCH   9  11
ATOM     11  C   UNL     1      44.585   4.268   8.760  0.00  0.00    +0.000 C 
BRANCH  11  12
ATOM     12  C   UNL     1      45.537   3.265   8.142  0.00  0.00    +0.000 A 
ATOM     13  C   UNL     1      46.462   3.663   7.166  0.00  0.00    +0.000 A 
ATOM     14  C   UNL     1      47.390   2.753   6.658  0.00  0.00    +0.000 A 
ATOM     15  C   UNL     1      47.400   1.436   7.115  0.00  0.00    +0.000 A 
ATOM     16  C   UNL     1      46.467   1.022   8.064  0.00  0.00    +0.000 A 
ATOM     17  C   UNL     1      45.539   1.931   8.575  0.00  0.00    +0.000 A 
ENDBRANCH  11  12
ENDBRANCH   9  11
ENDBRANCH   8   9
ENDBRANCH   5   8
ENDBRANCH   1   2
BRANCH   1  20
ATOM     18  C   UNL     1      49.506   6.349  16.841  0.00  0.00    +0.000 C 
ATOM     19  O   UNL     1      50.408   5.538  16.656  0.00  0.00    +0.000 OA
ATOM     20  N   UNL     1      48.210   6.055  16.523  0.00  0.00    +0.000 N 
ATOM     21  H   UNL     1      47.492   6.760  16.618  0.00  0.00    +0.000 HD
BRANCH  18  29
ATOM     22  C   UNL     1      48.036   8.129  19.402  0.00  0.00    +0.000 A 
ATOM     23  N   UNL     1      47.721   8.986  20.395  0.00  0.00    +0.000 NA
ATOM     24  C   UNL     1      48.459  10.090  20.533  0.00  0.00    +0.000 A 
ATOM     25  N   UNL     1      49.490  10.463  19.781  0.00  0.00    +0.000 NA
ATOM     26  C   UNL     1      49.778   9.580  18.810  0.00  0.00    +0.000 A 
ATOM     27  S   UNL     1      51.058   9.902  17.743  0.00  0.00    +0.000 S 
ATOM     28  C   UNL     1      50.811   8.434  16.924  0.00  0.00    +0.000 A 
ATOM     29  C   UNL     1      49.769   7.670  17.439  0.00  0.00    +0.000 A 
ATOM     30  C   UNL     1      49.127   8.378  18.548  0.00  0.00    +0.000 A 
BRANCH  22  32
ATOM     31  C   UNL     1      47.509   5.958  20.144  0.00  0.00    +0.000 C 
ATOM     32  O   UNL     1      47.246   7.014  19.222  0.00  0.00    +0.000 OA
ENDBRANCH  22  32
ENDBRANCH  18  29
ENDBRANCH   1  20
TORSDOF 8
ENDMDL
MODEL 6
REMARK VINA RESULT:    -6.718      2.987      5.557
REMARK INTER + INTRA:         -11.486
REMARK INTER:                  -9.687
REMARK INTRA:                  -1.799
REMARK UNBOUND:                -1.627
REMARK  Name = 
REMARK  10 active torsions:
REMARK  status: ('A' for Active; 'I' for Inactive)
REMARK    1  A    between atoms: C_1  and  O_2
REMARK    2  A    between atoms: O_2  and  C_3
REMARK    3  A    between atoms: C_10  and  C_11
REMARK    4  A    between atoms: N_13  and  C_14
REMARK    5  A    between atoms: C_14  and  C_15
REMARK    6  A    between atoms: C_18  and  C_19
REMARK    7  A    between atoms: C_19  and  N_20
REMARK    8  A    between atoms: N_20  and  C_21
REMARK    9  A    between atoms: N_20  and  C_22
REMARK   10  A    between atoms: C_22  and  C_23
REMARK                            x       y       z     vdW  Elec       q    Type
REMARK                         _______ _______ _______ _____ _____    ______ ____
ROOT
ATOM      1  C   UNL     1      47.800   3.307  17.380  0.00  0.00    +0.000 C 
ENDROOT
BRANCH   1   2
ATOM      2  C   UNL     1      47.676   4.212  16.182  0.00  0.00    +0.000 A 
ATOM      3  C   UNL     1      47.002   3.777  15.034  0.00  0.00    +0.000 A 
ATOM      4  C   UNL     1      46.907   4.601  13.912  0.00  0.00    +0.000 A 
ATOM      5  C   UNL     1      47.484   5.878  13.914  0.00  0.00    +0.000 A 
ATOM      6  C   UNL     1      48.187   6.303  15.050  0.00  0.00    +0.000 A 
ATOM      7  C   UNL     1      48.284   5.476  16.172  0.00  0.00    +0.000 A 
BRANCH   5   8
ATOM      8  C   UNL     1      47.332   6.793  12.715  0.00  0.00    +0.000 C 
BRANCH   8   9
ATOM      9  N   UNL     1      46.029   7.484  12.674  0.00  0.00    +0.000 NA
ATOM     10  C   UNL     1      46.204   8.943  12.690  0.00  0.00    +0.000 C 
BRANCH   9  11
ATOM     11  C   UNL     1      45.271   7.111  11.465  0.00  0.00    +0.000 C 
BRANCH  11  12
ATOM     12  C   UNL     1      44.632   5.739  11.523  0.00  0.00    +0.000 A 
ATOM     13  C   UNL     1      44.987   4.744  10.602  0.00  0.00    +0.000 A 
ATOM     14  C   UNL     1      44.456   3.458  10.709  0.00  0.00    +0.000 A 
ATOM     15  C   UNL     1      43.559   3.155  11.732  0.00  0.00    +0.000 A 
ATOM     16  C   UNL     1      43.176   4.144  12.637  0.00  0.00    +0.000 A 
ATOM     17  C   UNL     1      43.709   5.430  12.534  0.00  0.00    +0.000 A 
ENDBRANCH  11  12
ENDBRANCH   9  11
ENDBRANCH   8   9
ENDBRANCH   5   8
ENDBRANCH   1   2
BRANCH   1  20
ATOM     18  C   UNL     1      50.022   2.306  17.034  0.00  0.00    +0.000 C 
ATOM     19  O   UNL     1      49.632   1.682  16.052  0.00  0.00    +0.000 OA
ATOM     20  N   UNL     1      49.184   3.127  17.734  0.00  0.00    +0.000 N 
ATOM     21  H   UNL     1      49.541   3.686  18.497  0.00  0.00    +0.000 HD
BRANCH  18  29
ATOM     22  C   UNL     1      52.263   4.541  18.401  0.00  0.00    +0.000 A 
ATOM     23  N   UNL     1      53.283   5.163  19.028  0.00  0.00    +0.000 NA
ATOM     24  C   UNL     1      54.355   4.439  19.359  0.00  0.00    +0.000 A 
ATOM     25  N   UNL     1      54.548   3.144  19.127  0.00  0.00    +0.000 NA
ATOM     26  C   UNL     1      53.508   2.560  18.509  0.00  0.00    +0.000 A 
ATOM     27  S   UNL     1      53.587   0.909  18.120  0.00  0.00    +0.000 S 
ATOM     28  C   UNL     1      52.022   0.938  17.460  0.00  0.00    +0.000 A 
ATOM     29  C   UNL     1      51.406   2.183  17.524  0.00  0.00    +0.000 A 
ATOM     30  C   UNL     1      52.315   3.163  18.121  0.00  0.00    +0.000 A 
BRANCH  22  32
ATOM     31  C   UNL     1      50.588   6.057  19.062  0.00  0.00    +0.000 C 
ATOM     32  O   UNL     1      51.177   5.295  18.011  0.00  0.00    +0.000 OA
ENDBRANCH  22  32
ENDBRANCH  18  29
ENDBRANCH   1  20
TORSDOF 8
ENDMDL
MODEL 7
REMARK VINA RESULT:    -6.637      3.466      8.869
REMARK INTER + INTRA:         -11.367
REMARK INTER:                  -9.099
REMARK INTRA:                  -2.268
REMARK UNBOUND:                -1.627
REMARK  Name = 
REMARK  10 active torsions:
REMARK  status: ('A' for Active; 'I' for Inactive)
REMARK    1  A    between atoms: C_1  and  O_2
REMARK    2  A    between atoms: O_2  and  C_3
REMARK    3  A    between atoms: C_10  and  C_11
REMARK    4  A    between atoms: N_13  and  C_14
REMARK    5  A    between atoms: C_14  and  C_15
REMARK    6  A    between atoms: C_18  and  C_19
REMARK    7  A    between atoms: C_19  and  N_20
REMARK    8  A    between atoms: N_20  and  C_21
REMARK    9  A    between atoms: N_20  and  C_22
REMARK   10  A    between atoms: C_22  and  C_23
REMARK                            x       y       z     vdW  Elec       q    Type
REMARK                         _______ _______ _______ _____ _____    ______ ____
ROOT
ATOM      1  C   UNL     1      47.139   3.403  16.907  0.00  0.00    +0.000 C 
ENDROOT
BRANCH   1   2
ATOM      2  C   UNL     1      48.439   3.758  17.579  0.00  0.00    +0.000 A 
ATOM      3  C   UNL     1      49.641   3.189  17.137  0.00  0.00    +0.000 A 
ATOM      4  C   UNL     1      50.846   3.494  17.772  0.00  0.00    +0.000 A 
ATOM      5  C   UNL     1      50.875   4.373  18.863  0.00  0.00    +0.000 A 
ATOM      6  C   UNL     1      49.669   4.917  19.327  0.00  0.00    +0.000 A 
ATOM      7  C   UNL     1      48.463   4.611  18.692  0.00  0.00    +0.000 A 
BRANCH   5   8
ATOM      8  C   UNL     1      52.190   4.745  19.517  0.00  0.00    +0.000 C 
BRANCH   8   9
ATOM      9  N   UNL     1      52.372   6.202  19.668  0.00  0.00    +0.000 NA
ATOM     10  C   UNL     1      53.385   6.506  20.688  0.00  0.00    +0.000 C 
BRANCH   9  11
ATOM     11  C   UNL     1      52.783   6.817  18.392  0.00  0.00    +0.000 C 
BRANCH  11  12
ATOM     12  C   UNL     1      51.636   7.289  17.523  0.00  0.00    +0.000 A 
ATOM     13  C   UNL     1      51.507   6.837  16.202  0.00  0.00    +0.000 A 
ATOM     14  C   UNL     1      50.405   7.210  15.431  0.00  0.00    +0.000 A 
ATOM     15  C   UNL     1      49.425   8.042  15.969  0.00  0.00    +0.000 A 
ATOM     16  C   UNL     1      49.557   8.520  17.272  0.00  0.00    +0.000 A 
ATOM     17  C   UNL     1      50.657   8.146  18.046  0.00  0.00    +0.000 A 
ENDBRANCH  11  12
ENDBRANCH   9  11
ENDBRANCH   8   9
ENDBRANCH   5   8
ENDBRANCH   1   2
BRANCH   1  20
ATOM     18  C   UNL     1      46.910   4.137  14.568  0.00  0.00    +0.000 C 
ATOM     19  O   UNL     1      47.291   3.050  14.148  0.00  0.00    +0.000 OA
ATOM     20  N   UNL     1      46.804   4.385  15.908  0.00  0.00    +0.000 N 
ATOM     21  H   UNL     1      46.423   5.263  16.234  0.00  0.00    +0.000 HD
BRANCH  18  29
ATOM     22  C   UNL     1      44.105   4.909  12.716  0.00  0.00    +0.000 A 
ATOM     23  N   UNL     1      43.135   5.488  11.979  0.00  0.00    +0.000 NA
ATOM     24  C   UNL     1      43.395   6.667  11.411  0.00  0.00    +0.000 A 
ATOM     25  N   UNL     1      44.531   7.355  11.476  0.00  0.00    +0.000 NA
ATOM     26  C   UNL     1      45.468   6.750  12.226  0.00  0.00    +0.000 A 
ATOM     27  S   UNL     1      46.990   7.479  12.408  0.00  0.00    +0.000 S 
ATOM     28  C   UNL     1      47.524   6.227  13.424  0.00  0.00    +0.000 A 
ATOM     29  C   UNL     1      46.571   5.241  13.652  0.00  0.00    +0.000 A 
ATOM     30  C   UNL     1      45.350   5.539  12.902  0.00  0.00    +0.000 A 
BRANCH  22  32
ATOM     31  C   UNL     1      43.543   2.660  12.304  0.00  0.00    +0.000 C 
ATOM     32  O   UNL     1      43.861   3.667  13.263  0.00  0.00    +0.000 OA
ENDBRANCH  22  32
ENDBRANCH  18  29
ENDBRANCH   1  20
TORSDOF 8
ENDMDL
MODEL 8
REMARK VINA RESULT:    -6.594      3.419      8.956
REMARK INTER + INTRA:         -11.304
REMARK INTER:                  -9.945
REMARK INTRA:                  -1.359
REMARK UNBOUND:                -1.627
REMARK  Name = 
REMARK  10 active torsions:
REMARK  status: ('A' for Active; 'I' for Inactive)
REMARK    1  A    between atoms: C_1  and  O_2
REMARK    2  A    between atoms: O_2  and  C_3
REMARK    3  A    between atoms: C_10  and  C_11
REMARK    4  A    between atoms: N_13  and  C_14
REMARK    5  A    between atoms: C_14  and  C_15
REMARK    6  A    between atoms: C_18  and  C_19
REMARK    7  A    between atoms: C_19  and  N_20
REMARK    8  A    between atoms: N_20  and  C_21
REMARK    9  A    between atoms: N_20  and  C_22
REMARK   10  A    between atoms: C_22  and  C_23
REMARK                            x       y       z     vdW  Elec       q    Type
REMARK                         _______ _______ _______ _____ _____    ______ ____
ROOT
ATOM      1  C   UNL     1      47.292   3.349  17.082  0.00  0.00    +0.000 C 
ENDROOT
BRANCH   1   2
ATOM      2  C   UNL     1      48.778   3.233  17.300  0.00  0.00    +0.000 A 
ATOM      3  C   UNL     1      49.456   2.059  16.944  0.00  0.00    +0.000 A 
ATOM      4  C   UNL     1      50.827   1.936  17.168  0.00  0.00    +0.000 A 
ATOM      5  C   UNL     1      51.551   2.983  17.754  0.00  0.00    +0.000 A 
ATOM      6  C   UNL     1      50.869   4.145  18.142  0.00  0.00    +0.000 A 
ATOM      7  C   UNL     1      49.496   4.267  17.919  0.00  0.00    +0.000 A 
BRANCH   5   8
ATOM      8  C   UNL     1      53.050   2.868  17.946  0.00  0.00    +0.000 C 
BRANCH   8   9
ATOM      9  N   UNL     1      53.605   3.922  18.819  0.00  0.00    +0.000 NA
ATOM     10  C   UNL     1      53.953   3.383  20.141  0.00  0.00    +0.000 C 
BRANCH   9  11
ATOM     11  C   UNL     1      54.811   4.522  18.218  0.00  0.00    +0.000 C 
BRANCH  11  12
ATOM     12  C   UNL     1      54.543   5.395  17.010  0.00  0.00    +0.000 A 
ATOM     13  C   UNL     1      53.519   6.352  17.031  0.00  0.00    +0.000 A 
ATOM     14  C   UNL     1      53.328   7.208  15.945  0.00  0.00    +0.000 A 
ATOM     15  C   UNL     1      54.153   7.112  14.826  0.00  0.00    +0.000 A 
ATOM     16  C   UNL     1      55.157   6.145  14.782  0.00  0.00    +0.000 A 
ATOM     17  C   UNL     1      55.351   5.290  15.868  0.00  0.00    +0.000 A 
ENDBRANCH  11  12
ENDBRANCH   9  11
ENDBRANCH   8   9
ENDBRANCH   5   8
ENDBRANCH   1   2
BRANCH   1  20
ATOM     18  C   UNL     1      47.071   4.169  14.771  0.00  0.00    +0.000 C 
ATOM     19  O   UNL     1      47.374   3.073  14.311  0.00  0.00    +0.000 OA
ATOM     20  N   UNL     1      47.004   4.381  16.120  0.00  0.00    +0.000 N 
ATOM     21  H   UNL     1      46.685   5.270  16.479  0.00  0.00    +0.000 HD
BRANCH  18  29
ATOM     22  C   UNL     1      44.541   4.890  12.542  0.00  0.00    +0.000 A 
ATOM     23  N   UNL     1      43.654   5.457  11.699  0.00  0.00    +0.000 NA
ATOM     24  C   UNL     1      43.897   6.697  11.270  0.00  0.00    +0.000 A 
ATOM     25  N   UNL     1      44.944   7.458  11.573  0.00  0.00    +0.000 NA
ATOM     26  C   UNL     1      45.799   6.862  12.421  0.00  0.00    +0.000 A 
ATOM     27  S   UNL     1      47.203   7.683  12.906  0.00  0.00    +0.000 S 
ATOM     28  C   UNL     1      47.676   6.390  13.902  0.00  0.00    +0.000 A 
ATOM     29  C   UNL     1      46.788   5.320  13.896  0.00  0.00    +0.000 A 
ATOM     30  C   UNL     1      45.680   5.591  12.977  0.00  0.00    +0.000 A 
BRANCH  22  32
ATOM     31  C   UNL     1      43.457   2.849  12.088  0.00  0.00    +0.000 C 
ATOM     32  O   UNL     1      44.321   3.590  12.947  0.00  0.00    +0.000 OA
ENDBRANCH  22  32
ENDBRANCH  18  29
ENDBRANCH   1  20
TORSDOF 8
ENDMDL
MODEL 9
REMARK VINA RESULT:    -6.387      4.009      9.129
REMARK INTER + INTRA:         -11.000
REMARK INTER:                  -9.678
REMARK INTRA:                  -1.322
REMARK UNBOUND:                -1.627
REMARK  Name = 
REMARK  10 active torsions:
REMARK  status: ('A' for Active; 'I' for Inactive)
REMARK    1  A    between atoms: C_1  and  O_2
REMARK    2  A    between atoms: O_2  and  C_3
REMARK    3  A    between atoms: C_10  and  C_11
REMARK    4  A    between atoms: N_13  and  C_14
REMARK    5  A    between atoms: C_14  and  C_15
REMARK    6  A    between atoms: C_18  and  C_19
REMARK    7  A    between atoms: C_19  and  N_20
REMARK    8  A    between atoms: N_20  and  C_21
REMARK    9  A    between atoms: N_20  and  C_22
REMARK   10  A    between atoms: C_22  and  C_23
REMARK                            x       y       z     vdW  Elec       q    Type
REMARK                         _______ _______ _______ _____ _____    ______ ____
ROOT
ATOM      1  C   UNL     1      47.305   3.461  17.170  0.00  0.00    +0.000 C 
ENDROOT
BRANCH   1   2
ATOM      2  C   UNL     1      48.678   3.696  17.743  0.00  0.00    +0.000 A 
ATOM      3  C   UNL     1      48.862   4.621  18.779  0.00  0.00    +0.000 A 
ATOM      4  C   UNL     1      50.135   4.863  19.297  0.00  0.00    +0.000 A 
ATOM      5  C   UNL     1      51.252   4.186  18.789  0.00  0.00    +0.000 A 
ATOM      6  C   UNL     1      51.074   3.284  17.730  0.00  0.00    +0.000 A 
ATOM      7  C   UNL     1      49.800   3.044  17.211  0.00  0.00    +0.000 A 
BRANCH   5   8
ATOM      8  C   UNL     1      52.625   4.409  19.389  0.00  0.00    +0.000 C 
BRANCH   8   9
ATOM      9  N   UNL     1      53.709   4.373  18.388  0.00  0.00    +0.000 NA
ATOM     10  C   UNL     1      54.327   5.697  18.231  0.00  0.00    +0.000 C 
BRANCH   9  11
ATOM     11  C   UNL     1      54.752   3.405  18.774  0.00  0.00    +0.000 C 
BRANCH  11  12
ATOM     12  C   UNL     1      54.787   2.148  17.930  0.00  0.00    +0.000 A 
ATOM     13  C   UNL     1      53.947   1.065  18.224  0.00  0.00    +0.000 A 
ATOM     14  C   UNL     1      53.924  -0.059  17.397  0.00  0.00    +0.000 A 
ATOM     15  C   UNL     1      54.744  -0.114  16.271  0.00  0.00    +0.000 A 
ATOM     16  C   UNL     1      55.604   0.945  15.983  0.00  0.00    +0.000 A 
ATOM     17  C   UNL     1      55.626   2.070  16.808  0.00  0.00    +0.000 A 
ENDBRANCH  11  12
ENDBRANCH   9  11
ENDBRANCH   8   9
ENDBRANCH   5   8
ENDBRANCH   1   2
BRANCH   1  20
ATOM     18  C   UNL     1      47.104   4.200  14.830  0.00  0.00    +0.000 C 
ATOM     19  O   UNL     1      47.457   3.102  14.412  0.00  0.00    +0.000 OA
ATOM     20  N   UNL     1      47.001   4.451  16.170  0.00  0.00    +0.000 N 
ATOM     21  H   UNL     1      46.642   5.339  16.494  0.00  0.00    +0.000 HD
BRANCH  18  29
ATOM     22  C   UNL     1      44.464   4.877  12.718  0.00  0.00    +0.000 A 
ATOM     23  N   UNL     1      43.542   5.426  11.900  0.00  0.00    +0.000 NA
ATOM     24  C   UNL     1      43.792   6.635  11.392  0.00  0.00    +0.000 A 
ATOM     25  N   UNL     1      44.874   7.380  11.592  0.00  0.00    +0.000 NA
ATOM     26  C   UNL     1      45.763   6.803  12.419  0.00  0.00    +0.000 A 
ATOM     27  S   UNL     1      47.215   7.607  12.776  0.00  0.00    +0.000 S 
ATOM     28  C   UNL     1      47.713   6.354  13.809  0.00  0.00    +0.000 A 
ATOM     29  C   UNL     1      46.799   5.312  13.913  0.00  0.00    +0.000 A 
ATOM     30  C   UNL     1      45.645   5.567  13.048  0.00  0.00    +0.000 A 
BRANCH  22  32
ATOM     31  C   UNL     1      43.542   2.752  12.298  0.00  0.00    +0.000 C 
ATOM     32  O   UNL     1      44.235   3.607  13.204  0.00  0.00    +0.000 OA
ENDBRANCH  22  32
ENDBRANCH  18  29
ENDBRANCH   1  20
TORSDOF 8
ENDMDL
