MODEL 1
REMARK VINA RESULT:    -8.072      0.000      0.000
REMARK INTER + INTRA:         -13.972
REMARK INTER:                 -12.319
REMARK INTRA:                  -1.653
REMARK UNBOUND:                -1.653
REMARK  Name = 
REMARK  13 active torsions:
REMARK  status: ('A' for Active; 'I' for Inactive)
REMARK    1  A    between atoms: C_1  and  N_2
REMARK    2  A    between atoms: N_2  and  C_3
REMARK    3  A    between atoms: N_2  and  C_4
REMARK    4  A    between atoms: C_4  and  C_5
REMARK    5  A    between atoms: C_6  and  C_7
REMARK    6  A    between atoms: C_9  and  C_10
REMARK    7  A    between atoms: C_16  and  O_17
REMARK    8  A    between atoms: O_17  and  C_18
REMARK    9  A    between atoms: C_18  and  C_19
REMARK   10  A    between atoms: C_19  and  C_20
REMARK   11  A    between atoms: C_19  and  C_21
REMARK   12  A    between atoms: C_19  and  C_22
REMARK   13  A    between atoms: C_25  and  C_26
REMARK                            x       y       z     vdW  Elec       q    Type
REMARK                         _______ _______ _______ _____ _____    ______ ____
ROOT
ATOM      1  C   UNL     1      47.361   5.778  13.685  0.00  0.00    +0.000 A 
ATOM      2  C   UNL     1      48.572   6.457  13.464  0.00  0.00    +0.000 A 
ATOM      3  C   UNL     1      48.773   7.254  12.332  0.00  0.00    +0.000 A 
ATOM      4  C   UNL     1      47.735   7.363  11.402  0.00  0.00    +0.000 A 
ATOM      5  C   UNL     1      46.530   6.679  11.607  0.00  0.00    +0.000 A 
ATOM      6  C   UNL     1      46.326   5.875  12.741  0.00  0.00    +0.000 A 
ENDROOT
BRANCH   3   7
ATOM      7  C   UNL     1      50.075   7.985  12.130  0.00  0.00    +0.000 C 
ATOM      8  F   UNL     1      50.878   7.411  11.189  0.00  0.00    +0.000 F 
ATOM      9  F   UNL     1      49.894   9.273  11.727  0.00  0.00    +0.000 F 
ATOM     10  F   UNL     1      50.822   8.047  13.266  0.00  0.00    +0.000 F 
ENDBRANCH   3   7
BRANCH   1  12
ATOM     11  C   UNL     1      47.286   4.381  15.919  0.00  0.00    +0.000 C 
ATOM     12  C   UNL     1      47.298   5.043  14.918  0.00  0.00    +0.000 C 
BRANCH  11  13
ATOM     13  C   UNL     1      47.346   3.571  17.144  0.00  0.00    +0.000 C 
BRANCH  13  15
ATOM     14  C   UNL     1      49.242   2.131  16.615  0.00  0.00    +0.000 C 
ATOM     15  N   UNL     1      48.692   3.132  17.526  0.00  0.00    +0.000 NA
ATOM     16  C   UNL     1      49.608   4.254  17.703  0.00  0.00    +0.000 C 
ENDBRANCH  13  15
ENDBRANCH  11  13
ENDBRANCH   1  12
BRANCH   6  17
ATOM     17  O   UNL     1      45.086   5.284  12.742  0.00  0.00    +0.000 OA
BRANCH  17  18
ATOM     18  C   UNL     1      44.988   3.903  12.394  0.00  0.00    +0.000 C 
BRANCH  18  19
ATOM     19  C   UNL     1      44.098   3.657  11.141  0.00  0.00    +0.000 C 
ATOM     20  C   UNL     1      43.164   2.465  11.438  0.00  0.00    +0.000 C 
ATOM     21  C   UNL     1      43.243   4.940  10.974  0.00  0.00    +0.000 C 
BRANCH  19  22
ATOM     22  C   UNL     1      44.888   3.416   9.839  0.00  0.00    +0.000 A 
ATOM     23  C   UNL     1      45.207   2.128   9.378  0.00  0.00    +0.000 A 
ATOM     24  C   UNL     1      45.954   1.932   8.214  0.00  0.00    +0.000 A 
ATOM     25  C   UNL     1      46.404   3.023   7.471  0.00  0.00    +0.000 A 
ATOM     26  C   UNL     1      46.102   4.315   7.907  0.00  0.00    +0.000 A 
ATOM     27  C   UNL     1      45.349   4.505   9.074  0.00  0.00    +0.000 A 
BRANCH  25  28
ATOM     28  C   UNL     1      47.224   2.759   6.261  0.00  0.00    +0.000 C 
ATOM     29  N   UNL     1      48.542   2.452   6.444  0.00  0.00    +0.000 N 
ATOM     30  O   UNL     1      46.747   2.835   5.135  0.00  0.00    +0.000 OA
ATOM     31  H   UNL     1      49.015   2.528   7.331  0.00  0.00    +0.000 HD
ATOM     32  H   UNL     1      49.103   2.352   5.608  0.00  0.00    +0.000 HD
ENDBRANCH  25  28
ENDBRANCH  19  22
ENDBRANCH  18  19
ENDBRANCH  17  18
ENDBRANCH   6  17
TORSDOF 9
ENDMDL
MODEL 2
REMARK VINA RESULT:    -7.037      2.866      4.602
REMARK INTER + INTRA:         -12.392
REMARK INTER:                 -10.979
REMARK INTRA:                  -1.412
REMARK UNBOUND:                -1.653
REMARK  Name = 
REMARK  13 active torsions:
REMARK  status: ('A' for Active; 'I' for Inactive)
REMARK    1  A    between atoms: C_1  and  N_2
REMARK    2  A    between atoms: N_2  and  C_3
REMARK    3  A    between atoms: N_2  and  C_4
REMARK    4  A    between atoms: C_4  and  C_5
REMARK    5  A    between atoms: C_6  and  C_7
REMARK    6  A    between atoms: C_9  and  C_10
REMARK    7  A    between atoms: C_16  and  O_17
REMARK    8  A    between atoms: O_17  and  C_18
REMARK    9  A    between atoms: C_18  and  C_19
REMARK   10  A    between atoms: C_19  and  C_20
REMARK   11  A    between atoms: C_19  and  C_21
REMARK   12  A    between atoms: C_19  and  C_22
REMARK   13  A    between atoms: C_25  and  C_26
REMARK                            x       y       z     vdW  Elec       q    Type
REMARK                         _______ _______ _______ _____ _____    ______ ____
ROOT
ATOM      1  C   UNL     1      47.912   6.225  13.935  0.00  0.00    +0.000 A 
ATOM      2  C   UNL     1      48.432   6.307  15.239  0.00  0.00    +0.000 A 
ATOM      3  C   UNL     1      48.154   5.333  16.204  0.00  0.00    +0.000 A 
ATOM      4  C   UNL     1      47.329   4.261  15.850  0.00  0.00    +0.000 A 
ATOM      5  C   UNL     1      46.796   4.179  14.559  0.00  0.00    +0.000 A 
ATOM      6  C   UNL     1      47.070   5.157  13.587  0.00  0.00    +0.000 A 
ENDROOT
BRANCH   3   7
ATOM      7  C   UNL     1      48.740   5.437  17.589  0.00  0.00    +0.000 C 
ATOM      8  F   UNL     1      49.485   6.562  17.779  0.00  0.00    +0.000 F 
ATOM      9  F   UNL     1      47.785   5.456  18.560  0.00  0.00    +0.000 F 
ATOM     10  F   UNL     1      49.561   4.393  17.888  0.00  0.00    +0.000 F 
ENDBRANCH   3   7
BRANCH   1  12
ATOM     11  C   UNL     1      48.618   8.168  12.299  0.00  0.00    +0.000 C 
ATOM     12  C   UNL     1      48.332   7.277  13.052  0.00  0.00    +0.000 C 
BRANCH  11  13
ATOM     13  C   UNL     1      48.921   9.303  11.416  0.00  0.00    +0.000 C 
BRANCH  13  15
ATOM     14  C   UNL     1      46.825  10.482  11.820  0.00  0.00    +0.000 C 
ATOM     15  N   UNL     1      48.283  10.567  11.797  0.00  0.00    +0.000 NA
ATOM     16  C   UNL     1      48.807  11.091  13.054  0.00  0.00    +0.000 C 
ENDBRANCH  13  15
ENDBRANCH  11  13
ENDBRANCH   1  12
BRANCH   6  17
ATOM     17  O   UNL     1      46.439   4.896  12.395  0.00  0.00    +0.000 OA
BRANCH  17  18
ATOM     18  C   UNL     1      45.125   5.414  12.192  0.00  0.00    +0.000 C 
BRANCH  18  19
ATOM     19  C   UNL     1      44.217   4.454  11.369  0.00  0.00    +0.000 C 
ATOM     20  C   UNL     1      43.761   3.307  12.296  0.00  0.00    +0.000 C 
ATOM     21  C   UNL     1      42.979   5.295  10.960  0.00  0.00    +0.000 C 
BRANCH  19  22
ATOM     22  C   UNL     1      44.876   3.892  10.094  0.00  0.00    +0.000 A 
ATOM     23  C   UNL     1      44.996   2.514   9.852  0.00  0.00    +0.000 A 
ATOM     24  C   UNL     1      45.629   2.025   8.706  0.00  0.00    +0.000 A 
ATOM     25  C   UNL     1      46.161   2.904   7.764  0.00  0.00    +0.000 A 
ATOM     26  C   UNL     1      46.057   4.281   7.980  0.00  0.00    +0.000 A 
ATOM     27  C   UNL     1      45.418   4.765   9.129  0.00  0.00    +0.000 A 
BRANCH  25  28
ATOM     28  C   UNL     1      46.854   2.331   6.582  0.00  0.00    +0.000 C 
ATOM     29  N   UNL     1      47.149   3.176   5.549  0.00  0.00    +0.000 N 
ATOM     30  O   UNL     1      47.132   1.140   6.517  0.00  0.00    +0.000 OA
ATOM     31  H   UNL     1      46.806   4.122   5.487  0.00  0.00    +0.000 HD
ATOM     32  H   UNL     1      47.549   2.755   4.721  0.00  0.00    +0.000 HD
ENDBRANCH  25  28
ENDBRANCH  19  22
ENDBRANCH  18  19
ENDBRANCH  17  18
ENDBRANCH   6  17
TORSDOF 9
ENDMDL
MODEL 3
REMARK VINA RESULT:    -6.670      4.375      7.218
REMARK INTER + INTRA:         -11.831
REMARK INTER:                  -9.975
REMARK INTRA:                  -1.857
REMARK UNBOUND:                -1.653
REMARK  Name = 
REMARK  13 active torsions:
REMARK  status: ('A' for Active; 'I' for Inactive)
REMARK    1  A    between atoms: C_1  and  N_2
REMARK    2  A    between atoms: N_2  and  C_3
REMARK    3  A    between atoms: N_2  and  C_4
REMARK    4  A    between atoms: C_4  and  C_5
REMARK    5  A    between atoms: C_6  and  C_7
REMARK    6  A    between atoms: C_9  and  C_10
REMARK    7  A    between atoms: C_16  and  O_17
REMARK    8  A    between atoms: O_17  and  C_18
REMARK    9  A    between atoms: C_18  and  C_19
REMARK   10  A    between atoms: C_19  and  C_20
REMARK   11  A    between atoms: C_19  and  C_21
REMARK   12  A    between atoms: C_19  and  C_22
REMARK   13  A    between atoms: C_25  and  C_26
REMARK                            x       y       z     vdW  Elec       q    Type
REMARK                         _______ _______ _______ _____ _____    ______ ____
ROOT
ATOM      1  C   UNL     1      47.330   5.341  14.438  0.00  0.00    +0.000 A 
ATOM      2  C   UNL     1      47.242   4.360  15.442  0.00  0.00    +0.000 A 
ATOM      3  C   UNL     1      48.027   4.418  16.598  0.00  0.00    +0.000 A 
ATOM      4  C   UNL     1      48.924   5.481  16.742  0.00  0.00    +0.000 A 
ATOM      5  C   UNL     1      49.028   6.455  15.741  0.00  0.00    +0.000 A 
ATOM      6  C   UNL     1      48.243   6.398  14.577  0.00  0.00    +0.000 A 
ENDROOT
BRANCH   3   7
ATOM      7  C   UNL     1      47.899   3.362  17.666  0.00  0.00    +0.000 C 
ATOM      8  F   UNL     1      46.728   2.669  17.605  0.00  0.00    +0.000 F 
ATOM      9  F   UNL     1      48.887   2.428  17.597  0.00  0.00    +0.000 F 
ATOM     10  F   UNL     1      47.958   3.881  18.924  0.00  0.00    +0.000 F 
ENDBRANCH   3   7
BRANCH   1  12
ATOM     11  C   UNL     1      45.712   5.032  12.380  0.00  0.00    +0.000 C 
ATOM     12  C   UNL     1      46.421   5.162  13.340  0.00  0.00    +0.000 C 
BRANCH  11  13
ATOM     13  C   UNL     1      44.896   4.825  11.175  0.00  0.00    +0.000 C 
BRANCH  13  15
ATOM     14  C   UNL     1      43.560   3.081  12.233  0.00  0.00    +0.000 C 
ATOM     15  N   UNL     1      43.551   4.298  11.426  0.00  0.00    +0.000 NA
ATOM     16  C   UNL     1      42.660   5.307  11.991  0.00  0.00    +0.000 C 
ENDBRANCH  13  15
ENDBRANCH  11  13
ENDBRANCH   1  12
BRANCH   6  17
ATOM     17  O   UNL     1      48.509   7.438  13.720  0.00  0.00    +0.000 OA
BRANCH  17  18
ATOM     18  C   UNL     1      47.911   8.708  13.983  0.00  0.00    +0.000 C 
BRANCH  18  19
ATOM     19  C   UNL     1      47.846   9.619  12.722  0.00  0.00    +0.000 C 
ATOM     20  C   UNL     1      48.390  11.011  13.104  0.00  0.00    +0.000 C 
ATOM     21  C   UNL     1      48.801   8.970  11.686  0.00  0.00    +0.000 C 
BRANCH  19  22
ATOM     22  C   UNL     1      46.443   9.737  12.095  0.00  0.00    +0.000 A 
ATOM     23  C   UNL     1      45.917  10.961  11.649  0.00  0.00    +0.000 A 
ATOM     24  C   UNL     1      44.629  11.053  11.115  0.00  0.00    +0.000 A 
ATOM     25  C   UNL     1      43.826   9.918  11.011  0.00  0.00    +0.000 A 
ATOM     26  C   UNL     1      44.323   8.688  11.448  0.00  0.00    +0.000 A 
ATOM     27  C   UNL     1      45.617   8.602  11.978  0.00  0.00    +0.000 A 
BRANCH  25  28
ATOM     28  C   UNL     1      42.452  10.078  10.469  0.00  0.00    +0.000 C 
ATOM     29  N   UNL     1      41.439   9.420  11.108  0.00  0.00    +0.000 N 
ATOM     30  O   UNL     1      42.231  10.754   9.471  0.00  0.00    +0.000 OA
ATOM     31  H   UNL     1      41.588   8.734  11.831  0.00  0.00    +0.000 HD
ATOM     32  H   UNL     1      40.524   9.477  10.680  0.00  0.00    +0.000 HD
ENDBRANCH  25  28
ENDBRANCH  19  22
ENDBRANCH  18  19
ENDBRANCH  17  18
ENDBRANCH   6  17
TORSDOF 9
ENDMDL
MODEL 4
REMARK VINA RESULT:    -6.500      4.138      8.347
REMARK INTER + INTRA:         -11.572
REMARK INTER:                 -10.364
REMARK INTRA:                  -1.208
REMARK UNBOUND:                -1.653
REMARK  Name = 
REMARK  13 active torsions:
REMARK  status: ('A' for Active; 'I' for Inactive)
REMARK    1  A    between atoms: C_1  and  N_2
REMARK    2  A    between atoms: N_2  and  C_3
REMARK    3  A    between atoms: N_2  and  C_4
REMARK    4  A    between atoms: C_4  and  C_5
REMARK    5  A    between atoms: C_6  and  C_7
REMARK    6  A    between atoms: C_9  and  C_10
REMARK    7  A    between atoms: C_16  and  O_17
REMARK    8  A    between atoms: O_17  and  C_18
REMARK    9  A    between atoms: C_18  and  C_19
REMARK   10  A    between atoms: C_19  and  C_20
REMARK   11  A    between atoms: C_19  and  C_21
REMARK   12  A    between atoms: C_19  and  C_22
REMARK   13  A    between atoms: C_25  and  C_26
REMARK                            x       y       z     vdW  Elec       q    Type
REMARK                         _______ _______ _______ _____ _____    ______ ____
ROOT
ATOM      1  C   UNL     1      46.822   6.091  12.454  0.00  0.00    +0.000 A 
ATOM      2  C   UNL     1      45.923   5.771  11.421  0.00  0.00    +0.000 A 
ATOM      3  C   UNL     1      45.202   4.572  11.418  0.00  0.00    +0.000 A 
ATOM      4  C   UNL     1      45.398   3.675  12.471  0.00  0.00    +0.000 A 
ATOM      5  C   UNL     1      46.302   3.978  13.497  0.00  0.00    +0.000 A 
ATOM      6  C   UNL     1      47.029   5.180  13.502  0.00  0.00    +0.000 A 
ENDROOT
BRANCH   3   7
ATOM      7  C   UNL     1      44.231   4.264  10.307  0.00  0.00    +0.000 C 
ATOM      8  F   UNL     1      44.766   4.416   9.063  0.00  0.00    +0.000 F 
ATOM      9  F   UNL     1      43.768   2.985  10.358  0.00  0.00    +0.000 F 
ATOM     10  F   UNL     1      43.131   5.065  10.338  0.00  0.00    +0.000 F 
ENDBRANCH   3   7
BRANCH   1  12
ATOM     11  C   UNL     1      47.933   8.464  12.174  0.00  0.00    +0.000 C 
ATOM     12  C   UNL     1      47.444   7.380  12.335  0.00  0.00    +0.000 C 
BRANCH  11  13
ATOM     13  C   UNL     1      48.464   9.819  11.964  0.00  0.00    +0.000 C 
BRANCH  13  15
ATOM     14  C   UNL     1      50.578  11.006  12.229  0.00  0.00    +0.000 C 
ATOM     15  N   UNL     1      49.542  10.206  12.879  0.00  0.00    +0.000 NA
ATOM     16  C   UNL     1      49.037  10.862  14.081  0.00  0.00    +0.000 C 
ENDBRANCH  13  15
ENDBRANCH  11  13
ENDBRANCH   1  12
BRANCH   6  17
ATOM     17  O   UNL     1      47.868   5.274  14.586  0.00  0.00    +0.000 OA
BRANCH  17  18
ATOM     18  C   UNL     1      47.504   4.599  15.790  0.00  0.00    +0.000 C 
BRANCH  18  19
ATOM     19  C   UNL     1      48.393   5.003  17.003  0.00  0.00    +0.000 C 
ATOM     20  C   UNL     1      48.919   6.434  16.762  0.00  0.00    +0.000 C 
ATOM     21  C   UNL     1      47.446   5.013  18.232  0.00  0.00    +0.000 C 
BRANCH  19  22
ATOM     22  C   UNL     1      49.560   4.036  17.285  0.00  0.00    +0.000 A 
ATOM     23  C   UNL     1      50.792   4.472  17.801  0.00  0.00    +0.000 A 
ATOM     24  C   UNL     1      51.849   3.584  18.017  0.00  0.00    +0.000 A 
ATOM     25  C   UNL     1      51.704   2.229  17.724  0.00  0.00    +0.000 A 
ATOM     26  C   UNL     1      50.490   1.768  17.209  0.00  0.00    +0.000 A 
ATOM     27  C   UNL     1      49.432   2.663  16.998  0.00  0.00    +0.000 A 
BRANCH  25  28
ATOM     28  C   UNL     1      52.871   1.335  17.939  0.00  0.00    +0.000 C 
ATOM     29  N   UNL     1      53.033   0.287  17.079  0.00  0.00    +0.000 N 
ATOM     30  O   UNL     1      53.650   1.511  18.869  0.00  0.00    +0.000 OA
ATOM     31  H   UNL     1      52.341   0.010  16.400  0.00  0.00    +0.000 HD
ATOM     32  H   UNL     1      53.787  -0.355  17.286  0.00  0.00    +0.000 HD
ENDBRANCH  25  28
ENDBRANCH  19  22
ENDBRANCH  18  19
ENDBRANCH  17  18
ENDBRANCH   6  17
TORSDOF 9
ENDMDL
MODEL 5
REMARK VINA RESULT:    -6.231      4.070      7.603
REMARK INTER + INTRA:         -11.161
REMARK INTER:                  -9.076
REMARK INTRA:                  -2.085
REMARK UNBOUND:                -1.653
REMARK  Name = 
REMARK  13 active torsions:
REMARK  status: ('A' for Active; 'I' for Inactive)
REMARK    1  A    between atoms: C_1  and  N_2
REMARK    2  A    between atoms: N_2  and  C_3
REMARK    3  A    between atoms: N_2  and  C_4
REMARK    4  A    between atoms: C_4  and  C_5
REMARK    5  A    between atoms: C_6  and  C_7
REMARK    6  A    between atoms: C_9  and  C_10
REMARK    7  A    between atoms: C_16  and  O_17
REMARK    8  A    between atoms: O_17  and  C_18
REMARK    9  A    between atoms: C_18  and  C_19
REMARK   10  A    between atoms: C_19  and  C_20
REMARK   11  A    between atoms: C_19  and  C_21
REMARK   12  A    between atoms: C_19  and  C_22
REMARK   13  A    between atoms: C_25  and  C_26
REMARK                            x       y       z     vdW  Elec       q    Type
REMARK                         _______ _______ _______ _____ _____    ______ ____
ROOT
ATOM      1  C   UNL     1      46.262   5.048  13.040  0.00  0.00    +0.000 A 
ATOM      2  C   UNL     1      45.617   4.014  12.339  0.00  0.00    +0.000 A 
ATOM      3  C   UNL     1      45.098   4.207  11.055  0.00  0.00    +0.000 A 
ATOM      4  C   UNL     1      45.225   5.470  10.468  0.00  0.00    +0.000 A 
ATOM      5  C   UNL     1      45.854   6.509  11.164  0.00  0.00    +0.000 A 
ATOM      6  C   UNL     1      46.374   6.320  12.455  0.00  0.00    +0.000 A 
ENDROOT
BRANCH   3   7
ATOM      7  C   UNL     1      44.426   3.075  10.320  0.00  0.00    +0.000 C 
ATOM      8  F   UNL     1      45.291   2.099   9.924  0.00  0.00    +0.000 F 
ATOM      9  F   UNL     1      43.482   2.450  11.076  0.00  0.00    +0.000 F 
ATOM     10  F   UNL     1      43.791   3.490   9.190  0.00  0.00    +0.000 F 
ENDBRANCH   3   7
BRANCH   1  12
ATOM     11  C   UNL     1      47.183   4.412  15.426  0.00  0.00    +0.000 C 
ATOM     12  C   UNL     1      46.782   4.673  14.325  0.00  0.00    +0.000 C 
BRANCH  11  13
ATOM     13  C   UNL     1      47.602   4.094  16.799  0.00  0.00    +0.000 C 
BRANCH  13  15
ATOM     14  C   UNL     1      49.549   3.815  18.240  0.00  0.00    +0.000 C 
ATOM     15  N   UNL     1      48.970   3.579  16.920  0.00  0.00    +0.000 NA
ATOM     16  C   UNL     1      49.066   2.174  16.539  0.00  0.00    +0.000 C 
ENDBRANCH  13  15
ENDBRANCH  11  13
ENDBRANCH   1  12
BRANCH   6  17
ATOM     17  O   UNL     1      46.935   7.466  12.963  0.00  0.00    +0.000 OA
BRANCH  17  18
ATOM     18  C   UNL     1      47.774   8.248  12.113  0.00  0.00    +0.000 C 
BRANCH  18  19
ATOM     19  C   UNL     1      49.043   8.782  12.840  0.00  0.00    +0.000 C 
ATOM     20  C   UNL     1      50.286   8.231  12.110  0.00  0.00    +0.000 C 
ATOM     21  C   UNL     1      49.003  10.324  12.677  0.00  0.00    +0.000 C 
BRANCH  19  22
ATOM     22  C   UNL     1      49.103   8.444  14.344  0.00  0.00    +0.000 A 
ATOM     23  C   UNL     1      49.748   7.297  14.834  0.00  0.00    +0.000 A 
ATOM     24  C   UNL     1      49.761   6.991  16.197  0.00  0.00    +0.000 A 
ATOM     25  C   UNL     1      49.127   7.829  17.114  0.00  0.00    +0.000 A 
ATOM     26  C   UNL     1      48.477   8.976  16.654  0.00  0.00    +0.000 A 
ATOM     27  C   UNL     1      48.471   9.280  15.286  0.00  0.00    +0.000 A 
BRANCH  25  28
ATOM     28  C   UNL     1      49.141   7.438  18.547  0.00  0.00    +0.000 C 
ATOM     29  N   UNL     1      47.947   7.113  19.127  0.00  0.00    +0.000 N 
ATOM     30  O   UNL     1      50.179   7.430  19.200  0.00  0.00    +0.000 OA
ATOM     31  H   UNL     1      47.054   7.253  18.681  0.00  0.00    +0.000 HD
ATOM     32  H   UNL     1      47.964   6.926  20.121  0.00  0.00    +0.000 HD
ENDBRANCH  25  28
ENDBRANCH  19  22
ENDBRANCH  18  19
ENDBRANCH  17  18
ENDBRANCH   6  17
TORSDOF 9
ENDMDL
MODEL 6
REMARK VINA RESULT:    -6.202      3.463      7.637
REMARK INTER + INTRA:         -11.118
REMARK INTER:                  -9.865
REMARK INTRA:                  -1.253
REMARK UNBOUND:                -1.653
REMARK  Name = 
REMARK  13 active torsions:
REMARK  status: ('A' for Active; 'I' for Inactive)
REMARK    1  A    between atoms: C_1  and  N_2
REMARK    2  A    between atoms: N_2  and  C_3
REMARK    3  A    between atoms: N_2  and  C_4
REMARK    4  A    between atoms: C_4  and  C_5
REMARK    5  A    between atoms: C_6  and  C_7
REMARK    6  A    between atoms: C_9  and  C_10
REMARK    7  A    between atoms: C_16  and  O_17
REMARK    8  A    between atoms: O_17  and  C_18
REMARK    9  A    between atoms: C_18  and  C_19
REMARK   10  A    between atoms: C_19  and  C_20
REMARK   11  A    between atoms: C_19  and  C_21
REMARK   12  A    between atoms: C_19  and  C_22
REMARK   13  A    between atoms: C_25  and  C_26
REMARK                            x       y       z     vdW  Elec       q    Type
REMARK                         _______ _______ _______ _____ _____    ______ ____
ROOT
ATOM      1  C   UNL     1      47.997   7.198  12.712  0.00  0.00    +0.000 A 
ATOM      2  C   UNL     1      48.361   8.315  11.939  0.00  0.00    +0.000 A 
ATOM      3  C   UNL     1      49.461   9.113  12.271  0.00  0.00    +0.000 A 
ATOM      4  C   UNL     1      50.204   8.782  13.408  0.00  0.00    +0.000 A 
ATOM      5  C   UNL     1      49.841   7.680  14.191  0.00  0.00    +0.000 A 
ATOM      6  C   UNL     1      48.734   6.878  13.863  0.00  0.00    +0.000 A 
ENDROOT
BRANCH   3   7
ATOM      7  C   UNL     1      49.839  10.294  11.414  0.00  0.00    +0.000 C 
ATOM      8  F   UNL     1      50.906  10.054  10.602  0.00  0.00    +0.000 F 
ATOM      9  F   UNL     1      48.827  10.686  10.592  0.00  0.00    +0.000 F 
ATOM     10  F   UNL     1      50.172  11.389  12.152  0.00  0.00    +0.000 F 
ENDBRANCH   3   7
BRANCH   1  12
ATOM     11  C   UNL     1      45.980   5.786  11.771  0.00  0.00    +0.000 C 
ATOM     12  C   UNL     1      46.875   6.456  12.208  0.00  0.00    +0.000 C 
BRANCH  11  13
ATOM     13  C   UNL     1      44.905   4.910  11.282  0.00  0.00    +0.000 C 
BRANCH  13  15
ATOM     14  C   UNL     1      42.581   5.396  11.837  0.00  0.00    +0.000 C 
ATOM     15  N   UNL     1      43.804   4.700  12.228  0.00  0.00    +0.000 NA
ATOM     16  C   UNL     1      43.556   3.284  12.479  0.00  0.00    +0.000 C 
ENDBRANCH  13  15
ENDBRANCH  11  13
ENDBRANCH   1  12
BRANCH   6  17
ATOM     17  O   UNL     1      48.544   5.860  14.766  0.00  0.00    +0.000 OA
BRANCH  17  18
ATOM     18  C   UNL     1      48.615   6.163  16.159  0.00  0.00    +0.000 C 
BRANCH  18  19
ATOM     19  C   UNL     1      48.290   4.937  17.062  0.00  0.00    +0.000 C 
ATOM     20  C   UNL     1      47.755   5.460  18.411  0.00  0.00    +0.000 C 
ATOM     21  C   UNL     1      47.158   4.168  16.333  0.00  0.00    +0.000 C 
BRANCH  19  22
ATOM     22  C   UNL     1      49.478   3.979  17.283  0.00  0.00    +0.000 A 
ATOM     23  C   UNL     1      50.728   4.422  17.746  0.00  0.00    +0.000 A 
ATOM     24  C   UNL     1      51.802   3.543  17.906  0.00  0.00    +0.000 A 
ATOM     25  C   UNL     1      51.655   2.188  17.609  0.00  0.00    +0.000 A 
ATOM     26  C   UNL     1      50.423   1.721  17.146  0.00  0.00    +0.000 A 
ATOM     27  C   UNL     1      49.349   2.607  16.991  0.00  0.00    +0.000 A 
BRANCH  25  28
ATOM     28  C   UNL     1      52.838   1.304  17.764  0.00  0.00    +0.000 C 
ATOM     29  N   UNL     1      52.619   0.020  18.176  0.00  0.00    +0.000 N 
ATOM     30  O   UNL     1      53.975   1.712  17.556  0.00  0.00    +0.000 OA
ATOM     31  H   UNL     1      51.729  -0.316  18.507  0.00  0.00    +0.000 HD
ATOM     32  H   UNL     1      53.441  -0.545  18.351  0.00  0.00    +0.000 HD
ENDBRANCH  25  28
ENDBRANCH  19  22
ENDBRANCH  18  19
ENDBRANCH  17  18
ENDBRANCH   6  17
TORSDOF 9
ENDMDL
MODEL 7
REMARK VINA RESULT:    -6.022      4.335      6.558
REMARK INTER + INTRA:         -10.842
REMARK INTER:                  -9.347
REMARK INTRA:                  -1.495
REMARK UNBOUND:                -1.653
REMARK  Name = 
REMARK  13 active torsions:
REMARK  status: ('A' for Active; 'I' for Inactive)
REMARK    1  A    between atoms: C_1  and  N_2
REMARK    2  A    between atoms: N_2  and  C_3
REMARK    3  A    between atoms: N_2  and  C_4
REMARK    4  A    between atoms: C_4  and  C_5
REMARK    5  A    between atoms: C_6  and  C_7
REMARK    6  A    between atoms: C_9  and  C_10
REMARK    7  A    between atoms: C_16  and  O_17
REMARK    8  A    between atoms: O_17  and  C_18
REMARK    9  A    between atoms: C_18  and  C_19
REMARK   10  A    between atoms: C_19  and  C_20
REMARK   11  A    between atoms: C_19  and  C_21
REMARK   12  A    between atoms: C_19  and  C_22
REMARK   13  A    between atoms: C_25  and  C_26
REMARK                            x       y       z     vdW  Elec       q    Type
REMARK                         _______ _______ _______ _____ _____    ______ ____
ROOT
ATOM      1  C   UNL     1      46.531   5.016  13.444  0.00  0.00    +0.000 A 
ATOM      2  C   UNL     1      45.356   4.430  12.940  0.00  0.00    +0.000 A 
ATOM      3  C   UNL     1      44.867   4.739  11.667  0.00  0.00    +0.000 A 
ATOM      4  C   UNL     1      45.570   5.664  10.889  0.00  0.00    +0.000 A 
ATOM      5  C   UNL     1      46.733   6.264  11.388  0.00  0.00    +0.000 A 
ATOM      6  C   UNL     1      47.226   5.958  12.668  0.00  0.00    +0.000 A 
ENDROOT
BRANCH   3   7
ATOM      7  C   UNL     1      43.615   4.081  11.145  0.00  0.00    +0.000 C 
ATOM      8  F   UNL     1      43.173   3.059  11.931  0.00  0.00    +0.000 F 
ATOM      9  F   UNL     1      42.572   4.950  11.044  0.00  0.00    +0.000 F 
ATOM     10  F   UNL     1      43.783   3.548   9.904  0.00  0.00    +0.000 F 
ENDBRANCH   3   7
BRANCH   1  12
ATOM     11  C   UNL     1      47.224   4.109  15.819  0.00  0.00    +0.000 C 
ATOM     12  C   UNL     1      46.925   4.555  14.746  0.00  0.00    +0.000 C 
BRANCH  11  13
ATOM     13  C   UNL     1      47.624   3.505  17.099  0.00  0.00    +0.000 C 
BRANCH  13  15
ATOM     14  C   UNL     1      49.192   5.373  17.097  0.00  0.00    +0.000 C 
ATOM     15  N   UNL     1      48.803   4.112  17.724  0.00  0.00    +0.000 NA
ATOM     16  C   UNL     1      48.646   4.261  19.168  0.00  0.00    +0.000 C 
ENDBRANCH  13  15
ENDBRANCH  11  13
ENDBRANCH   1  12
BRANCH   6  17
ATOM     17  O   UNL     1      48.366   6.664  12.968  0.00  0.00    +0.000 OA
BRANCH  17  18
ATOM     18  C   UNL     1      48.656   7.841  12.215  0.00  0.00    +0.000 C 
BRANCH  18  19
ATOM     19  C   UNL     1      48.119   9.138  12.888  0.00  0.00    +0.000 C 
ATOM     20  C   UNL     1      48.062   8.903  14.412  0.00  0.00    +0.000 C 
ATOM     21  C   UNL     1      49.174  10.235  12.586  0.00  0.00    +0.000 C 
BRANCH  19  22
ATOM     22  C   UNL     1      46.750   9.609  12.359  0.00  0.00    +0.000 A 
ATOM     23  C   UNL     1      45.546   8.983  12.721  0.00  0.00    +0.000 A 
ATOM     24  C   UNL     1      44.318   9.403  12.203  0.00  0.00    +0.000 A 
ATOM     25  C   UNL     1      44.258  10.467  11.304  0.00  0.00    +0.000 A 
ATOM     26  C   UNL     1      45.441  11.108  10.926  0.00  0.00    +0.000 A 
ATOM     27  C   UNL     1      46.669  10.684  11.452  0.00  0.00    +0.000 A 
BRANCH  25  28
ATOM     28  C   UNL     1      42.932  10.850  10.757  0.00  0.00    +0.000 C 
ATOM     29  N   UNL     1      41.822  10.410  11.421  0.00  0.00    +0.000 N 
ATOM     30  O   UNL     1      42.828  11.516   9.734  0.00  0.00    +0.000 OA
ATOM     31  H   UNL     1      41.851   9.736  12.171  0.00  0.00    +0.000 HD
ATOM     32  H   UNL     1      40.929  10.613  10.992  0.00  0.00    +0.000 HD
ENDBRANCH  25  28
ENDBRANCH  19  22
ENDBRANCH  18  19
ENDBRANCH  17  18
ENDBRANCH   6  17
TORSDOF 9
ENDMDL
MODEL 8
REMARK VINA RESULT:    -5.432      4.456      7.356
REMARK INTER + INTRA:          -9.942
REMARK INTER:                  -8.537
REMARK INTRA:                  -1.406
REMARK UNBOUND:                -1.653
REMARK  Name = 
REMARK  13 active torsions:
REMARK  status: ('A' for Active; 'I' for Inactive)
REMARK    1  A    between atoms: C_1  and  N_2
REMARK    2  A    between atoms: N_2  and  C_3
REMARK    3  A    between atoms: N_2  and  C_4
REMARK    4  A    between atoms: C_4  and  C_5
REMARK    5  A    between atoms: C_6  and  C_7
REMARK    6  A    between atoms: C_9  and  C_10
REMARK    7  A    between atoms: C_16  and  O_17
REMARK    8  A    between atoms: O_17  and  C_18
REMARK    9  A    between atoms: C_18  and  C_19
REMARK   10  A    between atoms: C_19  and  C_20
REMARK   11  A    between atoms: C_19  and  C_21
REMARK   12  A    between atoms: C_19  and  C_22
REMARK   13  A    between atoms: C_25  and  C_26
REMARK                            x       y       z     vdW  Elec       q    Type
REMARK                         _______ _______ _______ _____ _____    ______ ____
ROOT
ATOM      1  C   UNL     1      47.419   5.345  14.555  0.00  0.00    +0.000 A 
ATOM      2  C   UNL     1      47.391   4.206  15.380  0.00  0.00    +0.000 A 
ATOM      3  C   UNL     1      48.139   4.135  16.560  0.00  0.00    +0.000 A 
ATOM      4  C   UNL     1      48.936   5.228  16.911  0.00  0.00    +0.000 A 
ATOM      5  C   UNL     1      48.980   6.360  16.088  0.00  0.00    +0.000 A 
ATOM      6  C   UNL     1      48.233   6.435  14.900  0.00  0.00    +0.000 A 
ENDROOT
BRANCH   3   7
ATOM      7  C   UNL     1      48.077   2.908  17.434  0.00  0.00    +0.000 C 
ATOM      8  F   UNL     1      48.677   1.817  16.881  0.00  0.00    +0.000 F 
ATOM      9  F   UNL     1      48.684   3.095  18.638  0.00  0.00    +0.000 F 
ATOM     10  F   UNL     1      46.799   2.529  17.711  0.00  0.00    +0.000 F 
ENDBRANCH   3   7
BRANCH   1  12
ATOM     11  C   UNL     1      45.785   5.244  12.489  0.00  0.00    +0.000 C 
ATOM     12  C   UNL     1      46.557   5.278  13.407  0.00  0.00    +0.000 C 
BRANCH  11  13
ATOM     13  C   UNL     1      44.823   5.274  11.378  0.00  0.00    +0.000 C 
BRANCH  13  15
ATOM     14  C   UNL     1      43.559   3.212  11.692  0.00  0.00    +0.000 C 
ATOM     15  N   UNL     1      43.519   4.672  11.677  0.00  0.00    +0.000 NA
ATOM     16  C   UNL     1      42.935   5.203  12.904  0.00  0.00    +0.000 C 
ENDBRANCH  13  15
ENDBRANCH  11  13
ENDBRANCH   1  12
BRANCH   6  17
ATOM     17  O   UNL     1      48.429   7.621  14.236  0.00  0.00    +0.000 OA
BRANCH  17  18
ATOM     18  C   UNL     1      49.736   7.919  13.744  0.00  0.00    +0.000 C 
BRANCH  18  19
ATOM     19  C   UNL     1      49.718   8.524  12.309  0.00  0.00    +0.000 C 
ATOM     20  C   UNL     1      48.543   7.893  11.533  0.00  0.00    +0.000 C 
ATOM     21  C   UNL     1      49.445  10.039  12.497  0.00  0.00    +0.000 C 
BRANCH  19  22
ATOM     22  C   UNL     1      51.038   8.351  11.531  0.00  0.00    +0.000 A 
ATOM     23  C   UNL     1      52.103   9.261  11.641  0.00  0.00    +0.000 A 
ATOM     24  C   UNL     1      53.277   9.105  10.900  0.00  0.00    +0.000 A 
ATOM     25  C   UNL     1      53.423   8.029  10.026  0.00  0.00    +0.000 A 
ATOM     26  C   UNL     1      52.379   7.110   9.896  0.00  0.00    +0.000 A 
ATOM     27  C   UNL     1      51.205   7.269  10.644  0.00  0.00    +0.000 A 
BRANCH  25  28
ATOM     28  C   UNL     1      54.677   7.931   9.237  0.00  0.00    +0.000 C 
ATOM     29  N   UNL     1      54.787   6.900   8.348  0.00  0.00    +0.000 N 
ATOM     30  O   UNL     1      55.595   8.728   9.391  0.00  0.00    +0.000 OA
ATOM     31  H   UNL     1      54.132   6.135   8.296  0.00  0.00    +0.000 HD
ATOM     32  H   UNL     1      55.677   6.802   7.876  0.00  0.00    +0.000 HD
ENDBRANCH  25  28
ENDBRANCH  19  22
ENDBRANCH  18  19
ENDBRANCH  17  18
ENDBRANCH   6  17
TORSDOF 9
ENDMDL
