MODEL 1
REMARK VINA RESULT:    -7.565      0.000      0.000
REMARK INTER + INTRA:         -11.291
REMARK INTER:                 -10.219
REMARK INTRA:                  -1.072
REMARK UNBOUND:                -1.072
REMARK  Name = 
REMARK  8 active torsions:
REMARK  status: ('A' for Active; 'I' for Inactive)
REMARK    1  A    between atoms: C_1  and  C_2
REMARK    2  A    between atoms: N_4  and  C_5
REMARK    3  A    between atoms: C_7  and  C_8
REMARK    4  A    between atoms: C_8  and  C_9
REMARK    5  A    between atoms: C_9  and  N_10
REMARK    6  A    between atoms: C_15  and  C_16
REMARK    7  A    between atoms: C_21  and  C_22
REMARK    8  A    between atoms: C_28  and  C_29
REMARK                            x       y       z     vdW  Elec       q    Type
REMARK                         _______ _______ _______ _____ _____    ______ ____
ROOT
ATOM      1  C   UNL     1      44.984   7.019  12.294  0.00  0.00    +0.000 A 
ATOM      2  C   UNL     1      46.201   6.820  12.972  0.00  0.00    +0.000 A 
ATOM      3  C   UNL     1      47.166   7.837  13.110  0.00  0.00    +0.000 A 
ATOM      4  C   UNL     1      46.872   9.102  12.585  0.00  0.00    +0.000 A 
ATOM      5  C   UNL     1      45.681   9.344  11.907  0.00  0.00    +0.000 A 
ATOM      6  C   UNL     1      44.757   8.303  11.772  0.00  0.00    +0.000 A 
ENDROOT
BRANCH   1  10
ATOM      7  C   UNL     1      44.705   4.253   9.541  0.00  0.00    +0.000 C 
ATOM      8  C   UNL     1      43.425   4.407  10.361  0.00  0.00    +0.000 C 
ATOM      9  C   UNL     1      43.248   5.839  10.918  0.00  0.00    +0.000 C 
ATOM     10  N   UNL     1      44.058   6.013  12.129  0.00  0.00    +0.000 N 
ATOM     11  C   UNL     1      43.787   5.001  13.160  0.00  0.00    +0.000 C 
ATOM     12  C   UNL     1      43.999   3.587  12.591  0.00  0.00    +0.000 C 
ATOM     13  C   UNL     1      45.470   3.192  12.490  0.00  0.00    +0.000 C 
ATOM     14  O   UNL     1      43.292   3.373  11.355  0.00  0.00    +0.000 OA
ENDBRANCH   1  10
BRANCH   5  15
ATOM     15  C   UNL     1      45.394  10.691  11.295  0.00  0.00    +0.000 C 
ATOM     16  F   UNL     1      44.674  11.516  12.106  0.00  0.00    +0.000 F 
ATOM     17  F   UNL     1      46.532  11.371  10.989  0.00  0.00    +0.000 F 
ATOM     18  F   UNL     1      44.688  10.598  10.135  0.00  0.00    +0.000 F 
ENDBRANCH   5  15
BRANCH   3  19
ATOM     19  C   UNL     1      48.504   7.526  13.764  0.00  0.00    +0.000 C 
BRANCH  19  20
ATOM     20  C   UNL     1      48.445   6.356  14.757  0.00  0.00    +0.000 C 
BRANCH  20  21
ATOM     21  N   UNL     1      48.253   6.790  16.145  0.00  0.00    +0.000 N 
ATOM     22  C   UNL     1      48.615   5.762  17.053  0.00  0.00    +0.000 A 
ATOM     23  C   UNL     1      48.501   6.009  18.407  0.00  0.00    +0.000 A 
ATOM     24  C   UNL     1      48.883   4.998  19.260  0.00  0.00    +0.000 A 
ATOM     25  N   UNL     1      49.340   3.804  18.850  0.00  0.00    +0.000 NA
ATOM     26  C   UNL     1      49.415   3.663  17.507  0.00  0.00    +0.000 A 
ATOM     27  N   UNL     1      49.081   4.592  16.594  0.00  0.00    +0.000 NA
ATOM     28  H   UNL     1      47.288   7.056  16.327  0.00  0.00    +0.000 HD
BRANCH  26  29
ATOM     29  C   UNL     1      49.893   2.326  16.989  0.00  0.00    +0.000 C 
ATOM     30  N   UNL     1      50.862   1.705  17.746  0.00  0.00    +0.000 N 
ATOM     31  O   UNL     1      49.464   1.797  15.971  0.00  0.00    +0.000 OA
ATOM     32  H   UNL     1      51.216   2.149  18.584  0.00  0.00    +0.000 HD
ATOM     33  H   UNL     1      51.224   0.816  17.439  0.00  0.00    +0.000 HD
ENDBRANCH  26  29
ENDBRANCH  20  21
ENDBRANCH  19  20
ENDBRANCH   3  19
TORSDOF 6
ENDMDL
MODEL 2
REMARK VINA RESULT:    -7.289      1.572      2.058
REMARK INTER + INTRA:         -10.918
REMARK INTER:                  -9.536
REMARK INTRA:                  -1.382
REMARK UNBOUND:                -1.072
REMARK  Name = 
REMARK  8 active torsions:
REMARK  status: ('A' for Active; 'I' for Inactive)
REMARK    1  A    between atoms: C_1  and  C_2
REMARK    2  A    between atoms: N_4  and  C_5
REMARK    3  A    between atoms: C_7  and  C_8
REMARK    4  A    between atoms: C_8  and  C_9
REMARK    5  A    between atoms: C_9  and  N_10
REMARK    6  A    between atoms: C_15  and  C_16
REMARK    7  A    between atoms: C_21  and  C_22
REMARK    8  A    between atoms: C_28  and  C_29
REMARK                            x       y       z     vdW  Elec       q    Type
REMARK                         _______ _______ _______ _____ _____    ______ ____
ROOT
ATOM      1  C   UNL     1      45.434   6.812  11.323  0.00  0.00    +0.000 A 
ATOM      2  C   UNL     1      46.777   6.698  11.727  0.00  0.00    +0.000 A 
ATOM      3  C   UNL     1      47.553   7.812  12.101  0.00  0.00    +0.000 A 
ATOM      4  C   UNL     1      46.939   9.072  12.108  0.00  0.00    +0.000 A 
ATOM      5  C   UNL     1      45.613   9.231  11.717  0.00  0.00    +0.000 A 
ATOM      6  C   UNL     1      44.881   8.103  11.331  0.00  0.00    +0.000 A 
ENDROOT
BRANCH   1  10
ATOM      7  C   UNL     1      45.652   3.055  12.392  0.00  0.00    +0.000 C 
ATOM      8  C   UNL     1      44.821   3.266  11.128  0.00  0.00    +0.000 C 
ATOM      9  C   UNL     1      45.266   4.514  10.329  0.00  0.00    +0.000 C 
ATOM     10  N   UNL     1      44.688   5.725  10.923  0.00  0.00    +0.000 N 
ATOM     11  C   UNL     1      43.226   5.668  11.055  0.00  0.00    +0.000 C 
ATOM     12  C   UNL     1      42.811   4.435  11.878  0.00  0.00    +0.000 C 
ATOM     13  C   UNL     1      43.010   4.619  13.380  0.00  0.00    +0.000 C 
ATOM     14  O   UNL     1      43.407   3.218  11.396  0.00  0.00    +0.000 OA
ENDBRANCH   1  10
BRANCH   5  15
ATOM     15  C   UNL     1      44.974  10.595  11.673  0.00  0.00    +0.000 C 
ATOM     16  F   UNL     1      44.882  11.115  10.418  0.00  0.00    +0.000 F 
ATOM     17  F   UNL     1      43.705  10.587  12.165  0.00  0.00    +0.000 F 
ATOM     18  F   UNL     1      45.655  11.516  12.410  0.00  0.00    +0.000 F 
ENDBRANCH   5  15
BRANCH   3  19
ATOM     19  C   UNL     1      49.028   7.633  12.427  0.00  0.00    +0.000 C 
BRANCH  19  20
ATOM     20  C   UNL     1      49.281   6.772  13.673  0.00  0.00    +0.000 C 
BRANCH  20  21
ATOM     21  N   UNL     1      49.350   7.557  14.909  0.00  0.00    +0.000 N 
ATOM     22  C   UNL     1      48.838   6.820  16.009  0.00  0.00    +0.000 A 
ATOM     23  C   UNL     1      48.837   7.414  17.256  0.00  0.00    +0.000 A 
ATOM     24  C   UNL     1      48.355   6.662  18.304  0.00  0.00    +0.000 A 
ATOM     25  N   UNL     1      47.885   5.411  18.174  0.00  0.00    +0.000 NA
ATOM     26  C   UNL     1      47.930   4.922  16.915  0.00  0.00    +0.000 A 
ATOM     27  N   UNL     1      48.394   5.568  15.831  0.00  0.00    +0.000 NA
ATOM     28  H   UNL     1      48.829   8.427  14.833  0.00  0.00    +0.000 HD
BRANCH  26  29
ATOM     29  C   UNL     1      47.383   3.529  16.706  0.00  0.00    +0.000 C 
ATOM     30  N   UNL     1      47.909   2.834  15.640  0.00  0.00    +0.000 N 
ATOM     31  O   UNL     1      46.531   3.017  17.423  0.00  0.00    +0.000 OA
ATOM     32  H   UNL     1      48.610   3.263  15.048  0.00  0.00    +0.000 HD
ATOM     33  H   UNL     1      47.571   1.903  15.450  0.00  0.00    +0.000 HD
ENDBRANCH  26  29
ENDBRANCH  20  21
ENDBRANCH  19  20
ENDBRANCH   3  19
TORSDOF 6
ENDMDL
MODEL 3
REMARK VINA RESULT:    -7.282      0.847      1.561
REMARK INTER + INTRA:         -10.909
REMARK INTER:                  -9.759
REMARK INTRA:                  -1.150
REMARK UNBOUND:                -1.072
REMARK  Name = 
REMARK  8 active torsions:
REMARK  status: ('A' for Active; 'I' for Inactive)
REMARK    1  A    between atoms: C_1  and  C_2
REMARK    2  A    between atoms: N_4  and  C_5
REMARK    3  A    between atoms: C_7  and  C_8
REMARK    4  A    between atoms: C_8  and  C_9
REMARK    5  A    between atoms: C_9  and  N_10
REMARK    6  A    between atoms: C_15  and  C_16
REMARK    7  A    between atoms: C_21  and  C_22
REMARK    8  A    between atoms: C_28  and  C_29
REMARK                            x       y       z     vdW  Elec       q    Type
REMARK                         _______ _______ _______ _____ _____    ______ ____
ROOT
ATOM      1  C   UNL     1      45.825   6.223  12.727  0.00  0.00    +0.000 A 
ATOM      2  C   UNL     1      47.053   6.436  13.382  0.00  0.00    +0.000 A 
ATOM      3  C   UNL     1      47.655   7.706  13.467  0.00  0.00    +0.000 A 
ATOM      4  C   UNL     1      46.975   8.798  12.911  0.00  0.00    +0.000 A 
ATOM      5  C   UNL     1      45.759   8.633  12.255  0.00  0.00    +0.000 A 
ATOM      6  C   UNL     1      45.203   7.352  12.172  0.00  0.00    +0.000 A 
ENDROOT
BRANCH   1  10
ATOM      7  C   UNL     1      42.291   5.150  11.436  0.00  0.00    +0.000 C 
ATOM      8  C   UNL     1      43.006   4.039  12.203  0.00  0.00    +0.000 C 
ATOM      9  C   UNL     1      43.995   4.590  13.258  0.00  0.00    +0.000 C 
ATOM     10  N   UNL     1      45.256   4.973  12.614  0.00  0.00    +0.000 N 
ATOM     11  C   UNL     1      45.861   3.889  11.829  0.00  0.00    +0.000 C 
ATOM     12  C   UNL     1      44.870   3.378  10.768  0.00  0.00    +0.000 C 
ATOM     13  C   UNL     1      44.765   4.295   9.552  0.00  0.00    +0.000 C 
ATOM     14  O   UNL     1      43.581   3.057  11.321  0.00  0.00    +0.000 OA
ENDBRANCH   1  10
BRANCH   5  15
ATOM     15  C   UNL     1      45.059   9.802  11.610  0.00  0.00    +0.000 C 
ATOM     16  F   UNL     1      45.904  10.792  11.211  0.00  0.00    +0.000 F 
ATOM     17  F   UNL     1      44.362   9.437  10.500  0.00  0.00    +0.000 F 
ATOM     18  F   UNL     1      44.157  10.394  12.441  0.00  0.00    +0.000 F 
ENDBRANCH   5  15
BRANCH   3  19
ATOM     19  C   UNL     1      49.031   7.850  14.097  0.00  0.00    +0.000 C 
BRANCH  19  20
ATOM     20  C   UNL     1      49.345   6.769  15.141  0.00  0.00    +0.000 C 
BRANCH  20  21
ATOM     21  N   UNL     1      48.679   7.001  16.427  0.00  0.00    +0.000 N 
ATOM     22  C   UNL     1      48.659   5.818  17.210  0.00  0.00    +0.000 A 
ATOM     23  C   UNL     1      48.072   5.864  18.459  0.00  0.00    +0.000 A 
ATOM     24  C   UNL     1      48.092   4.705  19.202  0.00  0.00    +0.000 A 
ATOM     25  N   UNL     1      48.631   3.551  18.775  0.00  0.00    +0.000 NA
ATOM     26  C   UNL     1      49.180   3.611  17.541  0.00  0.00    +0.000 A 
ATOM     27  N   UNL     1      49.225   4.695  16.746  0.00  0.00    +0.000 NA
ATOM     28  H   UNL     1      47.721   7.321  16.303  0.00  0.00    +0.000 HD
BRANCH  26  29
ATOM     29  C   UNL     1      49.773   2.331  16.998  0.00  0.00    +0.000 C 
ATOM     30  N   UNL     1      50.814   1.800  17.726  0.00  0.00    +0.000 N 
ATOM     31  O   UNL     1      49.374   1.772  15.984  0.00  0.00    +0.000 OA
ATOM     32  H   UNL     1      51.142   2.269  18.562  0.00  0.00    +0.000 HD
ATOM     33  H   UNL     1      51.253   0.953  17.402  0.00  0.00    +0.000 HD
ENDBRANCH  26  29
ENDBRANCH  20  21
ENDBRANCH  19  20
ENDBRANCH   3  19
TORSDOF 6
ENDMDL
MODEL 4
REMARK VINA RESULT:    -7.136      2.964      7.370
REMARK INTER + INTRA:         -10.711
REMARK INTER:                 -10.195
REMARK INTRA:                  -0.516
REMARK UNBOUND:                -1.072
REMARK  Name = 
REMARK  8 active torsions:
REMARK  status: ('A' for Active; 'I' for Inactive)
REMARK    1  A    between atoms: C_1  and  C_2
REMARK    2  A    between atoms: N_4  and  C_5
REMARK    3  A    between atoms: C_7  and  C_8
REMARK    4  A    between atoms: C_8  and  C_9
REMARK    5  A    between atoms: C_9  and  N_10
REMARK    6  A    between atoms: C_15  and  C_16
REMARK    7  A    between atoms: C_21  and  C_22
REMARK    8  A    between atoms: C_28  and  C_29
REMARK                            x       y       z     vdW  Elec       q    Type
REMARK                         _______ _______ _______ _____ _____    ______ ____
ROOT
ATOM      1  C   UNL     1      48.637   6.074  15.713  0.00  0.00    +0.000 A 
ATOM      2  C   UNL     1      47.829   5.956  14.567  0.00  0.00    +0.000 A 
ATOM      3  C   UNL     1      48.104   6.647  13.371  0.00  0.00    +0.000 A 
ATOM      4  C   UNL     1      49.255   7.445  13.320  0.00  0.00    +0.000 A 
ATOM      5  C   UNL     1      50.083   7.590  14.429  0.00  0.00    +0.000 A 
ATOM      6  C   UNL     1      49.764   6.905  15.605  0.00  0.00    +0.000 A 
ENDROOT
BRANCH   1  10
ATOM      7  C   UNL     1      48.590   2.256  16.564  0.00  0.00    +0.000 C 
ATOM      8  C   UNL     1      47.885   3.109  17.618  0.00  0.00    +0.000 C 
ATOM      9  C   UNL     1      47.294   4.410  17.026  0.00  0.00    +0.000 C 
ATOM     10  N   UNL     1      48.345   5.425  16.893  0.00  0.00    +0.000 N 
ATOM     11  C   UNL     1      49.065   5.686  18.146  0.00  0.00    +0.000 C 
ATOM     12  C   UNL     1      49.668   4.383  18.699  0.00  0.00    +0.000 C 
ATOM     13  C   UNL     1      50.942   3.955  17.975  0.00  0.00    +0.000 C 
ATOM     14  O   UNL     1      48.705   3.316  18.782  0.00  0.00    +0.000 OA
ENDBRANCH   1  10
BRANCH   5  15
ATOM     15  C   UNL     1      51.289   8.494  14.385  0.00  0.00    +0.000 C 
ATOM     16  F   UNL     1      51.558   8.986  13.144  0.00  0.00    +0.000 F 
ATOM     17  F   UNL     1      51.148   9.579  15.193  0.00  0.00    +0.000 F 
ATOM     18  F   UNL     1      52.426   7.867  14.793  0.00  0.00    +0.000 F 
ENDBRANCH   5  15
BRANCH   3  19
ATOM     19  C   UNL     1      47.133   6.557  12.205  0.00  0.00    +0.000 C 
BRANCH  19  20
ATOM     20  C   UNL     1      45.725   7.074  12.536  0.00  0.00    +0.000 C 
BRANCH  20  21
ATOM     21  N   UNL     1      44.887   6.071  13.200  0.00  0.00    +0.000 N 
ATOM     22  C   UNL     1      44.496   5.052  12.292  0.00  0.00    +0.000 A 
ATOM     23  C   UNL     1      43.705   4.021  12.760  0.00  0.00    +0.000 A 
ATOM     24  C   UNL     1      43.365   3.038  11.858  0.00  0.00    +0.000 A 
ATOM     25  N   UNL     1      43.746   3.038  10.570  0.00  0.00    +0.000 NA
ATOM     26  C   UNL     1      44.517   4.090  10.213  0.00  0.00    +0.000 A 
ATOM     27  N   UNL     1      44.915   5.089  11.020  0.00  0.00    +0.000 NA
ATOM     28  H   UNL     1      44.048   6.485  13.599  0.00  0.00    +0.000 HD
BRANCH  26  29
ATOM     29  C   UNL     1      44.947   4.157   8.766  0.00  0.00    +0.000 C 
ATOM     30  N   UNL     1      44.274   3.321   7.904  0.00  0.00    +0.000 N 
ATOM     31  O   UNL     1      45.830   4.899   8.351  0.00  0.00    +0.000 OA
ATOM     32  H   UNL     1      43.548   2.706   8.253  0.00  0.00    +0.000 HD
ATOM     33  H   UNL     1      44.529   3.318   6.928  0.00  0.00    +0.000 HD
ENDBRANCH  26  29
ENDBRANCH  20  21
ENDBRANCH  19  20
ENDBRANCH   3  19
TORSDOF 6
ENDMDL
MODEL 5
REMARK VINA RESULT:    -7.113      1.519      2.045
REMARK INTER + INTRA:         -10.681
REMARK INTER:                  -9.208
REMARK INTRA:                  -1.473
REMARK UNBOUND:                -1.072
REMARK  Name = 
REMARK  8 active torsions:
REMARK  status: ('A' for Active; 'I' for Inactive)
REMARK    1  A    between atoms: C_1  and  C_2
REMARK    2  A    between atoms: N_4  and  C_5
REMARK    3  A    between atoms: C_7  and  C_8
REMARK    4  A    between atoms: C_8  and  C_9
REMARK    5  A    between atoms: C_9  and  N_10
REMARK    6  A    between atoms: C_15  and  C_16
REMARK    7  A    between atoms: C_21  and  C_22
REMARK    8  A    between atoms: C_28  and  C_29
REMARK                            x       y       z     vdW  Elec       q    Type
REMARK                         _______ _______ _______ _____ _____    ______ ____
ROOT
ATOM      1  C   UNL     1      45.842   6.587  12.432  0.00  0.00    +0.000 A 
ATOM      2  C   UNL     1      47.181   6.846  12.783  0.00  0.00    +0.000 A 
ATOM      3  C   UNL     1      47.771   8.116  12.632  0.00  0.00    +0.000 A 
ATOM      4  C   UNL     1      46.972   9.163  12.154  0.00  0.00    +0.000 A 
ATOM      5  C   UNL     1      45.644   8.953  11.796  0.00  0.00    +0.000 A 
ATOM      6  C   UNL     1      45.100   7.673  11.940  0.00  0.00    +0.000 A 
ENDROOT
BRANCH   1  10
ATOM      7  C   UNL     1      42.295   5.299  11.400  0.00  0.00    +0.000 C 
ATOM      8  C   UNL     1      43.027   4.340  12.338  0.00  0.00    +0.000 C 
ATOM      9  C   UNL     1      44.027   5.068  13.266  0.00  0.00    +0.000 C 
ATOM     10  N   UNL     1      45.278   5.336  12.547  0.00  0.00    +0.000 N 
ATOM     11  C   UNL     1      45.877   4.133  11.953  0.00  0.00    +0.000 C 
ATOM     12  C   UNL     1      44.873   3.444  11.011  0.00  0.00    +0.000 C 
ATOM     13  C   UNL     1      44.746   4.135   9.657  0.00  0.00    +0.000 C 
ATOM     14  O   UNL     1      43.593   3.221  11.631  0.00  0.00    +0.000 OA
ENDBRANCH   1  10
BRANCH   5  15
ATOM     15  C   UNL     1      44.805  10.070  11.230  0.00  0.00    +0.000 C 
ATOM     16  F   UNL     1      45.538  11.076  10.676  0.00  0.00    +0.000 F 
ATOM     17  F   UNL     1      43.965   9.639  10.251  0.00  0.00    +0.000 F 
ATOM     18  F   UNL     1      44.015  10.658  12.170  0.00  0.00    +0.000 F 
ENDBRANCH   5  15
BRANCH   3  19
ATOM     19  C   UNL     1      49.251   8.302  12.931  0.00  0.00    +0.000 C 
BRANCH  19  20
ATOM     20  C   UNL     1      49.772   7.384  14.046  0.00  0.00    +0.000 C 
BRANCH  20  21
ATOM     21  N   UNL     1      49.669   7.985  15.380  0.00  0.00    +0.000 N 
ATOM     22  C   UNL     1      49.038   7.098  16.291  0.00  0.00    +0.000 A 
ATOM     23  C   UNL     1      48.868   7.508  17.598  0.00  0.00    +0.000 A 
ATOM     24  C   UNL     1      48.273   6.614  18.460  0.00  0.00    +0.000 A 
ATOM     25  N   UNL     1      47.848   5.393  18.096  0.00  0.00    +0.000 NA
ATOM     26  C   UNL     1      48.062   5.089  16.796  0.00  0.00    +0.000 A 
ATOM     27  N   UNL     1      48.645   5.884  15.883  0.00  0.00    +0.000 NA
ATOM     28  H   UNL     1      49.144   8.856  15.362  0.00  0.00    +0.000 HD
BRANCH  26  29
ATOM     29  C   UNL     1      47.573   3.738  16.326  0.00  0.00    +0.000 C 
ATOM     30  N   UNL     1      47.114   2.893  17.311  0.00  0.00    +0.000 N 
ATOM     31  O   UNL     1      47.565   3.387  15.152  0.00  0.00    +0.000 OA
ATOM     32  H   UNL     1      47.126   3.187  18.280  0.00  0.00    +0.000 HD
ATOM     33  H   UNL     1      46.786   1.975  17.052  0.00  0.00    +0.000 HD
ENDBRANCH  26  29
ENDBRANCH  20  21
ENDBRANCH  19  20
ENDBRANCH   3  19
TORSDOF 6
ENDMDL
MODEL 6
REMARK VINA RESULT:    -7.067      4.378      8.606
REMARK INTER + INTRA:         -10.618
REMARK INTER:                  -9.714
REMARK INTRA:                  -0.905
REMARK UNBOUND:                -1.072
REMARK  Name = 
REMARK  8 active torsions:
REMARK  status: ('A' for Active; 'I' for Inactive)
REMARK    1  A    between atoms: C_1  and  C_2
REMARK    2  A    between atoms: N_4  and  C_5
REMARK    3  A    between atoms: C_7  and  C_8
REMARK    4  A    between atoms: C_8  and  C_9
REMARK    5  A    between atoms: C_9  and  N_10
REMARK    6  A    between atoms: C_15  and  C_16
REMARK    7  A    between atoms: C_21  and  C_22
REMARK    8  A    between atoms: C_28  and  C_29
REMARK                            x       y       z     vdW  Elec       q    Type
REMARK                         _______ _______ _______ _____ _____    ______ ____
ROOT
ATOM      1  C   UNL     1      48.889   6.897  16.545  0.00  0.00    +0.000 A 
ATOM      2  C   UNL     1      48.451   7.084  15.220  0.00  0.00    +0.000 A 
ATOM      3  C   UNL     1      47.882   6.046  14.457  0.00  0.00    +0.000 A 
ATOM      4  C   UNL     1      47.711   4.796  15.066  0.00  0.00    +0.000 A 
ATOM      5  C   UNL     1      48.129   4.566  16.374  0.00  0.00    +0.000 A 
ATOM      6  C   UNL     1      48.710   5.616  17.092  0.00  0.00    +0.000 A 
ENDROOT
BRANCH   1  10
ATOM      7  C   UNL     1      47.404   9.218  19.322  0.00  0.00    +0.000 C 
ATOM      8  C   UNL     1      48.738   9.724  18.775  0.00  0.00    +0.000 C 
ATOM      9  C   UNL     1      48.982   9.284  17.312  0.00  0.00    +0.000 C 
ATOM     10  N   UNL     1      49.478   7.904  17.277  0.00  0.00    +0.000 N 
ATOM     11  C   UNL     1      50.674   7.695  18.105  0.00  0.00    +0.000 C 
ATOM     12  C   UNL     1      50.397   8.111  19.560  0.00  0.00    +0.000 C 
ATOM     13  C   UNL     1      49.590   7.076  20.339  0.00  0.00    +0.000 C 
ATOM     14  O   UNL     1      49.832   9.431  19.663  0.00  0.00    +0.000 OA
ENDBRANCH   1  10
BRANCH   5  15
ATOM     15  C   UNL     1      47.994   3.205  17.005  0.00  0.00    +0.000 C 
ATOM     16  F   UNL     1      46.729   2.919  17.421  0.00  0.00    +0.000 F 
ATOM     17  F   UNL     1      48.338   2.204  16.151  0.00  0.00    +0.000 F 
ATOM     18  F   UNL     1      48.790   3.055  18.099  0.00  0.00    +0.000 F 
ENDBRANCH   5  15
BRANCH   3  19
ATOM     19  C   UNL     1      47.526   6.288  12.998  0.00  0.00    +0.000 C 
BRANCH  19  20
ATOM     20  C   UNL     1      46.062   6.697  12.783  0.00  0.00    +0.000 C 
BRANCH  20  21
ATOM     21  N   UNL     1      45.108   5.741  13.354  0.00  0.00    +0.000 N 
ATOM     22  C   UNL     1      44.627   4.849  12.361  0.00  0.00    +0.000 A 
ATOM     23  C   UNL     1      43.721   3.875  12.733  0.00  0.00    +0.000 A 
ATOM     24  C   UNL     1      43.294   3.012  11.749  0.00  0.00    +0.000 A 
ATOM     25  N   UNL     1      43.696   3.076  10.470  0.00  0.00    +0.000 NA
ATOM     26  C   UNL     1      44.583   4.063  10.209  0.00  0.00    +0.000 A 
ATOM     27  N   UNL     1      45.071   4.943  11.099  0.00  0.00    +0.000 NA
ATOM     28  H   UNL     1      44.312   6.210  13.778  0.00  0.00    +0.000 HD
BRANCH  26  29
ATOM     29  C   UNL     1      45.045   4.200   8.777  0.00  0.00    +0.000 C 
ATOM     30  N   UNL     1      44.422   3.375   7.867  0.00  0.00    +0.000 N 
ATOM     31  O   UNL     1      45.909   4.988   8.412  0.00  0.00    +0.000 OA
ATOM     32  H   UNL     1      43.711   2.723   8.175  0.00  0.00    +0.000 HD
ATOM     33  H   UNL     1      44.700   3.418   6.899  0.00  0.00    +0.000 HD
ENDBRANCH  26  29
ENDBRANCH  20  21
ENDBRANCH  19  20
ENDBRANCH   3  19
TORSDOF 6
ENDMDL
MODEL 7
REMARK VINA RESULT:    -6.858      4.518      8.625
REMARK INTER + INTRA:         -10.336
REMARK INTER:                  -9.403
REMARK INTRA:                  -0.933
REMARK UNBOUND:                -1.072
REMARK  Name = 
REMARK  8 active torsions:
REMARK  status: ('A' for Active; 'I' for Inactive)
REMARK    1  A    between atoms: C_1  and  C_2
REMARK    2  A    between atoms: N_4  and  C_5
REMARK    3  A    between atoms: C_7  and  C_8
REMARK    4  A    between atoms: C_8  and  C_9
REMARK    5  A    between atoms: C_9  and  N_10
REMARK    6  A    between atoms: C_15  and  C_16
REMARK    7  A    between atoms: C_21  and  C_22
REMARK    8  A    between atoms: C_28  and  C_29
REMARK                            x       y       z     vdW  Elec       q    Type
REMARK                         _______ _______ _______ _____ _____    ______ ____
ROOT
ATOM      1  C   UNL     1      48.854   6.870  16.827  0.00  0.00    +0.000 A 
ATOM      2  C   UNL     1      48.495   7.011  15.474  0.00  0.00    +0.000 A 
ATOM      3  C   UNL     1      47.982   5.943  14.711  0.00  0.00    +0.000 A 
ATOM      4  C   UNL     1      47.786   4.711  15.348  0.00  0.00    +0.000 A 
ATOM      5  C   UNL     1      48.126   4.527  16.685  0.00  0.00    +0.000 A 
ATOM      6  C   UNL     1      48.653   5.605  17.403  0.00  0.00    +0.000 A 
ENDROOT
BRANCH   1  10
ATOM      7  C   UNL     1      52.000   9.096  16.151  0.00  0.00    +0.000 C 
ATOM      8  C   UNL     1      51.489   9.208  17.587  0.00  0.00    +0.000 C 
ATOM      9  C   UNL     1      50.768   7.924  18.061  0.00  0.00    +0.000 C 
ATOM     10  N   UNL     1      49.389   7.906  17.560  0.00  0.00    +0.000 N 
ATOM     11  C   UNL     1      48.626   9.110  17.916  0.00  0.00    +0.000 C 
ATOM     12  C   UNL     1      49.347  10.371  17.408  0.00  0.00    +0.000 C 
ATOM     13  C   UNL     1      49.161  10.609  15.912  0.00  0.00    +0.000 C 
ATOM     14  O   UNL     1      50.732  10.414  17.798  0.00  0.00    +0.000 OA
ENDBRANCH   1  10
BRANCH   5  15
ATOM     15  C   UNL     1      47.965   3.184  17.351  0.00  0.00    +0.000 C 
ATOM     16  F   UNL     1      48.549   3.110  18.579  0.00  0.00    +0.000 F 
ATOM     17  F   UNL     1      46.658   2.857  17.541  0.00  0.00    +0.000 F 
ATOM     18  F   UNL     1      48.503   2.171  16.619  0.00  0.00    +0.000 F 
ENDBRANCH   5  15
BRANCH   3  19
ATOM     19  C   UNL     1      47.713   6.135  13.227  0.00  0.00    +0.000 C 
BRANCH  19  20
ATOM     20  C   UNL     1      46.276   6.576  12.915  0.00  0.00    +0.000 C 
BRANCH  20  21
ATOM     21  N   UNL     1      45.264   5.662  13.456  0.00  0.00    +0.000 N 
ATOM     22  C   UNL     1      44.725   4.838  12.434  0.00  0.00    +0.000 A 
ATOM     23  C   UNL     1      43.760   3.911  12.775  0.00  0.00    +0.000 A 
ATOM     24  C   UNL     1      43.277   3.112  11.763  0.00  0.00    +0.000 A 
ATOM     25  N   UNL     1      43.679   3.196  10.485  0.00  0.00    +0.000 NA
ATOM     26  C   UNL     1      44.626   4.134  10.256  0.00  0.00    +0.000 A 
ATOM     27  N   UNL     1      45.171   4.949  11.175  0.00  0.00    +0.000 NA
ATOM     28  H   UNL     1      44.500   6.165  13.900  0.00  0.00    +0.000 HD
BRANCH  26  29
ATOM     29  C   UNL     1      45.092   4.294   8.827  0.00  0.00    +0.000 C 
ATOM     30  N   UNL     1      44.495   3.460   7.908  0.00  0.00    +0.000 N 
ATOM     31  O   UNL     1      45.938   5.105   8.473  0.00  0.00    +0.000 OA
ATOM     32  H   UNL     1      43.799   2.787   8.207  0.00  0.00    +0.000 HD
ATOM     33  H   UNL     1      44.777   3.517   6.941  0.00  0.00    +0.000 HD
ENDBRANCH  26  29
ENDBRANCH  20  21
ENDBRANCH  19  20
ENDBRANCH   3  19
TORSDOF 6
ENDMDL
MODEL 8
REMARK VINA RESULT:    -6.741      3.022      4.749
REMARK INTER + INTRA:         -10.178
REMARK INTER:                  -9.157
REMARK INTRA:                  -1.021
REMARK UNBOUND:                -1.072
REMARK  Name = 
REMARK  8 active torsions:
REMARK  status: ('A' for Active; 'I' for Inactive)
REMARK    1  A    between atoms: C_1  and  C_2
REMARK    2  A    between atoms: N_4  and  C_5
REMARK    3  A    between atoms: C_7  and  C_8
REMARK    4  A    between atoms: C_8  and  C_9
REMARK    5  A    between atoms: C_9  and  N_10
REMARK    6  A    between atoms: C_15  and  C_16
REMARK    7  A    between atoms: C_21  and  C_22
REMARK    8  A    between atoms: C_28  and  C_29
REMARK                            x       y       z     vdW  Elec       q    Type
REMARK                         _______ _______ _______ _____ _____    ______ ____
ROOT
ATOM      1  C   UNL     1      46.809   6.892  12.488  0.00  0.00    +0.000 A 
ATOM      2  C   UNL     1      47.344   5.832  13.243  0.00  0.00    +0.000 A 
ATOM      3  C   UNL     1      46.593   4.689  13.582  0.00  0.00    +0.000 A 
ATOM      4  C   UNL     1      45.279   4.597  13.105  0.00  0.00    +0.000 A 
ATOM      5  C   UNL     1      44.710   5.622  12.354  0.00  0.00    +0.000 A 
ATOM      6  C   UNL     1      45.480   6.751  12.057  0.00  0.00    +0.000 A 
ENDROOT
BRANCH   1  10
ATOM      7  C   UNL     1      48.302   9.642  14.837  0.00  0.00    +0.000 C 
ATOM      8  C   UNL     1      48.268  10.067  13.370  0.00  0.00    +0.000 C 
ATOM      9  C   UNL     1      47.129   9.380  12.581  0.00  0.00    +0.000 C 
ATOM     10  N   UNL     1      47.534   8.025  12.189  0.00  0.00    +0.000 N 
ATOM     11  C   UNL     1      48.799   7.989  11.443  0.00  0.00    +0.000 C 
ATOM     12  C   UNL     1      49.922   8.651  12.261  0.00  0.00    +0.000 C 
ATOM     13  C   UNL     1      50.469   7.756  13.369  0.00  0.00    +0.000 C 
ATOM     14  O   UNL     1      49.561   9.958  12.745  0.00  0.00    +0.000 OA
ENDBRANCH   1  10
BRANCH   5  15
ATOM     15  C   UNL     1      43.278   5.543  11.891  0.00  0.00    +0.000 C 
ATOM     16  F   UNL     1      42.384   5.380  12.906  0.00  0.00    +0.000 F 
ATOM     17  F   UNL     1      42.887   6.665  11.229  0.00  0.00    +0.000 F 
ATOM     18  F   UNL     1      43.062   4.507  11.034  0.00  0.00    +0.000 F 
ENDBRANCH   5  15
BRANCH   3  19
ATOM     19  C   UNL     1      47.198   3.628  14.488  0.00  0.00    +0.000 C 
BRANCH  19  20
ATOM     20  C   UNL     1      47.068   3.951  15.983  0.00  0.00    +0.000 C 
BRANCH  20  21
ATOM     21  N   UNL     1      47.710   5.216  16.356  0.00  0.00    +0.000 N 
ATOM     22  C   UNL     1      49.016   4.993  16.864  0.00  0.00    +0.000 A 
ATOM     23  C   UNL     1      49.765   6.084  17.258  0.00  0.00    +0.000 A 
ATOM     24  C   UNL     1      51.036   5.833  17.723  0.00  0.00    +0.000 A 
ATOM     25  N   UNL     1      51.568   4.604  17.824  0.00  0.00    +0.000 NA
ATOM     26  C   UNL     1      50.755   3.606  17.413  0.00  0.00    +0.000 A 
ATOM     27  N   UNL     1      49.508   3.748  16.931  0.00  0.00    +0.000 NA
ATOM     28  H   UNL     1      47.173   5.719  17.058  0.00  0.00    +0.000 HD
BRANCH  26  29
ATOM     29  C   UNL     1      51.292   2.198  17.536  0.00  0.00    +0.000 C 
ATOM     30  N   UNL     1      52.337   2.033  18.417  0.00  0.00    +0.000 N 
ATOM     31  O   UNL     1      50.847   1.242  16.911  0.00  0.00    +0.000 OA
ATOM     32  H   UNL     1      52.703   2.827  18.928  0.00  0.00    +0.000 HD
ATOM     33  H   UNL     1      52.740   1.115  18.529  0.00  0.00    +0.000 HD
ENDBRANCH  26  29
ENDBRANCH  20  21
ENDBRANCH  19  20
ENDBRANCH   3  19
TORSDOF 6
ENDMDL
MODEL 9
REMARK VINA RESULT:    -6.676      2.876      4.313
REMARK INTER + INTRA:         -10.090
REMARK INTER:                  -8.707
REMARK INTRA:                  -1.383
REMARK UNBOUND:                -1.072
REMARK  Name = 
REMARK  8 active torsions:
REMARK  status: ('A' for Active; 'I' for Inactive)
REMARK    1  A    between atoms: C_1  and  C_2
REMARK    2  A    between atoms: N_4  and  C_5
REMARK    3  A    between atoms: C_7  and  C_8
REMARK    4  A    between atoms: C_8  and  C_9
REMARK    5  A    between atoms: C_9  and  N_10
REMARK    6  A    between atoms: C_15  and  C_16
REMARK    7  A    between atoms: C_21  and  C_22
REMARK    8  A    between atoms: C_28  and  C_29
REMARK                            x       y       z     vdW  Elec       q    Type
REMARK                         _______ _______ _______ _____ _____    ______ ____
ROOT
ATOM      1  C   UNL     1      45.973   4.809  13.432  0.00  0.00    +0.000 A 
ATOM      2  C   UNL     1      46.503   4.356  14.654  0.00  0.00    +0.000 A 
ATOM      3  C   UNL     1      47.603   4.975  15.280  0.00  0.00    +0.000 A 
ATOM      4  C   UNL     1      48.154   6.111  14.673  0.00  0.00    +0.000 A 
ATOM      5  C   UNL     1      47.662   6.595  13.464  0.00  0.00    +0.000 A 
ATOM      6  C   UNL     1      46.582   5.939  12.863  0.00  0.00    +0.000 A 
ENDROOT
BRANCH   1  10
ATOM      7  C   UNL     1      43.010   6.288  11.349  0.00  0.00    +0.000 C 
ATOM      8  C   UNL     1      42.776   4.837  11.769  0.00  0.00    +0.000 C 
ATOM      9  C   UNL     1      43.511   4.476  13.081  0.00  0.00    +0.000 C 
ATOM     10  N   UNL     1      44.921   4.180  12.804  0.00  0.00    +0.000 N 
ATOM     11  C   UNL     1      45.107   3.140  11.784  0.00  0.00    +0.000 C 
ATOM     12  C   UNL     1      44.393   3.536  10.479  0.00  0.00    +0.000 C 
ATOM     13  C   UNL     1      45.160   4.573   9.663  0.00  0.00    +0.000 C 
ATOM     14  O   UNL     1      43.021   3.916  10.690  0.00  0.00    +0.000 OA
ENDBRANCH   1  10
BRANCH   5  15
ATOM     15  C   UNL     1      48.294   7.784  12.788  0.00  0.00    +0.000 C 
ATOM     16  F   UNL     1      49.313   8.340  13.501  0.00  0.00    +0.000 F 
ATOM     17  F   UNL     1      48.819   7.467  11.574  0.00  0.00    +0.000 F 
ATOM     18  F   UNL     1      47.405   8.790  12.561  0.00  0.00    +0.000 F 
ENDBRANCH   5  15
BRANCH   3  19
ATOM     19  C   UNL     1      48.191   4.372  16.546  0.00  0.00    +0.000 C 
BRANCH  19  20
ATOM     20  C   UNL     1      47.655   5.009  17.836  0.00  0.00    +0.000 C 
BRANCH  20  21
ATOM     21  N   UNL     1      48.701   5.253  18.834  0.00  0.00    +0.000 N 
ATOM     22  C   UNL     1      49.012   6.636  18.917  0.00  0.00    +0.000 A 
ATOM     23  C   UNL     1      49.977   7.041  19.818  0.00  0.00    +0.000 A 
ATOM     24  C   UNL     1      50.236   8.391  19.890  0.00  0.00    +0.000 A 
ATOM     25  N   UNL     1      49.619   9.313  19.133  0.00  0.00    +0.000 NA
ATOM     26  C   UNL     1      48.692   8.814  18.285  0.00  0.00    +0.000 A 
ATOM     27  N   UNL     1      48.357   7.519  18.152  0.00  0.00    +0.000 NA
ATOM     28  H   UNL     1      49.555   4.744  18.618  0.00  0.00    +0.000 HD
BRANCH  26  29
ATOM     29  C   UNL     1      47.990   9.806  17.386  0.00  0.00    +0.000 C 
ATOM     30  N   UNL     1      47.665   9.346  16.130  0.00  0.00    +0.000 N 
ATOM     31  O   UNL     1      47.708  10.949  17.723  0.00  0.00    +0.000 OA
ATOM     32  H   UNL     1      47.904   8.401  15.855  0.00  0.00    +0.000 HD
ATOM     33  H   UNL     1      47.204   9.971  15.486  0.00  0.00    +0.000 HD
ENDBRANCH  26  29
ENDBRANCH  20  21
ENDBRANCH  19  20
ENDBRANCH   3  19
TORSDOF 6
ENDMDL
