MODEL 1
REMARK VINA RESULT:    -7.764      0.000      0.000
REMARK INTER + INTRA:          -9.917
REMARK INTER:                  -9.580
REMARK INTRA:                  -0.337
REMARK UNBOUND:                -0.337
REMARK  Name = 
REMARK  5 active torsions:
REMARK  status: ('A' for Active; 'I' for Inactive)
REMARK    1  A    between atoms: C_1  and  C_2
REMARK    2  A    between atoms: C_4  and  O_5
REMARK    3  A    between atoms: O_5  and  C_6
REMARK    4  A    between atoms: C_6  and  C_7
REMARK    5  A    between atoms: C_15  and  C_16
REMARK                            x       y       z     vdW  Elec       q    Type
REMARK                         _______ _______ _______ _____ _____    ______ ____
ROOT
ATOM      1  C   UNL     1      46.763   0.174   7.657  0.00  0.00    +0.000 C 
ATOM      2  C   UNL     1      46.173   1.536   7.902  0.00  0.00    +0.000 A 
ATOM      3  C   UNL     1      45.223   1.691   8.924  0.00  0.00    +0.000 A 
ATOM      4  C   UNL     1      44.707   2.951   9.185  0.00  0.00    +0.000 A 
ATOM      5  N   UNL     1      45.045   4.053   8.487  0.00  0.00    +0.000 NA
ATOM      6  C   UNL     1      45.956   3.885   7.498  0.00  0.00    +0.000 A 
ATOM      7  C   UNL     1      46.543   2.669   7.157  0.00  0.00    +0.000 A 
ENDROOT
BRANCH   7   8
ATOM      8  C   UNL     1      47.558   2.624   6.070  0.00  0.00    +0.000 C 
ATOM      9  N   UNL     1      48.878   2.590   6.426  0.00  0.00    +0.000 N 
ATOM     10  O   UNL     1      47.247   2.625   4.884  0.00  0.00    +0.000 OA
ATOM     11  H   UNL     1      49.221   2.789   7.355  0.00  0.00    +0.000 HD
ATOM     12  H   UNL     1      49.545   2.634   5.665  0.00  0.00    +0.000 HD
ENDBRANCH   7   8
BRANCH   4  13
ATOM     13  O   UNL     1      43.778   3.051  10.201  0.00  0.00    +0.000 OA
BRANCH  13  14
ATOM     14  C   UNL     1      43.754   4.361  10.777  0.00  0.00    +0.000 C 
BRANCH  14  15
ATOM     15  C   UNL     1      44.864   4.514  11.784  0.00  0.00    +0.000 A 
ATOM     16  C   UNL     1      45.612   5.690  11.905  0.00  0.00    +0.000 A 
ATOM     17  C   UNL     1      46.666   5.749  12.813  0.00  0.00    +0.000 A 
ATOM     18  C   UNL     1      46.950   4.621  13.565  0.00  0.00    +0.000 A 
ATOM     19  N   UNL     1      46.267   3.463  13.464  0.00  0.00    +0.000 NA
ATOM     20  C   UNL     1      45.248   3.435  12.575  0.00  0.00    +0.000 A 
ENDBRANCH  14  15
ENDBRANCH  13  14
ENDBRANCH   4  13
TORSDOF 4
ENDMDL
MODEL 2
REMARK VINA RESULT:    -7.426      2.129      6.086
REMARK INTER + INTRA:          -9.499
REMARK INTER:                  -9.348
REMARK INTRA:                  -0.151
REMARK UNBOUND:                -0.337
REMARK  Name = 
REMARK  5 active torsions:
REMARK  status: ('A' for Active; 'I' for Inactive)
REMARK    1  A    between atoms: C_1  and  C_2
REMARK    2  A    between atoms: C_4  and  O_5
REMARK    3  A    between atoms: O_5  and  C_6
REMARK    4  A    between atoms: C_6  and  C_7
REMARK    5  A    between atoms: C_15  and  C_16
REMARK                            x       y       z     vdW  Elec       q    Type
REMARK                         _______ _______ _______ _____ _____    ______ ____
ROOT
ATOM      1  C   UNL     1      46.654   7.305  11.836  0.00  0.00    +0.000 C 
ATOM      2  C   UNL     1      46.156   5.890  11.941  0.00  0.00    +0.000 A 
ATOM      3  C   UNL     1      45.302   5.393  10.944  0.00  0.00    +0.000 A 
ATOM      4  C   UNL     1      44.873   4.076  11.011  0.00  0.00    +0.000 A 
ATOM      5  N   UNL     1      45.209   3.235  12.008  0.00  0.00    +0.000 NA
ATOM      6  C   UNL     1      46.025   3.731  12.968  0.00  0.00    +0.000 A 
ATOM      7  C   UNL     1      46.520   5.032  12.995  0.00  0.00    +0.000 A 
ENDROOT
BRANCH   7   8
ATOM      8  C   UNL     1      47.438   5.446  14.091  0.00  0.00    +0.000 C 
ATOM      9  N   UNL     1      47.060   5.181  15.378  0.00  0.00    +0.000 N 
ATOM     10  O   UNL     1      48.501   6.016  13.874  0.00  0.00    +0.000 OA
ATOM     11  H   UNL     1      46.126   4.906  15.652  0.00  0.00    +0.000 HD
ATOM     12  H   UNL     1      47.669   5.541  16.103  0.00  0.00    +0.000 HD
ENDBRANCH   7   8
BRANCH   4  13
ATOM     13  O   UNL     1      44.037   3.637  10.004  0.00  0.00    +0.000 OA
BRANCH  13  14
ATOM     14  C   UNL     1      44.493   4.051   8.712  0.00  0.00    +0.000 C 
BRANCH  14  15
ATOM     15  C   UNL     1      45.541   3.102   8.193  0.00  0.00    +0.000 A 
ATOM     16  C   UNL     1      46.512   3.489   7.264  0.00  0.00    +0.000 A 
ATOM     17  C   UNL     1      47.417   2.550   6.775  0.00  0.00    +0.000 A 
ATOM     18  C   UNL     1      47.313   1.243   7.222  0.00  0.00    +0.000 A 
ATOM     19  N   UNL     1      46.380   0.825   8.101  0.00  0.00    +0.000 NA
ATOM     20  C   UNL     1      45.516   1.759   8.560  0.00  0.00    +0.000 A 
ENDBRANCH  14  15
ENDBRANCH  13  14
ENDBRANCH   4  13
TORSDOF 4
ENDMDL
MODEL 3
REMARK VINA RESULT:    -7.328      2.443      6.031
REMARK INTER + INTRA:          -9.379
REMARK INTER:                  -8.946
REMARK INTRA:                  -0.433
REMARK UNBOUND:                -0.337
REMARK  Name = 
REMARK  5 active torsions:
REMARK  status: ('A' for Active; 'I' for Inactive)
REMARK    1  A    between atoms: C_1  and  C_2
REMARK    2  A    between atoms: C_4  and  O_5
REMARK    3  A    between atoms: O_5  and  C_6
REMARK    4  A    between atoms: C_6  and  C_7
REMARK    5  A    between atoms: C_15  and  C_16
REMARK                            x       y       z     vdW  Elec       q    Type
REMARK                         _______ _______ _______ _____ _____    ______ ____
ROOT
ATOM      1  C   UNL     1      46.944   4.139  14.578  0.00  0.00    +0.000 C 
ATOM      2  C   UNL     1      46.503   4.723  13.264  0.00  0.00    +0.000 A 
ATOM      3  C   UNL     1      45.621   3.990  12.455  0.00  0.00    +0.000 A 
ATOM      4  C   UNL     1      45.176   4.541  11.263  0.00  0.00    +0.000 A 
ATOM      5  N   UNL     1      45.567   5.747  10.810  0.00  0.00    +0.000 NA
ATOM      6  C   UNL     1      46.427   6.438  11.596  0.00  0.00    +0.000 A 
ATOM      7  C   UNL     1      46.929   5.985  12.813  0.00  0.00    +0.000 A 
ENDROOT
BRANCH   7   8
ATOM      8  C   UNL     1      47.842   6.857  13.601  0.00  0.00    +0.000 C 
ATOM      9  N   UNL     1      47.319   7.986  14.169  0.00  0.00    +0.000 N 
ATOM     10  O   UNL     1      49.032   6.599  13.743  0.00  0.00    +0.000 OA
ATOM     11  H   UNL     1      46.416   8.374  13.935  0.00  0.00    +0.000 HD
ATOM     12  H   UNL     1      47.980   8.596  14.634  0.00  0.00    +0.000 HD
ENDBRANCH   7   8
BRANCH   4  13
ATOM     13  O   UNL     1      44.308   3.780  10.506  0.00  0.00    +0.000 OA
BRANCH  13  14
ATOM     14  C   UNL     1      44.410   4.083   9.111  0.00  0.00    +0.000 C 
BRANCH  14  15
ATOM     15  C   UNL     1      45.435   3.198   8.452  0.00  0.00    +0.000 A 
ATOM     16  C   UNL     1      46.311   3.666   7.468  0.00  0.00    +0.000 A 
ATOM     17  C   UNL     1      47.196   2.783   6.852  0.00  0.00    +0.000 A 
ATOM     18  C   UNL     1      47.167   1.452   7.231  0.00  0.00    +0.000 A 
ATOM     19  N   UNL     1      46.325   0.957   8.161  0.00  0.00    +0.000 NA
ATOM     20  C   UNL     1      45.478   1.837   8.744  0.00  0.00    +0.000 A 
ENDBRANCH  14  15
ENDBRANCH  13  14
ENDBRANCH   4  13
TORSDOF 4
ENDMDL
MODEL 4
REMARK VINA RESULT:    -7.276      1.488      2.059
REMARK INTER + INTRA:          -9.315
REMARK INTER:                  -9.362
REMARK INTRA:                   0.047
REMARK UNBOUND:                -0.337
REMARK  Name = 
REMARK  5 active torsions:
REMARK  status: ('A' for Active; 'I' for Inactive)
REMARK    1  A    between atoms: C_1  and  C_2
REMARK    2  A    between atoms: C_4  and  O_5
REMARK    3  A    between atoms: O_5  and  C_6
REMARK    4  A    between atoms: C_6  and  C_7
REMARK    5  A    between atoms: C_15  and  C_16
REMARK                            x       y       z     vdW  Elec       q    Type
REMARK                         _______ _______ _______ _____ _____    ______ ____
ROOT
ATOM      1  C   UNL     1      47.142   3.869   6.695  0.00  0.00    +0.000 C 
ATOM      2  C   UNL     1      46.173   3.341   7.717  0.00  0.00    +0.000 A 
ATOM      3  C   UNL     1      45.286   4.234   8.339  0.00  0.00    +0.000 A 
ATOM      4  C   UNL     1      44.362   3.749   9.251  0.00  0.00    +0.000 A 
ATOM      5  N   UNL     1      44.278   2.452   9.606  0.00  0.00    +0.000 NA
ATOM      6  C   UNL     1      45.147   1.604   9.005  0.00  0.00    +0.000 A 
ATOM      7  C   UNL     1      46.108   1.981   8.072  0.00  0.00    +0.000 A 
ENDROOT
BRANCH   7   8
ATOM      8  C   UNL     1      46.982   0.945   7.458  0.00  0.00    +0.000 C 
ATOM      9  N   UNL     1      46.682  -0.368   7.694  0.00  0.00    +0.000 N 
ATOM     10  O   UNL     1      47.952   1.233   6.766  0.00  0.00    +0.000 OA
ATOM     11  H   UNL     1      46.038  -0.685   8.405  0.00  0.00    +0.000 HD
ATOM     12  H   UNL     1      47.338  -1.047   7.325  0.00  0.00    +0.000 HD
ENDBRANCH   7   8
BRANCH   4  13
ATOM     13  O   UNL     1      43.512   4.668   9.832  0.00  0.00    +0.000 OA
BRANCH  13  14
ATOM     14  C   UNL     1      43.427   4.495  11.250  0.00  0.00    +0.000 C 
BRANCH  14  15
ATOM     15  C   UNL     1      44.641   5.079  11.926  0.00  0.00    +0.000 A 
ATOM     16  C   UNL     1      45.201   6.301  11.540  0.00  0.00    +0.000 A 
ATOM     17  C   UNL     1      46.360   6.758  12.163  0.00  0.00    +0.000 A 
ATOM     18  C   UNL     1      46.933   5.969  13.146  0.00  0.00    +0.000 A 
ATOM     19  N   UNL     1      46.436   4.777  13.533  0.00  0.00    +0.000 NA
ATOM     20  C   UNL     1      45.309   4.359  12.912  0.00  0.00    +0.000 A 
ENDBRANCH  14  15
ENDBRANCH  13  14
ENDBRANCH   4  13
TORSDOF 4
ENDMDL
MODEL 5
REMARK VINA RESULT:    -6.974      2.036      6.208
REMARK INTER + INTRA:          -8.942
REMARK INTER:                  -8.722
REMARK INTRA:                  -0.220
REMARK UNBOUND:                -0.337
REMARK  Name = 
REMARK  5 active torsions:
REMARK  status: ('A' for Active; 'I' for Inactive)
REMARK    1  A    between atoms: C_1  and  C_2
REMARK    2  A    between atoms: C_4  and  O_5
REMARK    3  A    between atoms: O_5  and  C_6
REMARK    4  A    between atoms: C_6  and  C_7
REMARK    5  A    between atoms: C_15  and  C_16
REMARK                            x       y       z     vdW  Elec       q    Type
REMARK                         _______ _______ _______ _____ _____    ______ ____
ROOT
ATOM      1  C   UNL     1      43.612   4.416  13.246  0.00  0.00    +0.000 C 
ATOM      2  C   UNL     1      44.294   4.567  11.914  0.00  0.00    +0.000 A 
ATOM      3  C   UNL     1      44.087   3.588  10.929  0.00  0.00    +0.000 A 
ATOM      4  C   UNL     1      44.677   3.743   9.684  0.00  0.00    +0.000 A 
ATOM      5  N   UNL     1      45.476   4.779   9.363  0.00  0.00    +0.000 NA
ATOM      6  C   UNL     1      45.675   5.710  10.327  0.00  0.00    +0.000 A 
ATOM      7  C   UNL     1      45.126   5.659  11.606  0.00  0.00    +0.000 A 
ENDROOT
BRANCH   7   8
ATOM      8  C   UNL     1      45.394   6.764  12.565  0.00  0.00    +0.000 C 
ATOM      9  N   UNL     1      44.579   7.862  12.521  0.00  0.00    +0.000 N 
ATOM     10  O   UNL     1      46.315   6.721  13.371  0.00  0.00    +0.000 OA
ATOM     11  H   UNL     1      43.938   8.065  11.767  0.00  0.00    +0.000 HD
ATOM     12  H   UNL     1      44.833   8.628  13.135  0.00  0.00    +0.000 HD
ENDBRANCH   7   8
BRANCH   4  13
ATOM     13  O   UNL     1      44.439   2.755   8.750  0.00  0.00    +0.000 OA
BRANCH  13  14
ATOM     14  C   UNL     1      45.519   1.819   8.677  0.00  0.00    +0.000 C 
BRANCH  14  15
ATOM     15  C   UNL     1      46.383   2.103   7.476  0.00  0.00    +0.000 A 
ATOM     16  C   UNL     1      46.054   3.074   6.525  0.00  0.00    +0.000 A 
ATOM     17  C   UNL     1      46.862   3.247   5.404  0.00  0.00    +0.000 A 
ATOM     18  C   UNL     1      47.971   2.430   5.260  0.00  0.00    +0.000 A 
ATOM     19  N   UNL     1      48.312   1.469   6.143  0.00  0.00    +0.000 NA
ATOM     20  C   UNL     1      47.510   1.325   7.223  0.00  0.00    +0.000 A 
ENDBRANCH  14  15
ENDBRANCH  13  14
ENDBRANCH   4  13
TORSDOF 4
ENDMDL
MODEL 6
REMARK VINA RESULT:    -6.327      2.995      6.447
REMARK INTER + INTRA:          -8.144
REMARK INTER:                  -8.125
REMARK INTRA:                  -0.019
REMARK UNBOUND:                -0.337
REMARK  Name = 
REMARK  5 active torsions:
REMARK  status: ('A' for Active; 'I' for Inactive)
REMARK    1  A    between atoms: C_1  and  C_2
REMARK    2  A    between atoms: C_4  and  O_5
REMARK    3  A    between atoms: O_5  and  C_6
REMARK    4  A    between atoms: C_6  and  C_7
REMARK    5  A    between atoms: C_15  and  C_16
REMARK                            x       y       z     vdW  Elec       q    Type
REMARK                         _______ _______ _______ _____ _____    ______ ____
ROOT
ATOM      1  C   UNL     1      47.897   7.572  12.404  0.00  0.00    +0.000 C 
ATOM      2  C   UNL     1      46.533   7.066  12.022  0.00  0.00    +0.000 A 
ATOM      3  C   UNL     1      46.350   5.689  11.819  0.00  0.00    +0.000 A 
ATOM      4  C   UNL     1      45.086   5.211  11.509  0.00  0.00    +0.000 A 
ATOM      5  N   UNL     1      44.006   6.003  11.360  0.00  0.00    +0.000 NA
ATOM      6  C   UNL     1      44.201   7.330  11.549  0.00  0.00    +0.000 A 
ATOM      7  C   UNL     1      45.422   7.916  11.870  0.00  0.00    +0.000 A 
ENDROOT
BRANCH   7   8
ATOM      8  C   UNL     1      45.497   9.387  12.086  0.00  0.00    +0.000 C 
ATOM      9  N   UNL     1      44.391  10.018  12.584  0.00  0.00    +0.000 N 
ATOM     10  O   UNL     1      46.503  10.036  11.824  0.00  0.00    +0.000 OA
ATOM     11  H   UNL     1      43.472   9.602  12.632  0.00  0.00    +0.000 HD
ATOM     12  H   UNL     1      44.448  11.028  12.649  0.00  0.00    +0.000 HD
ENDBRANCH   7   8
BRANCH   4  13
ATOM     13  O   UNL     1      44.959   3.849  11.322  0.00  0.00    +0.000 OA
BRANCH  13  14
ATOM     14  C   UNL     1      44.216   3.539  10.139  0.00  0.00    +0.000 C 
BRANCH  14  15
ATOM     15  C   UNL     1      45.149   3.231   8.996  0.00  0.00    +0.000 A 
ATOM     16  C   UNL     1      45.657   1.950   8.765  0.00  0.00    +0.000 A 
ATOM     17  C   UNL     1      46.564   1.741   7.729  0.00  0.00    +0.000 A 
ATOM     18  C   UNL     1      46.947   2.828   6.961  0.00  0.00    +0.000 A 
ATOM     19  N   UNL     1      46.495   4.083   7.163  0.00  0.00    +0.000 NA
ATOM     20  C   UNL     1      45.614   4.255   8.175  0.00  0.00    +0.000 A 
ENDBRANCH  14  15
ENDBRANCH  13  14
ENDBRANCH   4  13
TORSDOF 4
ENDMDL
MODEL 7
REMARK VINA RESULT:    -6.097      2.216      6.543
REMARK INTER + INTRA:          -7.860
REMARK INTER:                  -7.645
REMARK INTRA:                  -0.214
REMARK UNBOUND:                -0.337
REMARK  Name = 
REMARK  5 active torsions:
REMARK  status: ('A' for Active; 'I' for Inactive)
REMARK    1  A    between atoms: C_1  and  C_2
REMARK    2  A    between atoms: C_4  and  O_5
REMARK    3  A    between atoms: O_5  and  C_6
REMARK    4  A    between atoms: C_6  and  C_7
REMARK    5  A    between atoms: C_15  and  C_16
REMARK                            x       y       z     vdW  Elec       q    Type
REMARK                         _______ _______ _______ _____ _____    ______ ____
ROOT
ATOM      1  C   UNL     1      48.012   6.645  14.051  0.00  0.00    +0.000 C 
ATOM      2  C   UNL     1      47.023   5.685  13.447  0.00  0.00    +0.000 A 
ATOM      3  C   UNL     1      46.454   5.990  12.200  0.00  0.00    +0.000 A 
ATOM      4  C   UNL     1      45.576   5.090  11.617  0.00  0.00    +0.000 A 
ATOM      5  N   UNL     1      45.204   3.932  12.196  0.00  0.00    +0.000 NA
ATOM      6  C   UNL     1      45.753   3.657  13.403  0.00  0.00    +0.000 A 
ATOM      7  C   UNL     1      46.651   4.483  14.075  0.00  0.00    +0.000 A 
ENDROOT
BRANCH   7   8
ATOM      8  C   UNL     1      47.210   4.050  15.384  0.00  0.00    +0.000 C 
ATOM      9  N   UNL     1      47.834   2.834  15.443  0.00  0.00    +0.000 N 
ATOM     10  O   UNL     1      47.119   4.737  16.394  0.00  0.00    +0.000 OA
ATOM     11  H   UNL     1      47.773   2.128  14.722  0.00  0.00    +0.000 HD
ATOM     12  H   UNL     1      48.137   2.534  16.362  0.00  0.00    +0.000 HD
ENDBRANCH   7   8
BRANCH   4  13
ATOM     13  O   UNL     1      45.046   5.436  10.390  0.00  0.00    +0.000 OA
BRANCH  13  14
ATOM     14  C   UNL     1      44.307   4.359   9.805  0.00  0.00    +0.000 C 
BRANCH  14  15
ATOM     15  C   UNL     1      45.190   3.545   8.896  0.00  0.00    +0.000 A 
ATOM     16  C   UNL     1      45.294   2.154   8.995  0.00  0.00    +0.000 A 
ATOM     17  C   UNL     1      46.175   1.464   8.167  0.00  0.00    +0.000 A 
ATOM     18  C   UNL     1      46.939   2.191   7.269  0.00  0.00    +0.000 A 
ATOM     19  N   UNL     1      46.884   3.534   7.156  0.00  0.00    +0.000 NA
ATOM     20  C   UNL     1      46.019   4.178   7.973  0.00  0.00    +0.000 A 
ENDBRANCH  14  15
ENDBRANCH  13  14
ENDBRANCH   4  13
TORSDOF 4
ENDMDL
MODEL 8
REMARK VINA RESULT:    -6.079      3.974      6.278
REMARK INTER + INTRA:          -7.838
REMARK INTER:                  -7.468
REMARK INTRA:                  -0.370
REMARK UNBOUND:                -0.337
REMARK  Name = 
REMARK  5 active torsions:
REMARK  status: ('A' for Active; 'I' for Inactive)
REMARK    1  A    between atoms: C_1  and  C_2
REMARK    2  A    between atoms: C_4  and  O_5
REMARK    3  A    between atoms: O_5  and  C_6
REMARK    4  A    between atoms: C_6  and  C_7
REMARK    5  A    between atoms: C_15  and  C_16
REMARK                            x       y       z     vdW  Elec       q    Type
REMARK                         _______ _______ _______ _____ _____    ______ ____
ROOT
ATOM      1  C   UNL     1      45.147   7.508  11.572  0.00  0.00    +0.000 C 
ATOM      2  C   UNL     1      45.456   6.188  12.222  0.00  0.00    +0.000 A 
ATOM      3  C   UNL     1      46.406   6.144  13.256  0.00  0.00    +0.000 A 
ATOM      4  C   UNL     1      46.664   4.939  13.889  0.00  0.00    +0.000 A 
ATOM      5  N   UNL     1      46.071   3.778  13.550  0.00  0.00    +0.000 NA
ATOM      6  C   UNL     1      45.165   3.833  12.545  0.00  0.00    +0.000 A 
ATOM      7  C   UNL     1      44.823   4.989  11.847  0.00  0.00    +0.000 A 
ENDROOT
BRANCH   7   8
ATOM      8  C   UNL     1      43.785   4.924  10.783  0.00  0.00    +0.000 C 
ATOM      9  N   UNL     1      44.191   4.635   9.509  0.00  0.00    +0.000 N 
ATOM     10  O   UNL     1      42.600   5.130  11.012  0.00  0.00    +0.000 OA
ATOM     11  H   UNL     1      45.153   4.654   9.200  0.00  0.00    +0.000 HD
ATOM     12  H   UNL     1      43.473   4.672   8.795  0.00  0.00    +0.000 HD
ENDBRANCH   7   8
BRANCH   4  13
ATOM     13  O   UNL     1      47.604   4.950  14.901  0.00  0.00    +0.000 OA
BRANCH  13  14
ATOM     14  C   UNL     1      47.297   4.000  15.926  0.00  0.00    +0.000 C 
BRANCH  14  15
ATOM     15  C   UNL     1      48.562   3.449  16.530  0.00  0.00    +0.000 A 
ATOM     16  C   UNL     1      49.414   4.221  17.327  0.00  0.00    +0.000 A 
ATOM     17  C   UNL     1      50.600   3.672  17.806  0.00  0.00    +0.000 A 
ATOM     18  C   UNL     1      50.907   2.366  17.461  0.00  0.00    +0.000 A 
ATOM     19  N   UNL     1      50.123   1.595  16.680  0.00  0.00    +0.000 NA
ATOM     20  C   UNL     1      48.977   2.154  16.230  0.00  0.00    +0.000 A 
ENDBRANCH  14  15
ENDBRANCH  13  14
ENDBRANCH   4  13
TORSDOF 4
ENDMDL
MODEL 9
REMARK VINA RESULT:    -5.837      4.536      6.580
REMARK INTER + INTRA:          -7.539
REMARK INTER:                  -7.131
REMARK INTRA:                  -0.408
REMARK UNBOUND:                -0.337
REMARK  Name = 
REMARK  5 active torsions:
REMARK  status: ('A' for Active; 'I' for Inactive)
REMARK    1  A    between atoms: C_1  and  C_2
REMARK    2  A    between atoms: C_4  and  O_5
REMARK    3  A    between atoms: O_5  and  C_6
REMARK    4  A    between atoms: C_6  and  C_7
REMARK    5  A    between atoms: C_15  and  C_16
REMARK                            x       y       z     vdW  Elec       q    Type
REMARK                         _______ _______ _______ _____ _____    ______ ____
ROOT
ATOM      1  C   UNL     1      45.274   7.682  11.587  0.00  0.00    +0.000 C 
ATOM      2  C   UNL     1      45.419   6.352  12.274  0.00  0.00    +0.000 A 
ATOM      3  C   UNL     1      46.516   6.142  13.125  0.00  0.00    +0.000 A 
ATOM      4  C   UNL     1      46.634   4.935  13.796  0.00  0.00    +0.000 A 
ATOM      5  N   UNL     1      45.759   3.920  13.659  0.00  0.00    +0.000 NA
ATOM      6  C   UNL     1      44.711   4.133  12.827  0.00  0.00    +0.000 A 
ATOM      7  C   UNL     1      44.492   5.308  12.111  0.00  0.00    +0.000 A 
ENDROOT
BRANCH   7   8
ATOM      8  C   UNL     1      43.281   5.430  11.255  0.00  0.00    +0.000 C 
ATOM      9  N   UNL     1      42.169   6.013  11.798  0.00  0.00    +0.000 N 
ATOM     10  O   UNL     1      43.252   5.022  10.101  0.00  0.00    +0.000 OA
ATOM     11  H   UNL     1      42.042   6.188  12.785  0.00  0.00    +0.000 HD
ATOM     12  H   UNL     1      41.339   6.014  11.216  0.00  0.00    +0.000 HD
ENDBRANCH   7   8
BRANCH   4  13
ATOM     13  O   UNL     1      47.729   4.780  14.622  0.00  0.00    +0.000 OA
BRANCH  13  14
ATOM     14  C   UNL     1      47.380   4.148  15.858  0.00  0.00    +0.000 C 
BRANCH  14  15
ATOM     15  C   UNL     1      47.865   4.968  17.025  0.00  0.00    +0.000 A 
ATOM     16  C   UNL     1      47.162   5.049  18.231  0.00  0.00    +0.000 A 
ATOM     17  C   UNL     1      47.629   5.873  19.252  0.00  0.00    +0.000 A 
ATOM     18  C   UNL     1      48.783   6.606  19.028  0.00  0.00    +0.000 A 
ATOM     19  N   UNL     1      49.479   6.572  17.873  0.00  0.00    +0.000 NA
ATOM     20  C   UNL     1      49.002   5.761  16.901  0.00  0.00    +0.000 A 
ENDBRANCH  14  15
ENDBRANCH  13  14
ENDBRANCH   4  13
TORSDOF 4
ENDMDL
