MODEL 1
REMARK VINA RESULT:    -6.349      0.000      0.000
REMARK INTER + INTRA:          -9.373
REMARK INTER:                  -8.576
REMARK INTRA:                  -0.797
REMARK UNBOUND:                -0.797
REMARK  Name = 
REMARK  11 active torsions:
REMARK  status: ('A' for Active; 'I' for Inactive)
REMARK    1  A    between atoms: C_1  and  C_2
REMARK    2  A    between atoms: C_4  and  C_5
REMARK    3  A    between atoms: C_5  and  O_7
REMARK    4  A    between atoms: C_10  and  C_11
REMARK    5  A    between atoms: C_11  and  C_12
REMARK    6  A    between atoms: C_11  and  C_13
REMARK    7  A    between atoms: C_11  and  C_14
REMARK    8  A    between atoms: N_15  and  C_16
REMARK    9  A    between atoms: C_16  and  C_17
REMARK   10  A    between atoms: C_20  and  C_21
REMARK   11  A    between atoms: C_21  and  N_22
REMARK                            x       y       z     vdW  Elec       q    Type
REMARK                         _______ _______ _______ _____ _____    ______ ____
ROOT
ATOM      1  C   UNL     1      49.832   8.045  11.378  0.00  0.00    +0.000 C 
ATOM      2  C   UNL     1      48.706   7.277  12.021  0.00  0.00    +0.000 A 
ATOM      3  C   UNL     1      48.808   6.933  13.369  0.00  0.00    +0.000 A 
ATOM      4  C   UNL     1      47.790   6.190  13.962  0.00  0.00    +0.000 A 
ATOM      5  C   UNL     1      46.714   5.825  13.154  0.00  0.00    +0.000 A 
ATOM      6  N   UNL     1      45.616   5.073  13.449  0.00  0.00    +0.000 NA
ATOM      7  C   UNL     1      44.881   5.033  12.347  0.00  0.00    +0.000 A 
ATOM      8  N   UNL     1      45.499   5.764  11.328  0.00  0.00    +0.000 N 
ATOM      9  C   UNL     1      46.694   6.244  11.841  0.00  0.00    +0.000 A 
ATOM     10  N   UNL     1      47.653   6.957  11.213  0.00  0.00    +0.000 NA
ENDROOT
BRANCH   7  11
ATOM     11  C   UNL     1      43.525   4.334  12.329  0.00  0.00    +0.000 C 
ATOM     12  C   UNL     1      43.037   4.207  13.800  0.00  0.00    +0.000 C 
ATOM     13  C   UNL     1      42.493   5.158  11.550  0.00  0.00    +0.000 C 
ATOM     14  C   UNL     1      43.609   2.904  11.771  0.00  0.00    +0.000 C 
ENDBRANCH   7  11
BRANCH   4  15
ATOM     15  C   UNL     1      47.849   5.812  15.384  0.00  0.00    +0.000 C 
ATOM     16  O   UNL     1      48.532   6.422  16.188  0.00  0.00    +0.000 OA
BRANCH  15  17
ATOM     17  O   UNL     1      47.084   4.748  15.731  0.00  0.00    +0.000 OA
ATOM     18  H   UNL     1      46.341   4.565  15.104  0.00  0.00    +0.000 HD
ENDBRANCH  15  17
ENDBRANCH   4  15
BRANCH   8  19
ATOM     19  C   UNL     1      45.163   5.818   9.912  0.00  0.00    +0.000 C 
BRANCH  19  20
ATOM     20  C   UNL     1      45.748   4.749   9.011  0.00  0.00    +0.000 A 
ATOM     21  C   UNL     1      45.056   3.581   8.698  0.00  0.00    +0.000 A 
ATOM     22  C   UNL     1      45.453   2.829   7.585  0.00  0.00    +0.000 A 
ATOM     23  C   UNL     1      46.538   3.229   6.805  0.00  0.00    +0.000 A 
ATOM     24  C   UNL     1      47.222   4.352   7.248  0.00  0.00    +0.000 A 
ATOM     25  N   UNL     1      46.862   5.108   8.317  0.00  0.00    +0.000 NA
BRANCH  23  26
ATOM     26  C   UNL     1      46.860   2.639   5.455  0.00  0.00    +0.000 C 
BRANCH  26  27
ATOM     27  N   UNL     1      48.248   2.225   5.291  0.00  0.00    +0.000 NA
ATOM     28  H   UNL     1      48.509   1.622   6.073  0.00  0.00    +0.000 HD
ATOM     29  H   UNL     1      48.851   3.044   5.359  0.00  0.00    +0.000 HD
ENDBRANCH  26  27
ENDBRANCH  23  26
ENDBRANCH  19  20
ENDBRANCH   8  19
TORSDOF 7
ENDMDL
MODEL 2
REMARK VINA RESULT:    -6.228      3.880      6.466
REMARK INTER + INTRA:          -9.209
REMARK INTER:                  -8.609
REMARK INTRA:                  -0.600
REMARK UNBOUND:                -0.797
REMARK  Name = 
REMARK  11 active torsions:
REMARK  status: ('A' for Active; 'I' for Inactive)
REMARK    1  A    between atoms: C_1  and  C_2
REMARK    2  A    between atoms: C_4  and  C_5
REMARK    3  A    between atoms: C_5  and  O_7
REMARK    4  A    between atoms: C_10  and  C_11
REMARK    5  A    between atoms: C_11  and  C_12
REMARK    6  A    between atoms: C_11  and  C_13
REMARK    7  A    between atoms: C_11  and  C_14
REMARK    8  A    between atoms: N_15  and  C_16
REMARK    9  A    between atoms: C_16  and  C_17
REMARK   10  A    between atoms: C_20  and  C_21
REMARK   11  A    between atoms: C_21  and  N_22
REMARK                            x       y       z     vdW  Elec       q    Type
REMARK                         _______ _______ _______ _____ _____    ______ ____
ROOT
ATOM      1  C   UNL     1      48.804  10.326  13.040  0.00  0.00    +0.000 C 
ATOM      2  C   UNL     1      47.612   9.479  12.680  0.00  0.00    +0.000 A 
ATOM      3  C   UNL     1      46.460  10.104  12.202  0.00  0.00    +0.000 A 
ATOM      4  C   UNL     1      45.339   9.332  11.903  0.00  0.00    +0.000 A 
ATOM      5  C   UNL     1      45.440   7.957  12.110  0.00  0.00    +0.000 A 
ATOM      6  N   UNL     1      44.504   6.979  11.948  0.00  0.00    +0.000 NA
ATOM      7  C   UNL     1      45.099   5.835  12.257  0.00  0.00    +0.000 A 
ATOM      8  N   UNL     1      46.429   6.065  12.618  0.00  0.00    +0.000 N 
ATOM      9  C   UNL     1      46.635   7.435  12.555  0.00  0.00    +0.000 A 
ATOM     10  N   UNL     1      47.748   8.133  12.867  0.00  0.00    +0.000 NA
ENDROOT
BRANCH   7  11
ATOM     11  C   UNL     1      44.367   4.504  12.115  0.00  0.00    +0.000 C 
ATOM     12  C   UNL     1      43.391   4.369  13.318  0.00  0.00    +0.000 C 
ATOM     13  C   UNL     1      43.544   4.464  10.822  0.00  0.00    +0.000 C 
ATOM     14  C   UNL     1      45.320   3.299  12.187  0.00  0.00    +0.000 C 
ENDBRANCH   7  11
BRANCH   4  15
ATOM     15  C   UNL     1      44.105   9.946  11.386  0.00  0.00    +0.000 C 
ATOM     16  O   UNL     1      43.642  10.968  11.861  0.00  0.00    +0.000 OA
BRANCH  15  17
ATOM     17  O   UNL     1      43.531   9.297  10.343  0.00  0.00    +0.000 OA
ATOM     18  H   UNL     1      43.342   9.876   9.563  0.00  0.00    +0.000 HD
ENDBRANCH  15  17
ENDBRANCH   4  15
BRANCH   8  19
ATOM     19  C   UNL     1      47.381   5.145  13.225  0.00  0.00    +0.000 C 
BRANCH  19  20
ATOM     20  C   UNL     1      47.454   5.108  14.738  0.00  0.00    +0.000 A 
ATOM     21  C   UNL     1      46.805   4.130  15.489  0.00  0.00    +0.000 A 
ATOM     22  C   UNL     1      47.208   3.905  16.811  0.00  0.00    +0.000 A 
ATOM     23  C   UNL     1      48.235   4.658  17.382  0.00  0.00    +0.000 A 
ATOM     24  C   UNL     1      48.757   5.670  16.589  0.00  0.00    +0.000 A 
ATOM     25  N   UNL     1      48.395   5.912  15.303  0.00  0.00    +0.000 NA
BRANCH  23  26
ATOM     26  C   UNL     1      48.906   4.306  18.685  0.00  0.00    +0.000 C 
BRANCH  26  27
ATOM     27  N   UNL     1      48.362   3.127  19.347  0.00  0.00    +0.000 NA
ATOM     28  H   UNL     1      49.042   2.786  20.029  0.00  0.00    +0.000 HD
ATOM     29  H   UNL     1      48.256   2.379  18.663  0.00  0.00    +0.000 HD
ENDBRANCH  26  27
ENDBRANCH  23  26
ENDBRANCH  19  20
ENDBRANCH   8  19
TORSDOF 7
ENDMDL
MODEL 3
REMARK VINA RESULT:    -5.900      2.022      4.047
REMARK INTER + INTRA:          -8.766
REMARK INTER:                  -7.772
REMARK INTRA:                  -0.995
REMARK UNBOUND:                -0.797
REMARK  Name = 
REMARK  11 active torsions:
REMARK  status: ('A' for Active; 'I' for Inactive)
REMARK    1  A    between atoms: C_1  and  C_2
REMARK    2  A    between atoms: C_4  and  C_5
REMARK    3  A    between atoms: C_5  and  O_7
REMARK    4  A    between atoms: C_10  and  C_11
REMARK    5  A    between atoms: C_11  and  C_12
REMARK    6  A    between atoms: C_11  and  C_13
REMARK    7  A    between atoms: C_11  and  C_14
REMARK    8  A    between atoms: N_15  and  C_16
REMARK    9  A    between atoms: C_16  and  C_17
REMARK   10  A    between atoms: C_20  and  C_21
REMARK   11  A    between atoms: C_21  and  N_22
REMARK                            x       y       z     vdW  Elec       q    Type
REMARK                         _______ _______ _______ _____ _____    ______ ____
ROOT
ATOM      1  C   UNL     1      47.361   2.812  17.608  0.00  0.00    +0.000 C 
ATOM      2  C   UNL     1      47.552   3.916  16.601  0.00  0.00    +0.000 A 
ATOM      3  C   UNL     1      48.663   4.751  16.718  0.00  0.00    +0.000 A 
ATOM      4  C   UNL     1      48.828   5.799  15.816  0.00  0.00    +0.000 A 
ATOM      5  C   UNL     1      47.849   5.954  14.835  0.00  0.00    +0.000 A 
ATOM      6  N   UNL     1      47.730   6.902  13.863  0.00  0.00    +0.000 NA
ATOM      7  C   UNL     1      46.638   6.600  13.176  0.00  0.00    +0.000 A 
ATOM      8  N   UNL     1      46.043   5.448  13.697  0.00  0.00    +0.000 N 
ATOM      9  C   UNL     1      46.806   5.054  14.786  0.00  0.00    +0.000 A 
ATOM     10  N   UNL     1      46.592   4.028  15.636  0.00  0.00    +0.000 NA
ENDROOT
BRANCH   7  11
ATOM     11  C   UNL     1      46.229   7.411  11.950  0.00  0.00    +0.000 C 
ATOM     12  C   UNL     1      47.064   8.722  11.948  0.00  0.00    +0.000 C 
ATOM     13  C   UNL     1      46.536   6.644  10.657  0.00  0.00    +0.000 C 
ATOM     14  C   UNL     1      44.751   7.833  11.990  0.00  0.00    +0.000 C 
ENDBRANCH   7  11
BRANCH   4  15
ATOM     15  C   UNL     1      49.991   6.699  15.894  0.00  0.00    +0.000 C 
ATOM     16  O   UNL     1      50.386   7.155  16.952  0.00  0.00    +0.000 OA
BRANCH  15  17
ATOM     17  O   UNL     1      50.589   6.972  14.709  0.00  0.00    +0.000 OA
ATOM     18  H   UNL     1      50.023   6.786  13.918  0.00  0.00    +0.000 HD
ENDBRANCH  15  17
ENDBRANCH   4  15
BRANCH   8  19
ATOM     19  C   UNL     1      44.735   4.882  13.398  0.00  0.00    +0.000 C 
BRANCH  19  20
ATOM     20  C   UNL     1      44.543   4.235  12.041  0.00  0.00    +0.000 A 
ATOM     21  C   UNL     1      43.623   4.716  11.112  0.00  0.00    +0.000 A 
ATOM     22  C   UNL     1      43.754   4.346   9.767  0.00  0.00    +0.000 A 
ATOM     23  C   UNL     1      44.779   3.493   9.358  0.00  0.00    +0.000 A 
ATOM     24  C   UNL     1      45.588   2.991  10.367  0.00  0.00    +0.000 A 
ATOM     25  N   UNL     1      45.495   3.332  11.678  0.00  0.00    +0.000 NA
BRANCH  23  26
ATOM     26  C   UNL     1      45.151   3.264   7.915  0.00  0.00    +0.000 C 
BRANCH  26  27
ATOM     27  N   UNL     1      46.204   4.139   7.415  0.00  0.00    +0.000 NA
ATOM     28  H   UNL     1      46.779   4.449   8.201  0.00  0.00    +0.000 HD
ATOM     29  H   UNL     1      45.781   4.983   7.030  0.00  0.00    +0.000 HD
ENDBRANCH  26  27
ENDBRANCH  23  26
ENDBRANCH  19  20
ENDBRANCH   8  19
TORSDOF 7
ENDMDL
MODEL 4
REMARK VINA RESULT:    -5.856      3.129      5.246
REMARK INTER + INTRA:          -8.708
REMARK INTER:                  -8.196
REMARK INTRA:                  -0.511
REMARK UNBOUND:                -0.797
REMARK  Name = 
REMARK  11 active torsions:
REMARK  status: ('A' for Active; 'I' for Inactive)
REMARK    1  A    between atoms: C_1  and  C_2
REMARK    2  A    between atoms: C_4  and  C_5
REMARK    3  A    between atoms: C_5  and  O_7
REMARK    4  A    between atoms: C_10  and  C_11
REMARK    5  A    between atoms: C_11  and  C_12
REMARK    6  A    between atoms: C_11  and  C_13
REMARK    7  A    between atoms: C_11  and  C_14
REMARK    8  A    between atoms: N_15  and  C_16
REMARK    9  A    between atoms: C_16  and  C_17
REMARK   10  A    between atoms: C_20  and  C_21
REMARK   11  A    between atoms: C_21  and  N_22
REMARK                            x       y       z     vdW  Elec       q    Type
REMARK                         _______ _______ _______ _____ _____    ______ ____
ROOT
ATOM      1  C   UNL     1      50.176   7.591  15.975  0.00  0.00    +0.000 C 
ATOM      2  C   UNL     1      49.093   6.621  15.581  0.00  0.00    +0.000 A 
ATOM      3  C   UNL     1      48.873   5.496  16.375  0.00  0.00    +0.000 A 
ATOM      4  C   UNL     1      47.900   4.573  15.997  0.00  0.00    +0.000 A 
ATOM      5  C   UNL     1      47.197   4.835  14.822  0.00  0.00    +0.000 A 
ATOM      6  N   UNL     1      46.237   4.097  14.197  0.00  0.00    +0.000 NA
ATOM      7  C   UNL     1      45.871   4.787  13.125  0.00  0.00    +0.000 A 
ATOM      8  N   UNL     1      46.593   5.981  13.051  0.00  0.00    +0.000 N 
ATOM      9  C   UNL     1      47.469   5.993  14.126  0.00  0.00    +0.000 A 
ATOM     10  N   UNL     1      48.403   6.916  14.440  0.00  0.00    +0.000 NA
ENDROOT
BRANCH   7  11
ATOM     11  C   UNL     1      44.748   4.295  12.218  0.00  0.00    +0.000 C 
ATOM     12  C   UNL     1      45.213   4.474  10.746  0.00  0.00    +0.000 C 
ATOM     13  C   UNL     1      44.462   2.807  12.455  0.00  0.00    +0.000 C 
ATOM     14  C   UNL     1      43.462   5.124  12.374  0.00  0.00    +0.000 C 
ENDBRANCH   7  11
BRANCH   4  15
ATOM     15  C   UNL     1      47.625   3.377  16.810  0.00  0.00    +0.000 C 
ATOM     16  O   UNL     1      48.456   2.500  16.973  0.00  0.00    +0.000 OA
BRANCH  15  17
ATOM     17  O   UNL     1      46.390   3.329  17.367  0.00  0.00    +0.000 OA
ATOM     18  H   UNL     1      45.779   2.680  16.937  0.00  0.00    +0.000 HD
ENDBRANCH  15  17
ENDBRANCH   4  15
BRANCH   8  19
ATOM     19  C   UNL     1      46.673   6.931  11.951  0.00  0.00    +0.000 C 
BRANCH  19  20
ATOM     20  C   UNL     1      45.726   8.115  11.974  0.00  0.00    +0.000 A 
ATOM     21  C   UNL     1      46.128   9.379  12.400  0.00  0.00    +0.000 A 
ATOM     22  C   UNL     1      45.360  10.495  12.044  0.00  0.00    +0.000 A 
ATOM     23  C   UNL     1      44.197  10.349  11.288  0.00  0.00    +0.000 A 
ATOM     24  C   UNL     1      43.827   9.045  10.991  0.00  0.00    +0.000 A 
ATOM     25  N   UNL     1      44.549   7.941  11.313  0.00  0.00    +0.000 NA
BRANCH  23  26
ATOM     26  C   UNL     1      43.470  11.500  10.641  0.00  0.00    +0.000 C 
BRANCH  26  27
ATOM     27  N   UNL     1      42.029  11.509  10.864  0.00  0.00    +0.000 NA
ATOM     28  H   UNL     1      41.704  12.477  10.894  0.00  0.00    +0.000 HD
ATOM     29  H   UNL     1      41.833  11.122  11.786  0.00  0.00    +0.000 HD
ENDBRANCH  26  27
ENDBRANCH  23  26
ENDBRANCH  19  20
ENDBRANCH   8  19
TORSDOF 7
ENDMDL
MODEL 5
REMARK VINA RESULT:    -5.780      3.394      5.683
REMARK INTER + INTRA:          -8.604
REMARK INTER:                  -7.607
REMARK INTRA:                  -0.997
REMARK UNBOUND:                -0.797
REMARK  Name = 
REMARK  11 active torsions:
REMARK  status: ('A' for Active; 'I' for Inactive)
REMARK    1  A    between atoms: C_1  and  C_2
REMARK    2  A    between atoms: C_4  and  C_5
REMARK    3  A    between atoms: C_5  and  O_7
REMARK    4  A    between atoms: C_10  and  C_11
REMARK    5  A    between atoms: C_11  and  C_12
REMARK    6  A    between atoms: C_11  and  C_13
REMARK    7  A    between atoms: C_11  and  C_14
REMARK    8  A    between atoms: N_15  and  C_16
REMARK    9  A    between atoms: C_16  and  C_17
REMARK   10  A    between atoms: C_20  and  C_21
REMARK   11  A    between atoms: C_21  and  N_22
REMARK                            x       y       z     vdW  Elec       q    Type
REMARK                         _______ _______ _______ _____ _____    ______ ____
ROOT
ATOM      1  C   UNL     1      48.967   4.113  17.759  0.00  0.00    +0.000 C 
ATOM      2  C   UNL     1      48.867   5.480  17.133  0.00  0.00    +0.000 A 
ATOM      3  C   UNL     1      48.912   6.604  17.956  0.00  0.00    +0.000 A 
ATOM      4  C   UNL     1      48.781   7.870  17.390  0.00  0.00    +0.000 A 
ATOM      5  C   UNL     1      48.602   7.935  16.009  0.00  0.00    +0.000 A 
ATOM      6  N   UNL     1      48.405   9.016  15.204  0.00  0.00    +0.000 NA
ATOM      7  C   UNL     1      48.311   8.551  13.966  0.00  0.00    +0.000 A 
ATOM      8  N   UNL     1      48.451   7.161  13.962  0.00  0.00    +0.000 N 
ATOM      9  C   UNL     1      48.604   6.764  15.281  0.00  0.00    +0.000 A 
ATOM     10  N   UNL     1      48.720   5.513  15.775  0.00  0.00    +0.000 NA
ENDROOT
BRANCH   7  11
ATOM     11  C   UNL     1      48.162   9.497  12.778  0.00  0.00    +0.000 C 
ATOM     12  C   UNL     1      48.569  10.921  13.251  0.00  0.00    +0.000 C 
ATOM     13  C   UNL     1      49.092   9.088  11.630  0.00  0.00    +0.000 C 
ATOM     14  C   UNL     1      46.708   9.598  12.286  0.00  0.00    +0.000 C 
ENDBRANCH   7  11
BRANCH   4  15
ATOM     15  C   UNL     1      48.834   9.087  18.218  0.00  0.00    +0.000 C 
ATOM     16  O   UNL     1      49.690   9.253  19.069  0.00  0.00    +0.000 OA
BRANCH  15  17
ATOM     17  O   UNL     1      47.871  10.004  17.958  0.00  0.00    +0.000 OA
ATOM     18  H   UNL     1      47.440   9.897  17.073  0.00  0.00    +0.000 HD
ENDBRANCH  15  17
ENDBRANCH   4  15
BRANCH   8  19
ATOM     19  C   UNL     1      48.208   6.224  12.873  0.00  0.00    +0.000 C 
BRANCH  19  20
ATOM     20  C   UNL     1      46.769   5.858  12.568  0.00  0.00    +0.000 A 
ATOM     21  C   UNL     1      46.173   6.147  11.343  0.00  0.00    +0.000 A 
ATOM     22  C   UNL     1      45.008   5.464  10.973  0.00  0.00    +0.000 A 
ATOM     23  C   UNL     1      44.436   4.516  11.822  0.00  0.00    +0.000 A 
ATOM     24  C   UNL     1      45.047   4.364  13.058  0.00  0.00    +0.000 A 
ATOM     25  N   UNL     1      46.179   5.004  13.448  0.00  0.00    +0.000 NA
BRANCH  23  26
ATOM     26  C   UNL     1      43.357   3.554  11.396  0.00  0.00    +0.000 C 
BRANCH  26  27
ATOM     27  N   UNL     1      43.383   2.270  12.085  0.00  0.00    +0.000 NA
ATOM     28  H   UNL     1      43.232   1.524  11.404  0.00  0.00    +0.000 HD
ATOM     29  H   UNL     1      42.595   2.221  12.730  0.00  0.00    +0.000 HD
ENDBRANCH  26  27
ENDBRANCH  23  26
ENDBRANCH  19  20
ENDBRANCH   8  19
TORSDOF 7
ENDMDL
MODEL 6
REMARK VINA RESULT:    -5.586      3.518      6.430
REMARK INTER + INTRA:          -8.342
REMARK INTER:                  -7.857
REMARK INTRA:                  -0.485
REMARK UNBOUND:                -0.797
REMARK  Name = 
REMARK  11 active torsions:
REMARK  status: ('A' for Active; 'I' for Inactive)
REMARK    1  A    between atoms: C_1  and  C_2
REMARK    2  A    between atoms: C_4  and  C_5
REMARK    3  A    between atoms: C_5  and  O_7
REMARK    4  A    between atoms: C_10  and  C_11
REMARK    5  A    between atoms: C_11  and  C_12
REMARK    6  A    between atoms: C_11  and  C_13
REMARK    7  A    between atoms: C_11  and  C_14
REMARK    8  A    between atoms: N_15  and  C_16
REMARK    9  A    between atoms: C_16  and  C_17
REMARK   10  A    between atoms: C_20  and  C_21
REMARK   11  A    between atoms: C_21  and  N_22
REMARK                            x       y       z     vdW  Elec       q    Type
REMARK                         _______ _______ _______ _____ _____    ______ ____
ROOT
ATOM      1  C   UNL     1      50.324   7.791  14.731  0.00  0.00    +0.000 C 
ATOM      2  C   UNL     1      48.983   7.550  14.088  0.00  0.00    +0.000 A 
ATOM      3  C   UNL     1      48.243   8.645  13.642  0.00  0.00    +0.000 A 
ATOM      4  C   UNL     1      46.985   8.435  13.082  0.00  0.00    +0.000 A 
ATOM      5  C   UNL     1      46.533   7.119  13.006  0.00  0.00    +0.000 A 
ATOM      6  N   UNL     1      45.344   6.629  12.554  0.00  0.00    +0.000 NA
ATOM      7  C   UNL     1      45.412   5.310  12.674  0.00  0.00    +0.000 A 
ATOM      8  N   UNL     1      46.650   4.937  13.202  0.00  0.00    +0.000 N 
ATOM      9  C   UNL     1      47.356   6.105  13.447  0.00  0.00    +0.000 A 
ATOM     10  N   UNL     1      48.578   6.249  14.003  0.00  0.00    +0.000 NA
ENDROOT
BRANCH   7  11
ATOM     11  C   UNL     1      44.275   4.417  12.189  0.00  0.00    +0.000 C 
ATOM     12  C   UNL     1      43.340   5.280  11.296  0.00  0.00    +0.000 C 
ATOM     13  C   UNL     1      44.812   3.257  11.341  0.00  0.00    +0.000 C 
ATOM     14  C   UNL     1      43.410   3.886  13.344  0.00  0.00    +0.000 C 
ENDBRANCH   7  11
BRANCH   4  15
ATOM     15  C   UNL     1      46.173   9.560  12.587  0.00  0.00    +0.000 C 
ATOM     16  O   UNL     1      46.637  10.426  11.866  0.00  0.00    +0.000 OA
BRANCH  15  17
ATOM     17  O   UNL     1      44.877   9.553  12.983  0.00  0.00    +0.000 OA
ATOM     18  H   UNL     1      44.620  10.333  13.536  0.00  0.00    +0.000 HD
ENDBRANCH  15  17
ENDBRANCH   4  15
BRANCH   8  19
ATOM     19  C   UNL     1      47.076   3.634  13.694  0.00  0.00    +0.000 C 
BRANCH  19  20
ATOM     20  C   UNL     1      47.286   3.480  15.187  0.00  0.00    +0.000 A 
ATOM     21  C   UNL     1      48.277   2.657  15.717  0.00  0.00    +0.000 A 
ATOM     22  C   UNL     1      48.682   2.843  17.044  0.00  0.00    +0.000 A 
ATOM     23  C   UNL     1      48.092   3.827  17.838  0.00  0.00    +0.000 A 
ATOM     24  C   UNL     1      47.051   4.533  17.255  0.00  0.00    +0.000 A 
ATOM     25  N   UNL     1      46.637   4.384  15.970  0.00  0.00    +0.000 NA
BRANCH  23  26
ATOM     26  C   UNL     1      48.644   4.270  19.169  0.00  0.00    +0.000 C 
BRANCH  26  27
ATOM     27  N   UNL     1      50.077   4.056  19.332  0.00  0.00    +0.000 NA
ATOM     28  H   UNL     1      50.570   4.500  18.555  0.00  0.00    +0.000 HD
ATOM     29  H   UNL     1      50.276   3.059  19.254  0.00  0.00    +0.000 HD
ENDBRANCH  26  27
ENDBRANCH  23  26
ENDBRANCH  19  20
ENDBRANCH   8  19
TORSDOF 7
ENDMDL
MODEL 7
REMARK VINA RESULT:    -5.577      3.314      6.645
REMARK INTER + INTRA:          -8.330
REMARK INTER:                  -7.539
REMARK INTRA:                  -0.791
REMARK UNBOUND:                -0.797
REMARK  Name = 
REMARK  11 active torsions:
REMARK  status: ('A' for Active; 'I' for Inactive)
REMARK    1  A    between atoms: C_1  and  C_2
REMARK    2  A    between atoms: C_4  and  C_5
REMARK    3  A    between atoms: C_5  and  O_7
REMARK    4  A    between atoms: C_10  and  C_11
REMARK    5  A    between atoms: C_11  and  C_12
REMARK    6  A    between atoms: C_11  and  C_13
REMARK    7  A    between atoms: C_11  and  C_14
REMARK    8  A    between atoms: N_15  and  C_16
REMARK    9  A    between atoms: C_16  and  C_17
REMARK   10  A    between atoms: C_20  and  C_21
REMARK   11  A    between atoms: C_21  and  N_22
REMARK                            x       y       z     vdW  Elec       q    Type
REMARK                         _______ _______ _______ _____ _____    ______ ____
ROOT
ATOM      1  C   UNL     1      44.989   3.826  11.912  0.00  0.00    +0.000 C 
ATOM      2  C   UNL     1      46.015   4.427  12.838  0.00  0.00    +0.000 A 
ATOM      3  C   UNL     1      46.252   3.817  14.069  0.00  0.00    +0.000 A 
ATOM      4  C   UNL     1      47.170   4.387  14.948  0.00  0.00    +0.000 A 
ATOM      5  C   UNL     1      47.803   5.559  14.535  0.00  0.00    +0.000 A 
ATOM      6  N   UNL     1      48.699   6.346  15.195  0.00  0.00    +0.000 NA
ATOM      7  C   UNL     1      49.015   7.331  14.366  0.00  0.00    +0.000 A 
ATOM      8  N   UNL     1      48.326   7.186  13.159  0.00  0.00    +0.000 N 
ATOM      9  C   UNL     1      47.522   6.063  13.284  0.00  0.00    +0.000 A 
ATOM     10  N   UNL     1      46.639   5.559  12.396  0.00  0.00    +0.000 NA
ENDROOT
BRANCH   7  11
ATOM     11  C   UNL     1      50.063   8.373  14.746  0.00  0.00    +0.000 C 
ATOM     12  C   UNL     1      50.628   7.992  16.142  0.00  0.00    +0.000 C 
ATOM     13  C   UNL     1      51.222   8.377  13.742  0.00  0.00    +0.000 C 
ATOM     14  C   UNL     1      49.465   9.783  14.886  0.00  0.00    +0.000 C 
ENDBRANCH   7  11
BRANCH   4  15
ATOM     15  C   UNL     1      47.461   3.773  16.254  0.00  0.00    +0.000 C 
ATOM     16  O   UNL     1      46.577   3.453  17.030  0.00  0.00    +0.000 OA
BRANCH  15  17
ATOM     17  O   UNL     1      48.776   3.582  16.522  0.00  0.00    +0.000 OA
ATOM     18  H   UNL     1      49.064   2.637  16.476  0.00  0.00    +0.000 HD
ENDBRANCH  15  17
ENDBRANCH   4  15
BRANCH   8  19
ATOM     19  C   UNL     1      48.205   8.133  12.059  0.00  0.00    +0.000 C 
BRANCH  19  20
ATOM     20  C   UNL     1      47.133   9.198  12.166  0.00  0.00    +0.000 A 
ATOM     21  C   UNL     1      47.297  10.473  11.629  0.00  0.00    +0.000 A 
ATOM     22  C   UNL     1      46.168  11.273  11.409  0.00  0.00    +0.000 A 
ATOM     23  C   UNL     1      44.893  10.812  11.738  0.00  0.00    +0.000 A 
ATOM     24  C   UNL     1      44.837   9.570  12.353  0.00  0.00    +0.000 A 
ATOM     25  N   UNL     1      45.909   8.766  12.575  0.00  0.00    +0.000 NA
BRANCH  23  26
ATOM     26  C   UNL     1      43.620  11.485  11.292  0.00  0.00    +0.000 C 
BRANCH  26  27
ATOM     27  N   UNL     1      42.445  11.145  12.086  0.00  0.00    +0.000 NA
ATOM     28  H   UNL     1      42.607  11.427  13.055  0.00  0.00    +0.000 HD
ATOM     29  H   UNL     1      42.338  10.132  12.106  0.00  0.00    +0.000 HD
ENDBRANCH  26  27
ENDBRANCH  23  26
ENDBRANCH  19  20
ENDBRANCH   8  19
TORSDOF 7
ENDMDL
MODEL 8
REMARK VINA RESULT:    -5.562      2.967      5.129
REMARK INTER + INTRA:          -8.310
REMARK INTER:                  -7.735
REMARK INTRA:                  -0.575
REMARK UNBOUND:                -0.797
REMARK  Name = 
REMARK  11 active torsions:
REMARK  status: ('A' for Active; 'I' for Inactive)
REMARK    1  A    between atoms: C_1  and  C_2
REMARK    2  A    between atoms: C_4  and  C_5
REMARK    3  A    between atoms: C_5  and  O_7
REMARK    4  A    between atoms: C_10  and  C_11
REMARK    5  A    between atoms: C_11  and  C_12
REMARK    6  A    between atoms: C_11  and  C_13
REMARK    7  A    between atoms: C_11  and  C_14
REMARK    8  A    between atoms: N_15  and  C_16
REMARK    9  A    between atoms: C_16  and  C_17
REMARK   10  A    between atoms: C_20  and  C_21
REMARK   11  A    between atoms: C_21  and  N_22
REMARK                            x       y       z     vdW  Elec       q    Type
REMARK                         _______ _______ _______ _____ _____    ______ ____
ROOT
ATOM      1  C   UNL     1      49.841   7.854  16.793  0.00  0.00    +0.000 C 
ATOM      2  C   UNL     1      48.914   6.945  16.030  0.00  0.00    +0.000 A 
ATOM      3  C   UNL     1      48.745   5.631  16.468  0.00  0.00    +0.000 A 
ATOM      4  C   UNL     1      47.920   4.772  15.746  0.00  0.00    +0.000 A 
ATOM      5  C   UNL     1      47.306   5.288  14.605  0.00  0.00    +0.000 A 
ATOM      6  N   UNL     1      46.496   4.674  13.698  0.00  0.00    +0.000 NA
ATOM      7  C   UNL     1      46.159   5.599  12.810  0.00  0.00    +0.000 A 
ATOM      8  N   UNL     1      46.748   6.822  13.140  0.00  0.00    +0.000 N 
ATOM      9  C   UNL     1      47.513   6.610  14.277  0.00  0.00    +0.000 A 
ATOM     10  N   UNL     1      48.305   7.485  14.933  0.00  0.00    +0.000 NA
ENDROOT
BRANCH   7  11
ATOM     11  C   UNL     1      45.187   5.285  11.677  0.00  0.00    +0.000 C 
ATOM     12  C   UNL     1      44.937   3.751  11.676  0.00  0.00    +0.000 C 
ATOM     13  C   UNL     1      43.843   5.991  11.895  0.00  0.00    +0.000 C 
ATOM     14  C   UNL     1      45.763   5.636  10.294  0.00  0.00    +0.000 C 
ENDBRANCH   7  11
BRANCH   4  15
ATOM     15  C   UNL     1      47.704   3.381  16.176  0.00  0.00    +0.000 C 
ATOM     16  O   UNL     1      48.387   2.461  15.761  0.00  0.00    +0.000 OA
BRANCH  15  17
ATOM     17  O   UNL     1      46.700   3.203  17.070  0.00  0.00    +0.000 OA
ATOM     18  H   UNL     1      47.005   3.113  18.007  0.00  0.00    +0.000 HD
ENDBRANCH  15  17
ENDBRANCH   4  15
BRANCH   8  19
ATOM     19  C   UNL     1      46.826   8.040  12.346  0.00  0.00    +0.000 C 
BRANCH  19  20
ATOM     20  C   UNL     1      48.187   8.454  11.825  0.00  0.00    +0.000 A 
ATOM     21  C   UNL     1      48.666   9.756  11.949  0.00  0.00    +0.000 A 
ATOM     22  C   UNL     1      50.039   9.995  11.815  0.00  0.00    +0.000 A 
ATOM     23  C   UNL     1      50.921   8.949  11.542  0.00  0.00    +0.000 A 
ATOM     24  C   UNL     1      50.343   7.704  11.342  0.00  0.00    +0.000 A 
ATOM     25  N   UNL     1      49.017   7.436  11.471  0.00  0.00    +0.000 NA
BRANCH  23  26
ATOM     26  C   UNL     1      52.420   9.069  11.649  0.00  0.00    +0.000 C 
BRANCH  26  27
ATOM     27  N   UNL     1      53.123   7.798  11.767  0.00  0.00    +0.000 NA
ATOM     28  H   UNL     1      52.875   7.207  10.971  0.00  0.00    +0.000 HD
ATOM     29  H   UNL     1      52.787   7.306  12.593  0.00  0.00    +0.000 HD
ENDBRANCH  26  27
ENDBRANCH  23  26
ENDBRANCH  19  20
ENDBRANCH   8  19
TORSDOF 7
ENDMDL
MODEL 9
REMARK VINA RESULT:    -5.528      3.846      7.602
REMARK INTER + INTRA:          -8.264
REMARK INTER:                  -7.409
REMARK INTRA:                  -0.855
REMARK UNBOUND:                -0.797
REMARK  Name = 
REMARK  11 active torsions:
REMARK  status: ('A' for Active; 'I' for Inactive)
REMARK    1  A    between atoms: C_1  and  C_2
REMARK    2  A    between atoms: C_4  and  C_5
REMARK    3  A    between atoms: C_5  and  O_7
REMARK    4  A    between atoms: C_10  and  C_11
REMARK    5  A    between atoms: C_11  and  C_12
REMARK    6  A    between atoms: C_11  and  C_13
REMARK    7  A    between atoms: C_11  and  C_14
REMARK    8  A    between atoms: N_15  and  C_16
REMARK    9  A    between atoms: C_16  and  C_17
REMARK   10  A    between atoms: C_20  and  C_21
REMARK   11  A    between atoms: C_21  and  N_22
REMARK                            x       y       z     vdW  Elec       q    Type
REMARK                         _______ _______ _______ _____ _____    ______ ____
ROOT
ATOM      1  C   UNL     1      43.498   4.722  11.024  0.00  0.00    +0.000 C 
ATOM      2  C   UNL     1      44.224   5.963  11.473  0.00  0.00    +0.000 A 
ATOM      3  C   UNL     1      43.702   7.211  11.130  0.00  0.00    +0.000 A 
ATOM      4  C   UNL     1      44.388   8.363  11.507  0.00  0.00    +0.000 A 
ATOM      5  C   UNL     1      45.579   8.195  12.211  0.00  0.00    +0.000 A 
ATOM      6  N   UNL     1      46.466   9.126  12.661  0.00  0.00    +0.000 NA
ATOM      7  C   UNL     1      47.426   8.459  13.288  0.00  0.00    +0.000 A 
ATOM      8  N   UNL     1      47.162   7.087  13.250  0.00  0.00    +0.000 N 
ATOM      9  C   UNL     1      45.992   6.918  12.528  0.00  0.00    +0.000 A 
ATOM     10  N   UNL     1      45.374   5.768  12.184  0.00  0.00    +0.000 NA
ENDROOT
BRANCH   7  11
ATOM     11  C   UNL     1      48.563   9.192  13.992  0.00  0.00    +0.000 C 
ATOM     12  C   UNL     1      48.579  10.657  13.473  0.00  0.00    +0.000 C 
ATOM     13  C   UNL     1      48.340   9.222  15.509  0.00  0.00    +0.000 C 
ATOM     14  C   UNL     1      49.941   8.595  13.661  0.00  0.00    +0.000 C 
ENDBRANCH   7  11
BRANCH   4  15
ATOM     15  C   UNL     1      43.870   9.702  11.177  0.00  0.00    +0.000 C 
ATOM     16  O   UNL     1      43.640  10.043  10.030  0.00  0.00    +0.000 OA
BRANCH  15  17
ATOM     17  O   UNL     1      43.660  10.517  12.240  0.00  0.00    +0.000 OA
ATOM     18  H   UNL     1      43.030  10.152  12.910  0.00  0.00    +0.000 HD
ENDBRANCH  15  17
ENDBRANCH   4  15
BRANCH   8  19
ATOM     19  C   UNL     1      48.036   5.981  13.618  0.00  0.00    +0.000 C 
BRANCH  19  20
ATOM     20  C   UNL     1      47.932   5.445  15.032  0.00  0.00    +0.000 A 
ATOM     21  C   UNL     1      47.075   4.400  15.369  0.00  0.00    +0.000 A 
ATOM     22  C   UNL     1      47.292   3.696  16.560  0.00  0.00    +0.000 A 
ATOM     23  C   UNL     1      48.340   4.042  17.413  0.00  0.00    +0.000 A 
ATOM     24  C   UNL     1      49.082   5.154  17.040  0.00  0.00    +0.000 A 
ATOM     25  N   UNL     1      48.905   5.855  15.891  0.00  0.00    +0.000 NA
BRANCH  23  26
ATOM     26  C   UNL     1      48.805   3.182  18.560  0.00  0.00    +0.000 C 
BRANCH  26  27
ATOM     27  N   UNL     1      48.376   3.641  19.875  0.00  0.00    +0.000 NA
ATOM     28  H   UNL     1      47.434   3.291  20.057  0.00  0.00    +0.000 HD
ATOM     29  H   UNL     1      48.297   4.657  19.863  0.00  0.00    +0.000 HD
ENDBRANCH  26  27
ENDBRANCH  23  26
ENDBRANCH  19  20
ENDBRANCH   8  19
TORSDOF 7
ENDMDL
