MODEL 1
REMARK VINA RESULT:    -8.694      0.000      0.000
REMARK INTER + INTRA:          -9.675
REMARK INTER:                 -10.219
REMARK INTRA:                   0.544
REMARK UNBOUND:                 0.544
REMARK  Name = 
REMARK  3 active torsions:
REMARK  status: ('A' for Active; 'I' for Inactive)
REMARK    1  A    between atoms: C_2  and  C_4
REMARK    2  A    between atoms: N_8  and  C_9
REMARK    3  A    between atoms: C_9  and  C_10
REMARK                            x       y       z     vdW  Elec       q    Type
REMARK                         _______ _______ _______ _____ _____    ______ ____
ROOT
ATOM      1  C   UNL     1      46.366   2.117   7.847  0.00  0.00    +0.000 A 
ATOM      2  C   UNL     1      46.423   3.411   7.333  0.00  0.00    +0.000 A 
ATOM      3  C   UNL     1      45.754   4.414   8.009  0.00  0.00    +0.000 A 
ATOM      4  C   UNL     1      45.053   4.135   9.182  0.00  0.00    +0.000 A 
ATOM      5  N   UNL     1      44.499   5.237   9.836  0.00  0.00    +0.000 N 
ATOM      6  N   UNL     1      44.976   2.877   9.683  0.00  0.00    +0.000 NA
ATOM      7  C   UNL     1      45.611   1.896   8.994  0.00  0.00    +0.000 A 
ATOM      8  H   UNL     1      43.940   5.779   9.182  0.00  0.00    +0.000 HD
ENDROOT
BRANCH   1  10
ATOM      9  N   UNL     1      46.744  -0.267   7.650  0.00  0.00    +0.000 N 
ATOM     10  C   UNL     1      47.091   0.992   7.228  0.00  0.00    +0.000 C 
ATOM     11  O   UNL     1      47.929   1.164   6.363  0.00  0.00    +0.000 OA
ATOM     12  H   UNL     1      47.166  -1.036   7.155  0.00  0.00    +0.000 HD
ATOM     13  H   UNL     1      45.902  -0.455   8.179  0.00  0.00    +0.000 HD
ENDBRANCH   1  10
BRANCH   5  14
ATOM     14  C   UNL     1      43.976   5.237  11.208  0.00  0.00    +0.000 C 
ATOM     15  C   UNL     1      42.920   4.148  11.352  0.00  0.00    +0.000 C 
ATOM     16  C   UNL     1      42.564   5.557  11.662  0.00  0.00    +0.000 C 
BRANCH  14  17
ATOM     17  C   UNL     1      45.077   5.505  12.220  0.00  0.00    +0.000 A 
ATOM     18  C   UNL     1      45.575   6.810  12.409  0.00  0.00    +0.000 A 
ATOM     19  C   UNL     1      46.750   7.049  13.128  0.00  0.00    +0.000 A 
ATOM     20  C   UNL     1      47.455   5.982  13.680  0.00  0.00    +0.000 A 
ATOM     21  C   UNL     1      46.954   4.690  13.559  0.00  0.00    +0.000 A 
ATOM     22  C   UNL     1      45.774   4.466  12.850  0.00  0.00    +0.000 A 
ATOM     23  F   UNL     1      45.354   3.200  12.697  0.00  0.00    +0.000 F 
ENDBRANCH  14  17
ENDBRANCH   5  14
TORSDOF 3
ENDMDL
MODEL 2
REMARK VINA RESULT:    -8.129      3.479      6.273
REMARK INTER + INTRA:          -9.012
REMARK INTER:                  -8.742
REMARK INTRA:                  -0.270
REMARK UNBOUND:                 0.544
REMARK  Name = 
REMARK  3 active torsions:
REMARK  status: ('A' for Active; 'I' for Inactive)
REMARK    1  A    between atoms: C_2  and  C_4
REMARK    2  A    between atoms: N_8  and  C_9
REMARK    3  A    between atoms: C_9  and  C_10
REMARK                            x       y       z     vdW  Elec       q    Type
REMARK                         _______ _______ _______ _____ _____    ______ ____
ROOT
ATOM      1  C   UNL     1      47.427   4.754  15.082  0.00  0.00    +0.000 A 
ATOM      2  C   UNL     1      47.473   5.962  14.387  0.00  0.00    +0.000 A 
ATOM      3  C   UNL     1      46.857   6.031  13.152  0.00  0.00    +0.000 A 
ATOM      4  C   UNL     1      46.195   4.921  12.625  0.00  0.00    +0.000 A 
ATOM      5  N   UNL     1      45.523   5.130  11.420  0.00  0.00    +0.000 N 
ATOM      6  N   UNL     1      46.158   3.737  13.284  0.00  0.00    +0.000 NA
ATOM      7  C   UNL     1      46.793   3.673  14.481  0.00  0.00    +0.000 A 
ATOM      8  H   UNL     1      46.155   5.550  10.742  0.00  0.00    +0.000 HD
ENDROOT
BRANCH   1  10
ATOM      9  N   UNL     1      47.278   5.108  17.472  0.00  0.00    +0.000 N 
ATOM     10  C   UNL     1      48.008   4.599  16.428  0.00  0.00    +0.000 C 
ATOM     11  O   UNL     1      49.063   4.022  16.612  0.00  0.00    +0.000 OA
ATOM     12  H   UNL     1      47.625   4.912  18.398  0.00  0.00    +0.000 HD
ATOM     13  H   UNL     1      46.305   5.373  17.383  0.00  0.00    +0.000 HD
ENDBRANCH   1  10
BRANCH   5  14
ATOM     14  C   UNL     1      44.537   4.219  10.827  0.00  0.00    +0.000 C 
ATOM     15  C   UNL     1      43.140   4.811  10.976  0.00  0.00    +0.000 C 
ATOM     16  C   UNL     1      43.427   3.465  11.536  0.00  0.00    +0.000 C 
BRANCH  14  17
ATOM     17  C   UNL     1      45.067   3.580   9.554  0.00  0.00    +0.000 A 
ATOM     18  C   UNL     1      45.065   2.179   9.402  0.00  0.00    +0.000 A 
ATOM     19  C   UNL     1      45.777   1.553   8.374  0.00  0.00    +0.000 A 
ATOM     20  C   UNL     1      46.507   2.320   7.468  0.00  0.00    +0.000 A 
ATOM     21  C   UNL     1      46.478   3.708   7.561  0.00  0.00    +0.000 A 
ATOM     22  C   UNL     1      45.754   4.320   8.584  0.00  0.00    +0.000 A 
ATOM     23  F   UNL     1      45.801   5.658   8.682  0.00  0.00    +0.000 F 
ENDBRANCH  14  17
ENDBRANCH   5  14
TORSDOF 3
ENDMDL
MODEL 3
REMARK VINA RESULT:    -7.479      3.522      6.191
REMARK INTER + INTRA:          -8.247
REMARK INTER:                  -8.010
REMARK INTRA:                  -0.237
REMARK UNBOUND:                 0.544
REMARK  Name = 
REMARK  3 active torsions:
REMARK  status: ('A' for Active; 'I' for Inactive)
REMARK    1  A    between atoms: C_2  and  C_4
REMARK    2  A    between atoms: N_8  and  C_9
REMARK    3  A    between atoms: C_9  and  C_10
REMARK                            x       y       z     vdW  Elec       q    Type
REMARK                         _______ _______ _______ _____ _____    ______ ____
ROOT
ATOM      1  C   UNL     1      47.630   5.037  15.354  0.00  0.00    +0.000 A 
ATOM      2  C   UNL     1      47.870   6.248  14.707  0.00  0.00    +0.000 A 
ATOM      3  C   UNL     1      47.210   6.498  13.519  0.00  0.00    +0.000 A 
ATOM      4  C   UNL     1      46.316   5.565  12.993  0.00  0.00    +0.000 A 
ATOM      5  N   UNL     1      45.630   5.961  11.844  0.00  0.00    +0.000 N 
ATOM      6  N   UNL     1      46.087   4.377  13.604  0.00  0.00    +0.000 NA
ATOM      7  C   UNL     1      46.764   4.130  14.754  0.00  0.00    +0.000 A 
ATOM      8  H   UNL     1      46.292   6.286  11.143  0.00  0.00    +0.000 HD
ENDROOT
BRANCH   1  10
ATOM      9  N   UNL     1      47.579   5.131  17.773  0.00  0.00    +0.000 N 
ATOM     10  C   UNL     1      48.245   4.704  16.651  0.00  0.00    +0.000 C 
ATOM     11  O   UNL     1      49.272   4.055  16.730  0.00  0.00    +0.000 OA
ATOM     12  H   UNL     1      47.945   4.816  18.657  0.00  0.00    +0.000 HD
ATOM     13  H   UNL     1      46.621   5.455  17.751  0.00  0.00    +0.000 HD
ENDBRANCH   1  10
BRANCH   5  14
ATOM     14  C   UNL     1      44.453   5.288  11.281  0.00  0.00    +0.000 C 
ATOM     15  C   UNL     1      43.313   6.289  11.137  0.00  0.00    +0.000 C 
ATOM     16  C   UNL     1      43.109   5.060  11.947  0.00  0.00    +0.000 C 
BRANCH  14  17
ATOM     17  C   UNL     1      44.848   4.278  10.217  0.00  0.00    +0.000 A 
ATOM     18  C   UNL     1      45.492   4.696   9.036  0.00  0.00    +0.000 A 
ATOM     19  C   UNL     1      45.630   3.844   7.935  0.00  0.00    +0.000 A 
ATOM     20  C   UNL     1      45.126   2.547   7.995  0.00  0.00    +0.000 A 
ATOM     21  C   UNL     1      44.539   2.090   9.170  0.00  0.00    +0.000 A 
ATOM     22  C   UNL     1      44.419   2.945  10.265  0.00  0.00    +0.000 A 
ATOM     23  F   UNL     1      43.788   2.492  11.360  0.00  0.00    +0.000 F 
ENDBRANCH  14  17
ENDBRANCH   5  14
TORSDOF 3
ENDMDL
MODEL 4
REMARK VINA RESULT:    -7.078      3.326      6.367
REMARK INTER + INTRA:          -7.776
REMARK INTER:                  -8.133
REMARK INTRA:                   0.357
REMARK UNBOUND:                 0.544
REMARK  Name = 
REMARK  3 active torsions:
REMARK  status: ('A' for Active; 'I' for Inactive)
REMARK    1  A    between atoms: C_2  and  C_4
REMARK    2  A    between atoms: N_8  and  C_9
REMARK    3  A    between atoms: C_9  and  C_10
REMARK                            x       y       z     vdW  Elec       q    Type
REMARK                         _______ _______ _______ _____ _____    ______ ____
ROOT
ATOM      1  C   UNL     1      47.381   7.700  13.271  0.00  0.00    +0.000 A 
ATOM      2  C   UNL     1      46.412   8.396  12.550  0.00  0.00    +0.000 A 
ATOM      3  C   UNL     1      45.577   7.679  11.714  0.00  0.00    +0.000 A 
ATOM      4  C   UNL     1      45.695   6.293  11.610  0.00  0.00    +0.000 A 
ATOM      5  N   UNL     1      44.738   5.659  10.816  0.00  0.00    +0.000 N 
ATOM      6  N   UNL     1      46.644   5.607  12.293  0.00  0.00    +0.000 NA
ATOM      7  C   UNL     1      47.478   6.325  13.087  0.00  0.00    +0.000 A 
ATOM      8  H   UNL     1      44.699   6.104   9.903  0.00  0.00    +0.000 HD
ENDROOT
BRANCH   1  10
ATOM      9  N   UNL     1      47.901   9.617  14.656  0.00  0.00    +0.000 N 
ATOM     10  C   UNL     1      48.281   8.370  14.227  0.00  0.00    +0.000 C 
ATOM     11  O   UNL     1      49.292   7.836  14.643  0.00  0.00    +0.000 OA
ATOM     12  H   UNL     1      48.462  10.030  15.384  0.00  0.00    +0.000 HD
ATOM     13  H   UNL     1      46.967   9.982  14.520  0.00  0.00    +0.000 HD
ENDBRANCH   1  10
BRANCH   5  14
ATOM     14  C   UNL     1      44.481   4.214  10.784  0.00  0.00    +0.000 C 
ATOM     15  C   UNL     1      43.090   3.930  11.339  0.00  0.00    +0.000 C 
ATOM     16  C   UNL     1      44.273   3.283  11.964  0.00  0.00    +0.000 C 
BRANCH  14  17
ATOM     17  C   UNL     1      45.051   3.578   9.527  0.00  0.00    +0.000 A 
ATOM     18  C   UNL     1      45.083   2.176   9.385  0.00  0.00    +0.000 A 
ATOM     19  C   UNL     1      45.828   1.559   8.376  0.00  0.00    +0.000 A 
ATOM     20  C   UNL     1      46.559   2.336   7.479  0.00  0.00    +0.000 A 
ATOM     21  C   UNL     1      46.497   3.723   7.561  0.00  0.00    +0.000 A 
ATOM     22  C   UNL     1      45.740   4.327   8.565  0.00  0.00    +0.000 A 
ATOM     23  F   UNL     1      45.755   5.666   8.654  0.00  0.00    +0.000 F 
ENDBRANCH  14  17
ENDBRANCH   5  14
TORSDOF 3
ENDMDL
MODEL 5
REMARK VINA RESULT:    -6.371      3.679      5.641
REMARK INTER + INTRA:          -6.945
REMARK INTER:                  -6.664
REMARK INTRA:                  -0.281
REMARK UNBOUND:                 0.544
REMARK  Name = 
REMARK  3 active torsions:
REMARK  status: ('A' for Active; 'I' for Inactive)
REMARK    1  A    between atoms: C_2  and  C_4
REMARK    2  A    between atoms: N_8  and  C_9
REMARK    3  A    between atoms: C_9  and  C_10
REMARK                            x       y       z     vdW  Elec       q    Type
REMARK                         _______ _______ _______ _____ _____    ______ ____
ROOT
ATOM      1  C   UNL     1      44.940   4.620  11.452  0.00  0.00    +0.000 A 
ATOM      2  C   UNL     1      45.325   4.080  12.678  0.00  0.00    +0.000 A 
ATOM      3  C   UNL     1      46.305   4.732  13.401  0.00  0.00    +0.000 A 
ATOM      4  C   UNL     1      46.881   5.907  12.919  0.00  0.00    +0.000 A 
ATOM      5  N   UNL     1      47.787   6.536  13.775  0.00  0.00    +0.000 N 
ATOM      6  N   UNL     1      46.527   6.433  11.721  0.00  0.00    +0.000 NA
ATOM      7  C   UNL     1      45.586   5.767  11.005  0.00  0.00    +0.000 A 
ATOM      8  H   UNL     1      48.491   5.868  14.081  0.00  0.00    +0.000 HD
ENDROOT
BRANCH   1  10
ATOM      9  N   UNL     1      43.847   4.371   9.306  0.00  0.00    +0.000 N 
ATOM     10  C   UNL     1      43.866   4.027  10.634  0.00  0.00    +0.000 C 
ATOM     11  O   UNL     1      43.057   3.246  11.100  0.00  0.00    +0.000 OA
ATOM     12  H   UNL     1      43.177   3.888   8.728  0.00  0.00    +0.000 HD
ATOM     13  H   UNL     1      44.629   4.817   8.844  0.00  0.00    +0.000 HD
ENDBRANCH   1  10
BRANCH   5  14
ATOM     14  C   UNL     1      48.294   7.905  13.620  0.00  0.00    +0.000 C 
ATOM     15  C   UNL     1      47.778   8.773  14.761  0.00  0.00    +0.000 C 
ATOM     16  C   UNL     1      47.494   9.166  13.356  0.00  0.00    +0.000 C 
BRANCH  14  17
ATOM     17  C   UNL     1      49.729   7.910  13.118  0.00  0.00    +0.000 A 
ATOM     18  C   UNL     1      50.795   8.190  13.997  0.00  0.00    +0.000 A 
ATOM     19  C   UNL     1      52.082   8.461  13.524  0.00  0.00    +0.000 A 
ATOM     20  C   UNL     1      52.334   8.455  12.154  0.00  0.00    +0.000 A 
ATOM     21  C   UNL     1      51.314   8.124  11.268  0.00  0.00    +0.000 A 
ATOM     22  C   UNL     1      50.037   7.843  11.753  0.00  0.00    +0.000 A 
ATOM     23  F   UNL     1      49.061   7.592  10.866  0.00  0.00    +0.000 F 
ENDBRANCH  14  17
ENDBRANCH   5  14
TORSDOF 3
ENDMDL
MODEL 6
REMARK VINA RESULT:    -6.296      3.973      5.726
REMARK INTER + INTRA:          -6.856
REMARK INTER:                  -6.241
REMARK INTRA:                  -0.615
REMARK UNBOUND:                 0.544
REMARK  Name = 
REMARK  3 active torsions:
REMARK  status: ('A' for Active; 'I' for Inactive)
REMARK    1  A    between atoms: C_2  and  C_4
REMARK    2  A    between atoms: N_8  and  C_9
REMARK    3  A    between atoms: C_9  and  C_10
REMARK                            x       y       z     vdW  Elec       q    Type
REMARK                         _______ _______ _______ _____ _____    ______ ____
ROOT
ATOM      1  C   UNL     1      44.701   4.806  11.956  0.00  0.00    +0.000 A 
ATOM      2  C   UNL     1      44.336   6.069  11.494  0.00  0.00    +0.000 A 
ATOM      3  C   UNL     1      45.202   7.123  11.715  0.00  0.00    +0.000 A 
ATOM      4  C   UNL     1      46.416   6.919  12.371  0.00  0.00    +0.000 A 
ATOM      5  N   UNL     1      47.257   8.030  12.451  0.00  0.00    +0.000 N 
ATOM      6  N   UNL     1      46.775   5.699  12.840  0.00  0.00    +0.000 NA
ATOM      7  C   UNL     1      45.902   4.679  12.644  0.00  0.00    +0.000 A 
ATOM      8  H   UNL     1      46.748   8.821  12.837  0.00  0.00    +0.000 HD
ENDROOT
BRANCH   1  10
ATOM      9  N   UNL     1      44.089   2.540  12.549  0.00  0.00    +0.000 N 
ATOM     10  C   UNL     1      43.869   3.612  11.722  0.00  0.00    +0.000 C 
ATOM     11  O   UNL     1      43.007   3.586  10.863  0.00  0.00    +0.000 OA
ATOM     12  H   UNL     1      43.453   1.764  12.455  0.00  0.00    +0.000 HD
ATOM     13  H   UNL     1      44.617   2.611  13.409  0.00  0.00    +0.000 HD
ENDBRANCH   1  10
BRANCH   5  14
ATOM     14  C   UNL     1      48.676   7.997  12.827  0.00  0.00    +0.000 C 
ATOM     15  C   UNL     1      49.500   8.733  11.778  0.00  0.00    +0.000 C 
ATOM     16  C   UNL     1      49.815   7.315  12.093  0.00  0.00    +0.000 C 
BRANCH  14  17
ATOM     17  C   UNL     1      48.855   8.159  14.328  0.00  0.00    +0.000 A 
ATOM     18  C   UNL     1      49.098   7.037  15.145  0.00  0.00    +0.000 A 
ATOM     19  C   UNL     1      49.005   7.112  16.539  0.00  0.00    +0.000 A 
ATOM     20  C   UNL     1      48.669   8.319  17.148  0.00  0.00    +0.000 A 
ATOM     21  C   UNL     1      48.482   9.456  16.368  0.00  0.00    +0.000 A 
ATOM     22  C   UNL     1      48.589   9.370  14.980  0.00  0.00    +0.000 A 
ATOM     23  F   UNL     1      48.338  10.471  14.254  0.00  0.00    +0.000 F 
ENDBRANCH  14  17
ENDBRANCH   5  14
TORSDOF 3
ENDMDL
MODEL 7
REMARK VINA RESULT:    -6.238      4.206      6.670
REMARK INTER + INTRA:          -6.789
REMARK INTER:                  -6.785
REMARK INTRA:                  -0.004
REMARK UNBOUND:                 0.544
REMARK  Name = 
REMARK  3 active torsions:
REMARK  status: ('A' for Active; 'I' for Inactive)
REMARK    1  A    between atoms: C_2  and  C_4
REMARK    2  A    between atoms: N_8  and  C_9
REMARK    3  A    between atoms: C_9  and  C_10
REMARK                            x       y       z     vdW  Elec       q    Type
REMARK                         _______ _______ _______ _____ _____    ______ ____
ROOT
ATOM      1  C   UNL     1      49.779   7.361  14.472  0.00  0.00    +0.000 A 
ATOM      2  C   UNL     1      50.039   7.852  13.194  0.00  0.00    +0.000 A 
ATOM      3  C   UNL     1      49.117   7.601  12.196  0.00  0.00    +0.000 A 
ATOM      4  C   UNL     1      47.950   6.887  12.469  0.00  0.00    +0.000 A 
ATOM      5  N   UNL     1      47.043   6.778  11.414  0.00  0.00    +0.000 N 
ATOM      6  N   UNL     1      47.694   6.389  13.704  0.00  0.00    +0.000 NA
ATOM      7  C   UNL     1      48.622   6.615  14.668  0.00  0.00    +0.000 A 
ATOM      8  H   UNL     1      47.517   6.424  10.587  0.00  0.00    +0.000 HD
ENDROOT
BRANCH   1  10
ATOM      9  N   UNL     1      51.836   6.892  15.659  0.00  0.00    +0.000 N 
ATOM     10  C   UNL     1      50.676   7.622  15.612  0.00  0.00    +0.000 C 
ATOM     11  O   UNL     1      50.421   8.465  16.452  0.00  0.00    +0.000 OA
ATOM     12  H   UNL     1      52.494   7.143  16.380  0.00  0.00    +0.000 HD
ATOM     13  H   UNL     1      52.186   6.368  14.867  0.00  0.00    +0.000 HD
ENDBRANCH   1  10
BRANCH   5  14
ATOM     14  C   UNL     1      45.648   6.335  11.534  0.00  0.00    +0.000 C 
ATOM     15  C   UNL     1      44.723   7.545  11.498  0.00  0.00    +0.000 C 
ATOM     16  C   UNL     1      44.677   6.624  12.663  0.00  0.00    +0.000 C 
BRANCH  14  17
ATOM     17  C   UNL     1      45.408   5.046  10.764  0.00  0.00    +0.000 A 
ATOM     18  C   UNL     1      45.406   5.044   9.355  0.00  0.00    +0.000 A 
ATOM     19  C   UNL     1      44.934   3.948   8.626  0.00  0.00    +0.000 A 
ATOM     20  C   UNL     1      44.455   2.824   9.293  0.00  0.00    +0.000 A 
ATOM     21  C   UNL     1      44.501   2.777  10.683  0.00  0.00    +0.000 A 
ATOM     22  C   UNL     1      44.985   3.871  11.399  0.00  0.00    +0.000 A 
ATOM     23  F   UNL     1      44.955   3.818  12.740  0.00  0.00    +0.000 F 
ENDBRANCH  14  17
ENDBRANCH   5  14
TORSDOF 3
ENDMDL
MODEL 8
REMARK VINA RESULT:    -6.228      6.556      8.773
REMARK INTER + INTRA:          -6.777
REMARK INTER:                  -6.436
REMARK INTRA:                  -0.340
REMARK UNBOUND:                 0.544
REMARK  Name = 
REMARK  3 active torsions:
REMARK  status: ('A' for Active; 'I' for Inactive)
REMARK    1  A    between atoms: C_2  and  C_4
REMARK    2  A    between atoms: N_8  and  C_9
REMARK    3  A    between atoms: C_9  and  C_10
REMARK                            x       y       z     vdW  Elec       q    Type
REMARK                         _______ _______ _______ _____ _____    ______ ____
ROOT
ATOM      1  C   UNL     1      52.219   1.822  17.699  0.00  0.00    +0.000 A 
ATOM      2  C   UNL     1      52.817   3.009  18.120  0.00  0.00    +0.000 A 
ATOM      3  C   UNL     1      52.078   4.175  18.051  0.00  0.00    +0.000 A 
ATOM      4  C   UNL     1      50.763   4.156  17.585  0.00  0.00    +0.000 A 
ATOM      5  N   UNL     1      50.077   5.370  17.653  0.00  0.00    +0.000 N 
ATOM      6  N   UNL     1      50.176   3.012  17.158  0.00  0.00    +0.000 NA
ATOM      7  C   UNL     1      50.922   1.879  17.201  0.00  0.00    +0.000 A 
ATOM      8  H   UNL     1      50.626   6.101  17.205  0.00  0.00    +0.000 HD
ENDROOT
BRANCH   1  10
ATOM      9  N   UNL     1      52.278  -0.457  18.512  0.00  0.00    +0.000 N 
ATOM     10  C   UNL     1      52.907   0.522  17.785  0.00  0.00    +0.000 C 
ATOM     11  O   UNL     1      53.961   0.311  17.214  0.00  0.00    +0.000 OA
ATOM     12  H   UNL     1      52.698  -1.373  18.486  0.00  0.00    +0.000 HD
ATOM     13  H   UNL     1      51.308  -0.394  18.792  0.00  0.00    +0.000 HD
ENDBRANCH   1  10
BRANCH   5  14
ATOM     14  C   UNL     1      48.627   5.538  17.497  0.00  0.00    +0.000 C 
ATOM     15  C   UNL     1      48.125   6.585  18.484  0.00  0.00    +0.000 C 
ATOM     16  C   UNL     1      47.543   5.218  18.509  0.00  0.00    +0.000 C 
BRANCH  14  17
ATOM     17  C   UNL     1      48.215   5.468  16.036  0.00  0.00    +0.000 A 
ATOM     18  C   UNL     1      48.503   6.532  15.159  0.00  0.00    +0.000 A 
ATOM     19  C   UNL     1      47.915   6.617  13.893  0.00  0.00    +0.000 A 
ATOM     20  C   UNL     1      47.024   5.631  13.473  0.00  0.00    +0.000 A 
ATOM     21  C   UNL     1      46.769   4.539  14.297  0.00  0.00    +0.000 A 
ATOM     22  C   UNL     1      47.370   4.460  15.552  0.00  0.00    +0.000 A 
ATOM     23  F   UNL     1      47.050   3.426  16.347  0.00  0.00    +0.000 F 
ENDBRANCH  14  17
ENDBRANCH   5  14
TORSDOF 3
ENDMDL
MODEL 9
REMARK VINA RESULT:    -6.195      5.739      7.585
REMARK INTER + INTRA:          -6.738
REMARK INTER:                  -6.109
REMARK INTRA:                  -0.629
REMARK UNBOUND:                 0.544
REMARK  Name = 
REMARK  3 active torsions:
REMARK  status: ('A' for Active; 'I' for Inactive)
REMARK    1  A    between atoms: C_2  and  C_4
REMARK    2  A    between atoms: N_8  and  C_9
REMARK    3  A    between atoms: C_9  and  C_10
REMARK                            x       y       z     vdW  Elec       q    Type
REMARK                         _______ _______ _______ _____ _____    ______ ____
ROOT
ATOM      1  C   UNL     1      48.998   7.552  12.859  0.00  0.00    +0.000 A 
ATOM      2  C   UNL     1      47.801   6.848  12.753  0.00  0.00    +0.000 A 
ATOM      3  C   UNL     1      47.423   6.037  13.806  0.00  0.00    +0.000 A 
ATOM      4  C   UNL     1      48.216   5.941  14.949  0.00  0.00    +0.000 A 
ATOM      5  N   UNL     1      47.691   5.175  15.991  0.00  0.00    +0.000 N 
ATOM      6  N   UNL     1      49.391   6.609  15.057  0.00  0.00    +0.000 NA
ATOM      7  C   UNL     1      49.767   7.377  14.004  0.00  0.00    +0.000 A 
ATOM      8  H   UNL     1      47.421   4.258  15.642  0.00  0.00    +0.000 HD
ENDROOT
BRANCH   1  10
ATOM      9  N   UNL     1      48.660   9.571  11.565  0.00  0.00    +0.000 N 
ATOM     10  C   UNL     1      49.458   8.483  11.812  0.00  0.00    +0.000 C 
ATOM     11  O   UNL     1      50.507   8.317  11.217  0.00  0.00    +0.000 OA
ATOM     12  H   UNL     1      49.024  10.257  10.924  0.00  0.00    +0.000 HD
ATOM     13  H   UNL     1      47.921   9.862  12.193  0.00  0.00    +0.000 HD
ENDBRANCH   1  10
BRANCH   5  14
ATOM     14  C   UNL     1      48.191   5.160  17.371  0.00  0.00    +0.000 C 
ATOM     15  C   UNL     1      47.028   5.351  18.338  0.00  0.00    +0.000 C 
ATOM     16  C   UNL     1      48.174   6.296  18.376  0.00  0.00    +0.000 C 
BRANCH  14  17
ATOM     17  C   UNL     1      49.295   4.130  17.550  0.00  0.00    +0.000 A 
ATOM     18  C   UNL     1      50.607   4.535  17.869  0.00  0.00    +0.000 A 
ATOM     19  C   UNL     1      51.687   3.652  17.781  0.00  0.00    +0.000 A 
ATOM     20  C   UNL     1      51.477   2.336  17.374  0.00  0.00    +0.000 A 
ATOM     21  C   UNL     1      50.184   1.895  17.111  0.00  0.00    +0.000 A 
ATOM     22  C   UNL     1      49.113   2.783  17.214  0.00  0.00    +0.000 A 
ATOM     23  F   UNL     1      47.887   2.341  16.890  0.00  0.00    +0.000 F 
ENDBRANCH  14  17
ENDBRANCH   5  14
TORSDOF 3
ENDMDL
