MODEL 1
REMARK VINA RESULT:    -7.491      0.000      0.000
REMARK INTER + INTRA:         -12.230
REMARK INTER:                 -11.214
REMARK INTRA:                  -1.016
REMARK UNBOUND:                -1.016
REMARK  Name = 
REMARK  10 active torsions:
REMARK  status: ('A' for Active; 'I' for Inactive)
REMARK    1  A    between atoms: C_1  and  O_2
REMARK    2  A    between atoms: O_2  and  C_3
REMARK    3  A    between atoms: C_8  and  C_9
REMARK    4  A    between atoms: N_11  and  C_12
REMARK    5  A    between atoms: C_12  and  C_13
REMARK    6  A    between atoms: C_16  and  CA_17
REMARK    7  A    between atoms: CA_17  and  C_18
REMARK    8  A    between atoms: CA_17  and  N_20
REMARK    9  A    between atoms: C_18  and  O_19
REMARK   10  A    between atoms: C_21  and  C_23
REMARK                            x       y       z     vdW  Elec       q    Type
REMARK                         _______ _______ _______ _____ _____    ______ ____
ROOT
ATOM      1  C   UNL     1      47.676   5.618  14.729  0.00  0.00    +0.000 A 
ATOM      2  C   UNL     1      48.639   6.220  15.546  0.00  0.00    +0.000 A 
ATOM      3  C   UNL     1      49.044   5.615  16.743  0.00  0.00    +0.000 A 
ATOM      4  C   UNL     1      48.499   4.388  17.159  0.00  0.00    +0.000 A 
ATOM      5  C   UNL     1      47.554   3.778  16.316  0.00  0.00    +0.000 A 
ATOM      6  C   UNL     1      47.148   4.383  15.119  0.00  0.00    +0.000 A 
ENDROOT
BRANCH   1   7
ATOM      7  C   UNL     1      47.227   6.275  13.450  0.00  0.00    +0.000 C 
BRANCH   7  10
ATOM      8  C   UNL     1      45.819   5.723  11.519  0.00  0.00    +0.000 C 
ATOM      9  O   UNL     1      45.402   6.876  11.459  0.00  0.00    +0.000 OA
ATOM     10  N   UNL     1      46.709   5.329  12.494  0.00  0.00    +0.000 N 
ATOM     11  H   UNL     1      47.029   4.366  12.506  0.00  0.00    +0.000 HD
BRANCH   8  17
ATOM     12  C   UNL     1      44.802   3.456  10.797  0.00  0.00    +0.000 A 
ATOM     13  C   UNL     1      44.483   2.585   9.741  0.00  0.00    +0.000 A 
ATOM     14  C   UNL     1      44.707   2.949   8.410  0.00  0.00    +0.000 A 
ATOM     15  C   UNL     1      45.253   4.191   8.114  0.00  0.00    +0.000 A 
ATOM     16  C   UNL     1      45.583   5.063   9.150  0.00  0.00    +0.000 A 
ATOM     17  C   UNL     1      45.377   4.709  10.500  0.00  0.00    +0.000 A 
BRANCH  12  19
ATOM     18  C   UNL     1      43.380   3.610  12.716  0.00  0.00    +0.000 C 
ATOM     19  O   UNL     1      44.584   3.142  12.116  0.00  0.00    +0.000 OA
ENDBRANCH  12  19
ENDBRANCH   8  17
ENDBRANCH   7  10
ENDBRANCH   1   7
BRANCH   4  20
ATOM     20  CA  UNL     1      48.931   3.681  18.447  0.00  0.00    +0.000 C 
BRANCH  20  21
ATOM     21  N   UNL     1      50.333   3.280  18.416  0.00  0.00    +0.000 N 
ATOM     22  C   UNL     1      50.827   2.379  17.504  0.00  0.00    +0.000 C 
ATOM     23  O   UNL     1      50.129   1.861  16.641  0.00  0.00    +0.000 OA
ATOM     24  H   UNL     1      50.896   3.566  19.207  0.00  0.00    +0.000 HD
BRANCH  22  25
ATOM     25  C   UNL     1      52.265   2.129  17.605  0.00  0.00    +0.000 A 
ATOM     26  C   UNL     1      52.820   0.860  17.673  0.00  0.00    +0.000 A 
ATOM     27  S   UNL     1      54.509   0.873  17.932  0.00  0.00    +0.000 S 
ATOM     28  C   UNL     1      54.546   2.574  17.963  0.00  0.00    +0.000 A 
ATOM     29  N   UNL     1      55.707   3.244  18.192  0.00  0.00    +0.000 NA
ATOM     30  C   UNL     1      55.581   4.530  18.206  0.00  0.00    +0.000 A 
ATOM     31  N   UNL     1      54.407   5.205  17.990  0.00  0.00    +0.000 N 
ATOM     32  C   UNL     1      53.228   4.573  17.656  0.00  0.00    +0.000 A 
ATOM     33  O   UNL     1      52.261   5.217  17.265  0.00  0.00    +0.000 OA
ATOM     34  C   UNL     1      53.300   3.124  17.729  0.00  0.00    +0.000 A 
ATOM     35  H   UNL     1      54.389   6.212  17.941  0.00  0.00    +0.000 HD
ENDBRANCH  22  25
ENDBRANCH  20  21
BRANCH  20  36
ATOM     36  C   UNL     1      48.715   4.552  19.707  0.00  0.00    +0.000 C 
BRANCH  36  37
ATOM     37  O   UNL     1      48.358   3.743  20.835  0.00  0.00    +0.000 OA
ATOM     38  H   UNL     1      49.183   3.347  21.171  0.00  0.00    +0.000 HD
ENDBRANCH  36  37
ENDBRANCH  20  36
ENDBRANCH   4  20
TORSDOF 9
ENDMDL
MODEL 2
REMARK VINA RESULT:    -7.153      1.336      2.002
REMARK INTER + INTRA:         -11.724
REMARK INTER:                 -10.756
REMARK INTRA:                  -0.968
REMARK UNBOUND:                -1.016
REMARK  Name = 
REMARK  10 active torsions:
REMARK  status: ('A' for Active; 'I' for Inactive)
REMARK    1  A    between atoms: C_1  and  O_2
REMARK    2  A    between atoms: O_2  and  C_3
REMARK    3  A    between atoms: C_8  and  C_9
REMARK    4  A    between atoms: N_11  and  C_12
REMARK    5  A    between atoms: C_12  and  C_13
REMARK    6  A    between atoms: C_16  and  CA_17
REMARK    7  A    between atoms: CA_17  and  C_18
REMARK    8  A    between atoms: CA_17  and  N_20
REMARK    9  A    between atoms: C_18  and  O_19
REMARK   10  A    between atoms: C_21  and  C_23
REMARK                            x       y       z     vdW  Elec       q    Type
REMARK                         _______ _______ _______ _____ _____    ______ ____
ROOT
ATOM      1  C   UNL     1      47.669   5.979  14.530  0.00  0.00    +0.000 A 
ATOM      2  C   UNL     1      48.626   6.632  15.314  0.00  0.00    +0.000 A 
ATOM      3  C   UNL     1      49.013   6.111  16.557  0.00  0.00    +0.000 A 
ATOM      4  C   UNL     1      48.456   4.920  17.051  0.00  0.00    +0.000 A 
ATOM      5  C   UNL     1      47.516   4.257  16.242  0.00  0.00    +0.000 A 
ATOM      6  C   UNL     1      47.128   4.777  15.001  0.00  0.00    +0.000 A 
ENDROOT
BRANCH   1   7
ATOM      7  C   UNL     1      47.239   6.546  13.203  0.00  0.00    +0.000 C 
BRANCH   7  10
ATOM      8  C   UNL     1      45.872   5.836  11.294  0.00  0.00    +0.000 C 
ATOM      9  O   UNL     1      45.405   6.965  11.174  0.00  0.00    +0.000 OA
ATOM     10  N   UNL     1      46.770   5.531  12.293  0.00  0.00    +0.000 N 
ATOM     11  H   UNL     1      47.132   4.585  12.356  0.00  0.00    +0.000 HD
BRANCH   8  17
ATOM     12  C   UNL     1      44.923   3.508  10.680  0.00  0.00    +0.000 A 
ATOM     13  C   UNL     1      44.655   2.569   9.669  0.00  0.00    +0.000 A 
ATOM     14  C   UNL     1      44.915   2.858   8.326  0.00  0.00    +0.000 A 
ATOM     15  C   UNL     1      45.445   4.091   7.972  0.00  0.00    +0.000 A 
ATOM     16  C   UNL     1      45.725   5.030   8.963  0.00  0.00    +0.000 A 
ATOM     17  C   UNL     1      45.483   4.754  10.325  0.00  0.00    +0.000 A 
BRANCH  12  19
ATOM     18  C   UNL     1      43.370   2.801  12.359  0.00  0.00    +0.000 C 
ATOM     19  O   UNL     1      44.669   3.269  12.008  0.00  0.00    +0.000 OA
ENDBRANCH  12  19
ENDBRANCH   8  17
ENDBRANCH   7  10
ENDBRANCH   1   7
BRANCH   4  20
ATOM     20  CA  UNL     1      48.867   4.304  18.391  0.00  0.00    +0.000 C 
BRANCH  20  21
ATOM     21  N   UNL     1      50.301   4.048  18.467  0.00  0.00    +0.000 N 
ATOM     22  C   UNL     1      50.939   3.154  17.640  0.00  0.00    +0.000 C 
ATOM     23  O   UNL     1      50.353   2.522  16.770  0.00  0.00    +0.000 OA
ATOM     24  H   UNL     1      50.781   4.432  19.270  0.00  0.00    +0.000 HD
BRANCH  22  25
ATOM     25  C   UNL     1      52.386   3.059  17.839  0.00  0.00    +0.000 A 
ATOM     26  C   UNL     1      53.227   4.161  17.896  0.00  0.00    +0.000 A 
ATOM     27  S   UNL     1      54.881   3.746  17.991  0.00  0.00    +0.000 S 
ATOM     28  C   UNL     1      54.522   2.082  17.957  0.00  0.00    +0.000 A 
ATOM     29  N   UNL     1      55.513   1.152  17.969  0.00  0.00    +0.000 NA
ATOM     30  C   UNL     1      55.093  -0.069  17.921  0.00  0.00    +0.000 A 
ATOM     31  N   UNL     1      53.775  -0.442  17.886  0.00  0.00    +0.000 N 
ATOM     32  C   UNL     1      52.736   0.459  17.973  0.00  0.00    +0.000 A 
ATOM     33  O   UNL     1      51.586   0.074  18.152  0.00  0.00    +0.000 OA
ATOM     34  C   UNL     1      53.160   1.847  17.926  0.00  0.00    +0.000 A 
ATOM     35  H   UNL     1      53.510  -1.415  17.924  0.00  0.00    +0.000 HD
ENDBRANCH  22  25
ENDBRANCH  20  21
BRANCH  20  36
ATOM     36  C   UNL     1      48.480   5.189  19.600  0.00  0.00    +0.000 C 
BRANCH  36  37
ATOM     37  O   UNL     1      47.056   5.277  19.737  0.00  0.00    +0.000 OA
ATOM     38  H   UNL     1      46.778   6.085  19.267  0.00  0.00    +0.000 HD
ENDBRANCH  36  37
ENDBRANCH  20  36
ENDBRANCH   4  20
TORSDOF 9
ENDMDL
MODEL 3
REMARK VINA RESULT:    -6.911      4.083      9.707
REMARK INTER + INTRA:         -11.361
REMARK INTER:                  -9.877
REMARK INTRA:                  -1.484
REMARK UNBOUND:                -1.016
REMARK  Name = 
REMARK  10 active torsions:
REMARK  status: ('A' for Active; 'I' for Inactive)
REMARK    1  A    between atoms: C_1  and  O_2
REMARK    2  A    between atoms: O_2  and  C_3
REMARK    3  A    between atoms: C_8  and  C_9
REMARK    4  A    between atoms: N_11  and  C_12
REMARK    5  A    between atoms: C_12  and  C_13
REMARK    6  A    between atoms: C_16  and  CA_17
REMARK    7  A    between atoms: CA_17  and  C_18
REMARK    8  A    between atoms: CA_17  and  N_20
REMARK    9  A    between atoms: C_18  and  O_19
REMARK   10  A    between atoms: C_21  and  C_23
REMARK                            x       y       z     vdW  Elec       q    Type
REMARK                         _______ _______ _______ _____ _____    ______ ____
ROOT
ATOM      1  C   UNL     1      48.044   6.639  14.080  0.00  0.00    +0.000 A 
ATOM      2  C   UNL     1      47.423   7.376  13.065  0.00  0.00    +0.000 A 
ATOM      3  C   UNL     1      46.337   6.846  12.355  0.00  0.00    +0.000 A 
ATOM      4  C   UNL     1      45.838   5.564  12.639  0.00  0.00    +0.000 A 
ATOM      5  C   UNL     1      46.452   4.844  13.679  0.00  0.00    +0.000 A 
ATOM      6  C   UNL     1      47.537   5.373  14.389  0.00  0.00    +0.000 A 
ENDROOT
BRANCH   1   7
ATOM      7  C   UNL     1      49.222   7.200  14.832  0.00  0.00    +0.000 C 
BRANCH   7  10
ATOM      8  C   UNL     1      48.925   7.101  17.265  0.00  0.00    +0.000 C 
ATOM      9  O   UNL     1      48.332   8.176  17.263  0.00  0.00    +0.000 OA
ATOM     10  N   UNL     1      49.425   6.553  16.105  0.00  0.00    +0.000 N 
ATOM     11  H   UNL     1      49.907   5.661  16.150  0.00  0.00    +0.000 HD
BRANCH   8  17
ATOM     12  C   UNL     1      48.690   5.004  18.762  0.00  0.00    +0.000 A 
ATOM     13  C   UNL     1      48.868   4.432  20.034  0.00  0.00    +0.000 A 
ATOM     14  C   UNL     1      49.456   5.155  21.076  0.00  0.00    +0.000 A 
ATOM     15  C   UNL     1      49.876   6.461  20.864  0.00  0.00    +0.000 A 
ATOM     16  C   UNL     1      49.699   7.046  19.611  0.00  0.00    +0.000 A 
ATOM     17  C   UNL     1      49.097   6.338  18.550  0.00  0.00    +0.000 A 
BRANCH  12  19
ATOM     18  C   UNL     1      47.784   2.957  17.915  0.00  0.00    +0.000 C 
ATOM     19  O   UNL     1      48.131   4.323  17.709  0.00  0.00    +0.000 OA
ENDBRANCH  12  19
ENDBRANCH   8  17
ENDBRANCH   7  10
ENDBRANCH   1   7
BRANCH   4  20
ATOM     20  CA  UNL     1      44.639   4.958  11.904  0.00  0.00    +0.000 C 
BRANCH  20  21
ATOM     21  N   UNL     1      45.030   3.885  10.997  0.00  0.00    +0.000 N 
ATOM     22  C   UNL     1      44.551   3.789   9.712  0.00  0.00    +0.000 C 
ATOM     23  O   UNL     1      43.776   4.606   9.232  0.00  0.00    +0.000 OA
ATOM     24  H   UNL     1      45.540   3.115  11.411  0.00  0.00    +0.000 HD
BRANCH  22  25
ATOM     25  C   UNL     1      45.086   2.665   8.941  0.00  0.00    +0.000 A 
ATOM     26  C   UNL     1      44.635   1.360   9.074  0.00  0.00    +0.000 A 
ATOM     27  S   UNL     1      45.537   0.237   8.157  0.00  0.00    +0.000 S 
ATOM     28  C   UNL     1      46.557   1.460   7.557  0.00  0.00    +0.000 A 
ATOM     29  N   UNL     1      47.593   1.164   6.730  0.00  0.00    +0.000 NA
ATOM     30  C   UNL     1      48.292   2.190   6.370  0.00  0.00    +0.000 A 
ATOM     31  N   UNL     1      48.034   3.483   6.744  0.00  0.00    +0.000 N 
ATOM     32  C   UNL     1      46.938   3.843   7.498  0.00  0.00    +0.000 A 
ATOM     33  O   UNL     1      46.629   5.022   7.630  0.00  0.00    +0.000 OA
ATOM     34  C   UNL     1      46.184   2.712   8.009  0.00  0.00    +0.000 A 
ATOM     35  H   UNL     1      48.574   4.249   6.368  0.00  0.00    +0.000 HD
ENDBRANCH  22  25
ENDBRANCH  20  21
BRANCH  20  36
ATOM     36  C   UNL     1      43.568   4.396  12.869  0.00  0.00    +0.000 C 
BRANCH  36  37
ATOM     37  O   UNL     1      42.679   5.431  13.308  0.00  0.00    +0.000 OA
ATOM     38  H   UNL     1      41.775   5.075  13.236  0.00  0.00    +0.000 HD
ENDBRANCH  36  37
ENDBRANCH  20  36
ENDBRANCH   4  20
TORSDOF 9
ENDMDL
MODEL 4
REMARK VINA RESULT:    -6.808      1.807      2.721
REMARK INTER + INTRA:         -11.208
REMARK INTER:                  -9.631
REMARK INTRA:                  -1.577
REMARK UNBOUND:                -1.016
REMARK  Name = 
REMARK  10 active torsions:
REMARK  status: ('A' for Active; 'I' for Inactive)
REMARK    1  A    between atoms: C_1  and  O_2
REMARK    2  A    between atoms: O_2  and  C_3
REMARK    3  A    between atoms: C_8  and  C_9
REMARK    4  A    between atoms: N_11  and  C_12
REMARK    5  A    between atoms: C_12  and  C_13
REMARK    6  A    between atoms: C_16  and  CA_17
REMARK    7  A    between atoms: CA_17  and  C_18
REMARK    8  A    between atoms: CA_17  and  N_20
REMARK    9  A    between atoms: C_18  and  O_19
REMARK   10  A    between atoms: C_21  and  C_23
REMARK                            x       y       z     vdW  Elec       q    Type
REMARK                         _______ _______ _______ _____ _____    ______ ____
ROOT
ATOM      1  C   UNL     1      47.131   7.519  13.177  0.00  0.00    +0.000 A 
ATOM      2  C   UNL     1      47.527   8.687  13.838  0.00  0.00    +0.000 A 
ATOM      3  C   UNL     1      48.315   8.623  14.995  0.00  0.00    +0.000 A 
ATOM      4  C   UNL     1      48.731   7.390  15.526  0.00  0.00    +0.000 A 
ATOM      5  C   UNL     1      48.350   6.225  14.837  0.00  0.00    +0.000 A 
ATOM      6  C   UNL     1      47.563   6.288  13.681  0.00  0.00    +0.000 A 
ENDROOT
BRANCH   1   7
ATOM      7  C   UNL     1      46.270   7.585  11.942  0.00  0.00    +0.000 C 
BRANCH   7  10
ATOM      8  C   UNL     1      45.194   5.720  10.766  0.00  0.00    +0.000 C 
ATOM      9  O   UNL     1      44.082   6.107  11.115  0.00  0.00    +0.000 OA
ATOM     10  N   UNL     1      46.339   6.379  11.155  0.00  0.00    +0.000 N 
ATOM     11  H   UNL     1      47.239   6.027  10.843  0.00  0.00    +0.000 HD
BRANCH   8  17
ATOM     12  C   UNL     1      45.071   3.184  10.268  0.00  0.00    +0.000 A 
ATOM     13  C   UNL     1      45.287   2.148   9.342  0.00  0.00    +0.000 A 
ATOM     14  C   UNL     1      45.730   2.419   8.044  0.00  0.00    +0.000 A 
ATOM     15  C   UNL     1      45.963   3.730   7.650  0.00  0.00    +0.000 A 
ATOM     16  C   UNL     1      45.762   4.767   8.558  0.00  0.00    +0.000 A 
ATOM     17  C   UNL     1      45.328   4.515   9.876  0.00  0.00    +0.000 A 
BRANCH  12  19
ATOM     18  C   UNL     1      43.229   2.729  11.726  0.00  0.00    +0.000 C 
ATOM     19  O   UNL     1      44.622   2.962  11.546  0.00  0.00    +0.000 OA
ENDBRANCH  12  19
ENDBRANCH   8  17
ENDBRANCH   7  10
ENDBRANCH   1   7
BRANCH   4  20
ATOM     20  CA  UNL     1      49.612   7.278  16.774  0.00  0.00    +0.000 C 
BRANCH  20  21
ATOM     21  N   UNL     1      50.278   5.984  16.867  0.00  0.00    +0.000 N 
ATOM     22  C   UNL     1      49.949   5.047  17.818  0.00  0.00    +0.000 C 
ATOM     23  O   UNL     1      49.063   5.225  18.643  0.00  0.00    +0.000 OA
ATOM     24  H   UNL     1      51.113   5.871  16.306  0.00  0.00    +0.000 HD
BRANCH  22  25
ATOM     25  C   UNL     1      50.702   3.795  17.731  0.00  0.00    +0.000 A 
ATOM     26  C   UNL     1      50.171   2.614  17.233  0.00  0.00    +0.000 A 
ATOM     27  S   UNL     1      51.227   1.280  17.386  0.00  0.00    +0.000 S 
ATOM     28  C   UNL     1      52.423   2.241  18.124  0.00  0.00    +0.000 A 
ATOM     29  N   UNL     1      53.592   1.697  18.552  0.00  0.00    +0.000 NA
ATOM     30  C   UNL     1      54.396   2.542  19.109  0.00  0.00    +0.000 A 
ATOM     31  N   UNL     1      54.146   3.881  19.255  0.00  0.00    +0.000 N 
ATOM     32  C   UNL     1      53.020   4.495  18.749  0.00  0.00    +0.000 A 
ATOM     33  O   UNL     1      52.935   5.717  18.714  0.00  0.00    +0.000 OA
ATOM     34  C   UNL     1      52.043   3.568  18.206  0.00  0.00    +0.000 A 
ATOM     35  H   UNL     1      54.846   4.502  19.633  0.00  0.00    +0.000 HD
ENDBRANCH  22  25
ENDBRANCH  20  21
BRANCH  20  36
ATOM     36  C   UNL     1      50.699   8.376  16.840  0.00  0.00    +0.000 C 
BRANCH  36  37
ATOM     37  O   UNL     1      52.010   7.809  16.737  0.00  0.00    +0.000 OA
ATOM     38  H   UNL     1      52.174   7.648  15.790  0.00  0.00    +0.000 HD
ENDBRANCH  36  37
ENDBRANCH  20  36
ENDBRANCH   4  20
TORSDOF 9
ENDMDL
MODEL 5
REMARK VINA RESULT:    -6.805      3.009      9.682
REMARK INTER + INTRA:         -11.203
REMARK INTER:                 -10.274
REMARK INTRA:                  -0.929
REMARK UNBOUND:                -1.016
REMARK  Name = 
REMARK  10 active torsions:
REMARK  status: ('A' for Active; 'I' for Inactive)
REMARK    1  A    between atoms: C_1  and  O_2
REMARK    2  A    between atoms: O_2  and  C_3
REMARK    3  A    between atoms: C_8  and  C_9
REMARK    4  A    between atoms: N_11  and  C_12
REMARK    5  A    between atoms: C_12  and  C_13
REMARK    6  A    between atoms: C_16  and  CA_17
REMARK    7  A    between atoms: CA_17  and  C_18
REMARK    8  A    between atoms: CA_17  and  N_20
REMARK    9  A    between atoms: C_18  and  O_19
REMARK   10  A    between atoms: C_21  and  C_23
REMARK                            x       y       z     vdW  Elec       q    Type
REMARK                         _______ _______ _______ _____ _____    ______ ____
ROOT
ATOM      1  C   UNL     1      50.355   7.258  15.565  0.00  0.00    +0.000 A 
ATOM      2  C   UNL     1      49.186   6.499  15.687  0.00  0.00    +0.000 A 
ATOM      3  C   UNL     1      48.114   6.683  14.803  0.00  0.00    +0.000 A 
ATOM      4  C   UNL     1      48.180   7.632  13.768  0.00  0.00    +0.000 A 
ATOM      5  C   UNL     1      49.370   8.369  13.638  0.00  0.00    +0.000 A 
ATOM      6  C   UNL     1      50.441   8.185  14.521  0.00  0.00    +0.000 A 
ENDROOT
BRANCH   1   7
ATOM      7  C   UNL     1      51.500   7.073  16.525  0.00  0.00    +0.000 C 
BRANCH   7  10
ATOM      8  C   UNL     1      51.544   4.948  17.751  0.00  0.00    +0.000 C 
ATOM      9  O   UNL     1      50.916   5.443  18.683  0.00  0.00    +0.000 OA
ATOM     10  N   UNL     1      51.901   5.693  16.649  0.00  0.00    +0.000 N 
ATOM     11  H   UNL     1      52.419   5.245  15.900  0.00  0.00    +0.000 HD
BRANCH   8  17
ATOM     12  C   UNL     1      51.137   2.439  17.267  0.00  0.00    +0.000 A 
ATOM     13  C   UNL     1      51.592   1.117  17.415  0.00  0.00    +0.000 A 
ATOM     14  C   UNL     1      52.808   0.836  18.044  0.00  0.00    +0.000 A 
ATOM     15  C   UNL     1      53.590   1.872  18.536  0.00  0.00    +0.000 A 
ATOM     16  C   UNL     1      53.150   3.188  18.405  0.00  0.00    +0.000 A 
ATOM     17  C   UNL     1      51.920   3.492  17.785  0.00  0.00    +0.000 A 
BRANCH  12  19
ATOM     18  C   UNL     1      48.757   2.652  17.402  0.00  0.00    +0.000 C 
ATOM     19  O   UNL     1      49.957   2.758  16.642  0.00  0.00    +0.000 OA
ENDBRANCH  12  19
ENDBRANCH   8  17
ENDBRANCH   7  10
ENDBRANCH   1   7
BRANCH   4  20
ATOM     20  CA  UNL     1      47.042   7.849  12.767  0.00  0.00    +0.000 C 
BRANCH  20  21
ATOM     21  N   UNL     1      46.311   6.619  12.484  0.00  0.00    +0.000 N 
ATOM     22  C   UNL     1      45.247   6.572  11.615  0.00  0.00    +0.000 C 
ATOM     23  O   UNL     1      44.847   7.555  11.004  0.00  0.00    +0.000 OA
ATOM     24  H   UNL     1      46.513   5.832  13.086  0.00  0.00    +0.000 HD
BRANCH  22  25
ATOM     25  C   UNL     1      44.663   5.242  11.431  0.00  0.00    +0.000 A 
ATOM     26  C   UNL     1      43.843   4.629  12.367  0.00  0.00    +0.000 A 
ATOM     27  S   UNL     1      43.426   3.025  11.953  0.00  0.00    +0.000 S 
ATOM     28  C   UNL     1      44.331   3.103  10.513  0.00  0.00    +0.000 A 
ATOM     29  N   UNL     1      44.431   2.026   9.690  0.00  0.00    +0.000 NA
ATOM     30  C   UNL     1      45.164   2.226   8.645  0.00  0.00    +0.000 A 
ATOM     31  N   UNL     1      45.785   3.408   8.338  0.00  0.00    +0.000 N 
ATOM     32  C   UNL     1      45.631   4.554   9.088  0.00  0.00    +0.000 A 
ATOM     33  O   UNL     1      46.027   5.636   8.668  0.00  0.00    +0.000 OA
ATOM     34  C   UNL     1      44.900   4.349  10.326  0.00  0.00    +0.000 A 
ATOM     35  H   UNL     1      46.284   3.522   7.468  0.00  0.00    +0.000 HD
ENDBRANCH  22  25
ENDBRANCH  20  21
BRANCH  20  36
ATOM     36  C   UNL     1      46.021   8.909  13.242  0.00  0.00    +0.000 C 
BRANCH  36  37
ATOM     37  O   UNL     1      46.027  10.052  12.378  0.00  0.00    +0.000 OA
ATOM     38  H   UNL     1      45.828   9.727  11.481  0.00  0.00    +0.000 HD
ENDBRANCH  36  37
ENDBRANCH  20  36
ENDBRANCH   4  20
TORSDOF 9
ENDMDL
MODEL 6
REMARK VINA RESULT:    -6.779      2.233      3.932
REMARK INTER + INTRA:         -11.163
REMARK INTER:                 -10.084
REMARK INTRA:                  -1.079
REMARK UNBOUND:                -1.016
REMARK  Name = 
REMARK  10 active torsions:
REMARK  status: ('A' for Active; 'I' for Inactive)
REMARK    1  A    between atoms: C_1  and  O_2
REMARK    2  A    between atoms: O_2  and  C_3
REMARK    3  A    between atoms: C_8  and  C_9
REMARK    4  A    between atoms: N_11  and  C_12
REMARK    5  A    between atoms: C_12  and  C_13
REMARK    6  A    between atoms: C_16  and  CA_17
REMARK    7  A    between atoms: CA_17  and  C_18
REMARK    8  A    between atoms: CA_17  and  N_20
REMARK    9  A    between atoms: C_18  and  O_19
REMARK   10  A    between atoms: C_21  and  C_23
REMARK                            x       y       z     vdW  Elec       q    Type
REMARK                         _______ _______ _______ _____ _____    ______ ____
ROOT
ATOM      1  C   UNL     1      46.633   7.541  13.146  0.00  0.00    +0.000 A 
ATOM      2  C   UNL     1      47.487   6.497  13.518  0.00  0.00    +0.000 A 
ATOM      3  C   UNL     1      48.609   6.740  14.323  0.00  0.00    +0.000 A 
ATOM      4  C   UNL     1      48.909   8.034  14.781  0.00  0.00    +0.000 A 
ATOM      5  C   UNL     1      48.029   9.070  14.423  0.00  0.00    +0.000 A 
ATOM      6  C   UNL     1      46.908   8.828  13.619  0.00  0.00    +0.000 A 
ENDROOT
BRANCH   1   7
ATOM      7  C   UNL     1      45.437   7.284  12.267  0.00  0.00    +0.000 C 
BRANCH   7  10
ATOM      8  C   UNL     1      44.534   5.562  10.772  0.00  0.00    +0.000 C 
ATOM      9  O   UNL     1      43.394   5.992  10.922  0.00  0.00    +0.000 OA
ATOM     10  N   UNL     1      45.607   6.127  11.424  0.00  0.00    +0.000 N 
ATOM     11  H   UNL     1      46.534   5.741  11.271  0.00  0.00    +0.000 HD
BRANCH   8  17
ATOM     12  C   UNL     1      44.221   3.122   9.970  0.00  0.00    +0.000 A 
ATOM     13  C   UNL     1      44.588   2.121   9.054  0.00  0.00    +0.000 A 
ATOM     14  C   UNL     1      45.483   2.386   8.014  0.00  0.00    +0.000 A 
ATOM     15  C   UNL     1      46.026   3.656   7.873  0.00  0.00    +0.000 A 
ATOM     16  C   UNL     1      45.680   4.657   8.778  0.00  0.00    +0.000 A 
ATOM     17  C   UNL     1      44.787   4.407   9.842  0.00  0.00    +0.000 A 
BRANCH  12  19
ATOM     18  C   UNL     1      43.859   2.809  12.316  0.00  0.00    +0.000 C 
ATOM     19  O   UNL     1      43.333   2.907  10.996  0.00  0.00    +0.000 OA
ENDBRANCH  12  19
ENDBRANCH   8  17
ENDBRANCH   7  10
ENDBRANCH   1   7
BRANCH   4  20
ATOM     20  CA  UNL     1      50.110   8.339  15.681  0.00  0.00    +0.000 C 
BRANCH  20  21
ATOM     21  N   UNL     1      50.787   7.128  16.130  0.00  0.00    +0.000 N 
ATOM     22  C   UNL     1      51.225   6.960  17.422  0.00  0.00    +0.000 C 
ATOM     23  O   UNL     1      51.064   7.806  18.292  0.00  0.00    +0.000 OA
ATOM     24  H   UNL     1      51.073   6.483  15.406  0.00  0.00    +0.000 HD
BRANCH  22  25
ATOM     25  C   UNL     1      51.849   5.664  17.694  0.00  0.00    +0.000 A 
ATOM     26  C   UNL     1      53.188   5.511  18.023  0.00  0.00    +0.000 A 
ATOM     27  S   UNL     1      53.673   3.877  18.143  0.00  0.00    +0.000 S 
ATOM     28  C   UNL     1      52.109   3.327  17.757  0.00  0.00    +0.000 A 
ATOM     29  N   UNL     1      51.841   1.999  17.650  0.00  0.00    +0.000 NA
ATOM     30  C   UNL     1      50.618   1.730  17.333  0.00  0.00    +0.000 A 
ATOM     31  N   UNL     1      49.636   2.667  17.137  0.00  0.00    +0.000 N 
ATOM     32  C   UNL     1      49.835   4.016  17.333  0.00  0.00    +0.000 A 
ATOM     33  O   UNL     1      48.886   4.793  17.355  0.00  0.00    +0.000 OA
ATOM     34  C   UNL     1      51.220   4.372  17.589  0.00  0.00    +0.000 A 
ATOM     35  H   UNL     1      48.682   2.389  16.963  0.00  0.00    +0.000 HD
ENDBRANCH  22  25
ENDBRANCH  20  21
BRANCH  20  36
ATOM     36  C   UNL     1      51.160   9.241  14.991  0.00  0.00    +0.000 C 
BRANCH  36  37
ATOM     37  O   UNL     1      51.460   8.765  13.673  0.00  0.00    +0.000 OA
ATOM     38  H   UNL     1      51.286   9.503  13.061  0.00  0.00    +0.000 HD
ENDBRANCH  36  37
ENDBRANCH  20  36
ENDBRANCH   4  20
TORSDOF 9
ENDMDL
MODEL 7
REMARK VINA RESULT:    -6.774      2.950      5.129
REMARK INTER + INTRA:         -11.157
REMARK INTER:                 -10.577
REMARK INTRA:                  -0.580
REMARK UNBOUND:                -1.016
REMARK  Name = 
REMARK  10 active torsions:
REMARK  status: ('A' for Active; 'I' for Inactive)
REMARK    1  A    between atoms: C_1  and  O_2
REMARK    2  A    between atoms: O_2  and  C_3
REMARK    3  A    between atoms: C_8  and  C_9
REMARK    4  A    between atoms: N_11  and  C_12
REMARK    5  A    between atoms: C_12  and  C_13
REMARK    6  A    between atoms: C_16  and  CA_17
REMARK    7  A    between atoms: CA_17  and  C_18
REMARK    8  A    between atoms: CA_17  and  N_20
REMARK    9  A    between atoms: C_18  and  O_19
REMARK   10  A    between atoms: C_21  and  C_23
REMARK                            x       y       z     vdW  Elec       q    Type
REMARK                         _______ _______ _______ _____ _____    ______ ____
ROOT
ATOM      1  C   UNL     1      44.934   5.703  11.421  0.00  0.00    +0.000 A 
ATOM      2  C   UNL     1      45.807   4.996  12.256  0.00  0.00    +0.000 A 
ATOM      3  C   UNL     1      46.749   5.671  13.044  0.00  0.00    +0.000 A 
ATOM      4  C   UNL     1      46.845   7.073  13.024  0.00  0.00    +0.000 A 
ATOM      5  C   UNL     1      45.944   7.773  12.203  0.00  0.00    +0.000 A 
ATOM      6  C   UNL     1      45.003   7.100  11.414  0.00  0.00    +0.000 A 
ENDROOT
BRANCH   1   7
ATOM      7  C   UNL     1      43.933   4.979  10.560  0.00  0.00    +0.000 C 
BRANCH   7  10
ATOM      8  C   UNL     1      45.485   4.416   8.747  0.00  0.00    +0.000 C 
ATOM      9  O   UNL     1      45.788   5.598   8.603  0.00  0.00    +0.000 OA
ATOM     10  N   UNL     1      44.551   4.021   9.678  0.00  0.00    +0.000 N 
ATOM     11  H   UNL     1      44.332   3.034   9.765  0.00  0.00    +0.000 HD
BRANCH   8  17
ATOM     12  C   UNL     1      46.168   1.981   8.203  0.00  0.00    +0.000 A 
ATOM     13  C   UNL     1      46.881   1.112   7.358  0.00  0.00    +0.000 A 
ATOM     14  C   UNL     1      47.556   1.591   6.232  0.00  0.00    +0.000 A 
ATOM     15  C   UNL     1      47.529   2.946   5.931  0.00  0.00    +0.000 A 
ATOM     16  C   UNL     1      46.834   3.822   6.763  0.00  0.00    +0.000 A 
ATOM     17  C   UNL     1      46.157   3.361   7.911  0.00  0.00    +0.000 A 
BRANCH  12  19
ATOM     18  C   UNL     1      44.129   1.132   9.126  0.00  0.00    +0.000 C 
ATOM     19  O   UNL     1      45.479   1.548   9.309  0.00  0.00    +0.000 OA
ENDBRANCH  12  19
ENDBRANCH   8  17
ENDBRANCH   7  10
ENDBRANCH   1   7
BRANCH   4  20
ATOM     20  CA  UNL     1      47.843   7.849  13.887  0.00  0.00    +0.000 C 
BRANCH  20  21
ATOM     21  N   UNL     1      48.678   6.970  14.697  0.00  0.00    +0.000 N 
ATOM     22  C   UNL     1      48.960   7.224  16.018  0.00  0.00    +0.000 C 
ATOM     23  O   UNL     1      48.518   8.198  16.614  0.00  0.00    +0.000 OA
ATOM     24  H   UNL     1      49.182   6.249  14.197  0.00  0.00    +0.000 HD
BRANCH  22  25
ATOM     25  C   UNL     1      49.783   6.209  16.676  0.00  0.00    +0.000 A 
ATOM     26  C   UNL     1      51.070   6.446  17.138  0.00  0.00    +0.000 A 
ATOM     27  S   UNL     1      51.845   5.044  17.730  0.00  0.00    +0.000 S 
ATOM     28  C   UNL     1      50.486   4.080  17.384  0.00  0.00    +0.000 A 
ATOM     29  N   UNL     1      50.501   2.741  17.617  0.00  0.00    +0.000 NA
ATOM     30  C   UNL     1      49.408   2.135  17.289  0.00  0.00    +0.000 A 
ATOM     31  N   UNL     1      48.297   2.749  16.772  0.00  0.00    +0.000 N 
ATOM     32  C   UNL     1      48.199   4.114  16.614  0.00  0.00    +0.000 A 
ATOM     33  O   UNL     1      47.122   4.639  16.352  0.00  0.00    +0.000 OA
ATOM     34  C   UNL     1      49.440   4.824  16.873  0.00  0.00    +0.000 A 
ATOM     35  H   UNL     1      47.448   2.230  16.606  0.00  0.00    +0.000 HD
ENDBRANCH  22  25
ENDBRANCH  20  21
BRANCH  20  36
ATOM     36  C   UNL     1      48.780   8.753  13.051  0.00  0.00    +0.000 C 
BRANCH  36  37
ATOM     37  O   UNL     1      49.260   8.063  11.891  0.00  0.00    +0.000 OA
ATOM     38  H   UNL     1      49.997   7.497  12.185  0.00  0.00    +0.000 HD
ENDBRANCH  36  37
ENDBRANCH  20  36
ENDBRANCH   4  20
TORSDOF 9
ENDMDL
MODEL 8
REMARK VINA RESULT:    -6.665      2.067      3.180
REMARK INTER + INTRA:         -10.993
REMARK INTER:                  -9.569
REMARK INTRA:                  -1.424
REMARK UNBOUND:                -1.016
REMARK  Name = 
REMARK  10 active torsions:
REMARK  status: ('A' for Active; 'I' for Inactive)
REMARK    1  A    between atoms: C_1  and  O_2
REMARK    2  A    between atoms: O_2  and  C_3
REMARK    3  A    between atoms: C_8  and  C_9
REMARK    4  A    between atoms: N_11  and  C_12
REMARK    5  A    between atoms: C_12  and  C_13
REMARK    6  A    between atoms: C_16  and  CA_17
REMARK    7  A    between atoms: CA_17  and  C_18
REMARK    8  A    between atoms: CA_17  and  N_20
REMARK    9  A    between atoms: C_18  and  O_19
REMARK   10  A    between atoms: C_21  and  C_23
REMARK                            x       y       z     vdW  Elec       q    Type
REMARK                         _______ _______ _______ _____ _____    ______ ____
ROOT
ATOM      1  C   UNL     1      47.945   7.789  13.387  0.00  0.00    +0.000 A 
ATOM      2  C   UNL     1      48.247   6.546  13.953  0.00  0.00    +0.000 A 
ATOM      3  C   UNL     1      48.656   6.448  15.290  0.00  0.00    +0.000 A 
ATOM      4  C   UNL     1      48.776   7.589  16.101  0.00  0.00    +0.000 A 
ATOM      5  C   UNL     1      48.444   8.830  15.528  0.00  0.00    +0.000 A 
ATOM      6  C   UNL     1      48.035   8.929  14.193  0.00  0.00    +0.000 A 
ENDROOT
BRANCH   1   7
ATOM      7  C   UNL     1      47.521   7.899  11.946  0.00  0.00    +0.000 C 
BRANCH   7  10
ATOM      8  C   UNL     1      45.706   6.449  11.159  0.00  0.00    +0.000 C 
ATOM      9  O   UNL     1      44.869   7.308  11.422  0.00  0.00    +0.000 OA
ATOM     10  N   UNL     1      47.045   6.647  11.412  0.00  0.00    +0.000 N 
ATOM     11  H   UNL     1      47.704   5.911  11.178  0.00  0.00    +0.000 HD
BRANCH   8  17
ATOM     12  C   UNL     1      44.674   4.077  11.206  0.00  0.00    +0.000 A 
ATOM     13  C   UNL     1      44.375   2.902  10.494  0.00  0.00    +0.000 A 
ATOM     14  C   UNL     1      44.649   2.795   9.127  0.00  0.00    +0.000 A 
ATOM     15  C   UNL     1      45.227   3.861   8.450  0.00  0.00    +0.000 A 
ATOM     16  C   UNL     1      45.538   5.029   9.144  0.00  0.00    +0.000 A 
ATOM     17  C   UNL     1      45.280   5.153  10.525  0.00  0.00    +0.000 A 
BRANCH  12  19
ATOM     18  C   UNL     1      43.082   4.597  12.916  0.00  0.00    +0.000 C 
ATOM     19  O   UNL     1      44.407   4.227  12.545  0.00  0.00    +0.000 OA
ENDBRANCH  12  19
ENDBRANCH   8  17
ENDBRANCH   7  10
ENDBRANCH   1   7
BRANCH   4  20
ATOM     20  CA  UNL     1      49.197   7.523  17.571  0.00  0.00    +0.000 C 
BRANCH  20  21
ATOM     21  N   UNL     1      50.242   6.532  17.805  0.00  0.00    +0.000 N 
ATOM     22  C   UNL     1      50.281   5.748  18.933  0.00  0.00    +0.000 C 
ATOM     23  O   UNL     1      49.433   5.812  19.814  0.00  0.00    +0.000 OA
ATOM     24  H   UNL     1      51.035   6.565  17.178  0.00  0.00    +0.000 HD
BRANCH  22  25
ATOM     25  C   UNL     1      51.383   4.786  18.973  0.00  0.00    +0.000 A 
ATOM     26  C   UNL     1      52.605   5.044  19.576  0.00  0.00    +0.000 A 
ATOM     27  S   UNL     1      53.751   3.799  19.344  0.00  0.00    +0.000 S 
ATOM     28  C   UNL     1      52.648   2.880  18.429  0.00  0.00    +0.000 A 
ATOM     29  N   UNL     1      53.014   1.691  17.881  0.00  0.00    +0.000 NA
ATOM     30  C   UNL     1      52.081   1.114  17.198  0.00  0.00    +0.000 A 
ATOM     31  N   UNL     1      50.812   1.607  17.033  0.00  0.00    +0.000 N 
ATOM     32  C   UNL     1      50.367   2.755  17.651  0.00  0.00    +0.000 A 
ATOM     33  O   UNL     1      49.175   3.045  17.651  0.00  0.00    +0.000 OA
ATOM     34  C   UNL     1      51.411   3.489  18.345  0.00  0.00    +0.000 A 
ATOM     35  H   UNL     1      50.107   1.072  16.549  0.00  0.00    +0.000 HD
ENDBRANCH  22  25
ENDBRANCH  20  21
BRANCH  20  36
ATOM     36  C   UNL     1      49.704   8.882  18.110  0.00  0.00    +0.000 C 
BRANCH  36  37
ATOM     37  O   UNL     1      49.405   9.026  19.504  0.00  0.00    +0.000 OA
ATOM     38  H   UNL     1      48.473   9.303  19.565  0.00  0.00    +0.000 HD
ENDBRANCH  36  37
ENDBRANCH  20  36
ENDBRANCH   4  20
TORSDOF 9
ENDMDL
MODEL 9
REMARK VINA RESULT:    -6.652      3.262      9.723
REMARK INTER + INTRA:         -10.973
REMARK INTER:                  -9.339
REMARK INTRA:                  -1.634
REMARK UNBOUND:                -1.016
REMARK  Name = 
REMARK  10 active torsions:
REMARK  status: ('A' for Active; 'I' for Inactive)
REMARK    1  A    between atoms: C_1  and  O_2
REMARK    2  A    between atoms: O_2  and  C_3
REMARK    3  A    between atoms: C_8  and  C_9
REMARK    4  A    between atoms: N_11  and  C_12
REMARK    5  A    between atoms: C_12  and  C_13
REMARK    6  A    between atoms: C_16  and  CA_17
REMARK    7  A    between atoms: CA_17  and  C_18
REMARK    8  A    between atoms: CA_17  and  N_20
REMARK    9  A    between atoms: C_18  and  O_19
REMARK   10  A    between atoms: C_21  and  C_23
REMARK                            x       y       z     vdW  Elec       q    Type
REMARK                         _______ _______ _______ _____ _____    ______ ____
ROOT
ATOM      1  C   UNL     1      49.729   5.033  17.753  0.00  0.00    +0.000 A 
ATOM      2  C   UNL     1      48.526   4.762  17.092  0.00  0.00    +0.000 A 
ATOM      3  C   UNL     1      48.107   5.552  16.013  0.00  0.00    +0.000 A 
ATOM      4  C   UNL     1      48.880   6.636  15.562  0.00  0.00    +0.000 A 
ATOM      5  C   UNL     1      50.099   6.882  16.216  0.00  0.00    +0.000 A 
ATOM      6  C   UNL     1      50.519   6.093  17.295  0.00  0.00    +0.000 A 
ENDROOT
BRANCH   1   7
ATOM      7  C   UNL     1      50.173   4.195  18.924  0.00  0.00    +0.000 C 
BRANCH   7  10
ATOM      8  C   UNL     1      51.650   2.523  17.904  0.00  0.00    +0.000 C 
ATOM      9  O   UNL     1      50.697   1.980  17.351  0.00  0.00    +0.000 OA
ATOM     10  N   UNL     1      51.478   3.614  18.726  0.00  0.00    +0.000 N 
ATOM     11  H   UNL     1      52.292   4.034  19.162  0.00  0.00    +0.000 HD
BRANCH   8  17
ATOM     12  C   UNL     1      54.190   2.823  17.518  0.00  0.00    +0.000 A 
ATOM     13  C   UNL     1      55.428   2.210  17.255  0.00  0.00    +0.000 A 
ATOM     14  C   UNL     1      55.541   0.819  17.164  0.00  0.00    +0.000 A 
ATOM     15  C   UNL     1      54.420   0.019  17.335  0.00  0.00    +0.000 A 
ATOM     16  C   UNL     1      53.184   0.611  17.588  0.00  0.00    +0.000 A 
ATOM     17  C   UNL     1      53.045   2.013  17.672  0.00  0.00    +0.000 A 
BRANCH  12  19
ATOM     18  C   UNL     1      55.218   4.969  17.779  0.00  0.00    +0.000 C 
ATOM     19  O   UNL     1      54.039   4.183  17.631  0.00  0.00    +0.000 OA
ENDBRANCH  12  19
ENDBRANCH   8  17
ENDBRANCH   7  10
ENDBRANCH   1   7
BRANCH   4  20
ATOM     20  CA  UNL     1      48.470   7.510  14.373  0.00  0.00    +0.000 C 
BRANCH  20  21
ATOM     21  N   UNL     1      47.219   7.069  13.765  0.00  0.00    +0.000 N 
ATOM     22  C   UNL     1      47.032   7.022  12.405  0.00  0.00    +0.000 C 
ATOM     23  O   UNL     1      47.905   7.332  11.605  0.00  0.00    +0.000 OA
ATOM     24  H   UNL     1      46.434   6.959  14.393  0.00  0.00    +0.000 HD
BRANCH  22  25
ATOM     25  C   UNL     1      45.724   6.518  11.983  0.00  0.00    +0.000 A 
ATOM     26  C   UNL     1      44.745   7.313  11.407  0.00  0.00    +0.000 A 
ATOM     27  S   UNL     1      43.270   6.491  11.149  0.00  0.00    +0.000 S 
ATOM     28  C   UNL     1      43.896   5.049  11.803  0.00  0.00    +0.000 A 
ATOM     29  N   UNL     1      43.121   3.939  11.919  0.00  0.00    +0.000 NA
ATOM     30  C   UNL     1      43.724   2.926  12.449  0.00  0.00    +0.000 A 
ATOM     31  N   UNL     1      45.034   2.918  12.852  0.00  0.00    +0.000 N 
ATOM     32  C   UNL     1      45.885   3.985  12.663  0.00  0.00    +0.000 A 
ATOM     33  O   UNL     1      47.092   3.863  12.841  0.00  0.00    +0.000 OA
ATOM     34  C   UNL     1      45.224   5.179  12.164  0.00  0.00    +0.000 A 
ATOM     35  H   UNL     1      45.466   2.072  13.191  0.00  0.00    +0.000 HD
ENDBRANCH  22  25
ENDBRANCH  20  21
BRANCH  20  36
ATOM     36  C   UNL     1      48.313   9.001  14.752  0.00  0.00    +0.000 C 
BRANCH  36  37
ATOM     37  O   UNL     1      47.344   9.166  15.795  0.00  0.00    +0.000 OA
ATOM     38  H   UNL     1      47.342   8.339  16.311  0.00  0.00    +0.000 HD
ENDBRANCH  36  37
ENDBRANCH  20  36
ENDBRANCH   4  20
TORSDOF 9
ENDMDL
