MODEL 1
REMARK VINA RESULT:    -6.929      0.000      0.000
REMARK INTER + INTRA:         -11.293
REMARK INTER:                  -9.764
REMARK INTRA:                  -1.528
REMARK UNBOUND:                -1.528
REMARK  Name = 
REMARK  8 active torsions:
REMARK  status: ('A' for Active; 'I' for Inactive)
REMARK    1  A    between atoms: C_1  and  O_2
REMARK    2  A    between atoms: O_2  and  C_3
REMARK    3  A    between atoms: C_10  and  C_11
REMARK    4  A    between atoms: N_13  and  C_14
REMARK    5  A    between atoms: C_14  and  C_15
REMARK    6  A    between atoms: C_18  and  N_19
REMARK    7  A    between atoms: N_19  and  C_20
REMARK    8  A    between atoms: C_20  and  C_21
REMARK                            x       y       z     vdW  Elec       q    Type
REMARK                         _______ _______ _______ _____ _____    ______ ____
ROOT
ATOM      1  C   UNL     1      48.199   8.967  14.581  0.00  0.00    +0.000 C 
ENDROOT
BRANCH   1   2
ATOM      2  C   UNL     1      47.346   8.393  13.482  0.00  0.00    +0.000 A 
ATOM      3  C   UNL     1      47.875   7.422  12.628  0.00  0.00    +0.000 A 
ATOM      4  C   UNL     1      47.090   6.852  11.621  0.00  0.00    +0.000 A 
ATOM      5  C   UNL     1      45.766   7.247  11.410  0.00  0.00    +0.000 A 
ATOM      6  C   UNL     1      45.255   8.249  12.249  0.00  0.00    +0.000 A 
ATOM      7  C   UNL     1      46.032   8.821  13.268  0.00  0.00    +0.000 A 
BRANCH   5   8
ATOM      8  N   UNL     1      44.890   6.614  10.523  0.00  0.00    +0.000 N 
ATOM      9  H   UNL     1      44.766   7.156   9.670  0.00  0.00    +0.000 HD
BRANCH   8  10
ATOM     10  C   UNL     1      44.944   5.172  10.312  0.00  0.00    +0.000 C 
BRANCH  10  11
ATOM     11  C   UNL     1      43.564   4.517  10.521  0.00  0.00    +0.000 C 
ATOM     12  C   UNL     1      42.771   5.298  11.586  0.00  0.00    +0.000 C 
ATOM     13  C   UNL     1      43.318   5.060  12.996  0.00  0.00    +0.000 C 
ATOM     14  N   UNL     1      43.373   3.637  13.333  0.00  0.00    +0.000 NA
ATOM     15  C   UNL     1      44.156   2.873  12.359  0.00  0.00    +0.000 C 
ATOM     16  C   UNL     1      43.615   3.041  10.942  0.00  0.00    +0.000 C 
ATOM     17  H   UNL     1      42.422   3.268  13.351  0.00  0.00    +0.000 HD
ENDBRANCH  10  11
ENDBRANCH   8  10
ENDBRANCH   5   8
ENDBRANCH   1   2
BRANCH   1  20
ATOM     18  C   UNL     1      49.483   7.260  15.819  0.00  0.00    +0.000 C 
ATOM     19  O   UNL     1      50.469   7.415  15.101  0.00  0.00    +0.000 OA
ATOM     20  N   UNL     1      48.358   8.019  15.656  0.00  0.00    +0.000 N 
ATOM     21  H   UNL     1      47.532   7.816  16.198  0.00  0.00    +0.000 HD
BRANCH  18  29
ATOM     22  C   UNL     1      47.585   4.437  16.352  0.00  0.00    +0.000 A 
ATOM     23  N   UNL     1      47.056   3.265  16.756  0.00  0.00    +0.000 NA
ATOM     24  C   UNL     1      47.550   2.703  17.863  0.00  0.00    +0.000 A 
ATOM     25  N   UNL     1      48.517   3.182  18.642  0.00  0.00    +0.000 NA
ATOM     26  C   UNL     1      49.024   4.344  18.196  0.00  0.00    +0.000 A 
ATOM     27  S   UNL     1      50.264   5.106  19.070  0.00  0.00    +0.000 S 
ATOM     28  C   UNL     1      50.353   6.369  17.939  0.00  0.00    +0.000 A 
ATOM     29  C   UNL     1      49.460   6.241  16.880  0.00  0.00    +0.000 A 
ATOM     30  C   UNL     1      48.644   5.041  17.054  0.00  0.00    +0.000 A 
BRANCH  22  32
ATOM     31  C   UNL     1      47.051   4.075  14.105  0.00  0.00    +0.000 C 
ATOM     32  O   UNL     1      47.097   4.999  15.192  0.00  0.00    +0.000 OA
ENDBRANCH  22  32
ENDBRANCH  18  29
ENDBRANCH   1  20
TORSDOF 7
ENDMDL
MODEL 2
REMARK VINA RESULT:    -6.689      2.639      3.528
REMARK INTER + INTRA:         -10.955
REMARK INTER:                  -9.807
REMARK INTRA:                  -1.147
REMARK UNBOUND:                -1.528
REMARK  Name = 
REMARK  8 active torsions:
REMARK  status: ('A' for Active; 'I' for Inactive)
REMARK    1  A    between atoms: C_1  and  O_2
REMARK    2  A    between atoms: O_2  and  C_3
REMARK    3  A    between atoms: C_10  and  C_11
REMARK    4  A    between atoms: N_13  and  C_14
REMARK    5  A    between atoms: C_14  and  C_15
REMARK    6  A    between atoms: C_18  and  N_19
REMARK    7  A    between atoms: N_19  and  C_20
REMARK    8  A    between atoms: C_20  and  C_21
REMARK                            x       y       z     vdW  Elec       q    Type
REMARK                         _______ _______ _______ _____ _____    ______ ____
ROOT
ATOM      1  C   UNL     1      48.757   6.929  15.435  0.00  0.00    +0.000 C 
ENDROOT
BRANCH   1   2
ATOM      2  C   UNL     1      47.849   6.261  14.437  0.00  0.00    +0.000 A 
ATOM      3  C   UNL     1      47.273   5.025  14.741  0.00  0.00    +0.000 A 
ATOM      4  C   UNL     1      46.401   4.402  13.842  0.00  0.00    +0.000 A 
ATOM      5  C   UNL     1      46.095   4.971  12.603  0.00  0.00    +0.000 A 
ATOM      6  C   UNL     1      46.707   6.195  12.291  0.00  0.00    +0.000 A 
ATOM      7  C   UNL     1      47.577   6.832  13.190  0.00  0.00    +0.000 A 
BRANCH   5   8
ATOM      8  N   UNL     1      45.122   4.474  11.730  0.00  0.00    +0.000 N 
ATOM      9  H   UNL     1      44.701   5.218  11.178  0.00  0.00    +0.000 HD
BRANCH   8  10
ATOM     10  C   UNL     1      45.334   3.232  10.996  0.00  0.00    +0.000 C 
BRANCH  10  11
ATOM     11  C   UNL     1      44.460   3.168   9.726  0.00  0.00    +0.000 C 
ATOM     12  C   UNL     1      44.612   1.789   9.057  0.00  0.00    +0.000 C 
ATOM     13  C   UNL     1      45.971   1.633   8.369  0.00  0.00    +0.000 C 
ATOM     14  N   UNL     1      46.229   2.707   7.408  0.00  0.00    +0.000 NA
ATOM     15  C   UNL     1      46.132   4.031   8.026  0.00  0.00    +0.000 C 
ATOM     16  C   UNL     1      44.772   4.250   8.683  0.00  0.00    +0.000 C 
ATOM     17  H   UNL     1      45.542   2.645   6.656  0.00  0.00    +0.000 HD
ENDBRANCH  10  11
ENDBRANCH   8  10
ENDBRANCH   5   8
ENDBRANCH   1   2
BRANCH   1  20
ATOM     18  C   UNL     1      49.944   5.945  17.362  0.00  0.00    +0.000 C 
ATOM     19  O   UNL     1      49.362   6.682  18.156  0.00  0.00    +0.000 OA
ATOM     20  N   UNL     1      49.661   5.975  16.025  0.00  0.00    +0.000 N 
ATOM     21  H   UNL     1      50.211   5.424  15.383  0.00  0.00    +0.000 HD
BRANCH  18  29
ATOM     22  C   UNL     1      50.310   2.529  17.120  0.00  0.00    +0.000 A 
ATOM     23  N   UNL     1      50.736   1.251  17.098  0.00  0.00    +0.000 NA
ATOM     24  C   UNL     1      51.928   0.978  17.635  0.00  0.00    +0.000 A 
ATOM     25  N   UNL     1      52.760   1.837  18.219  0.00  0.00    +0.000 NA
ATOM     26  C   UNL     1      52.303   3.101  18.208  0.00  0.00    +0.000 A 
ATOM     27  S   UNL     1      53.232   4.333  18.915  0.00  0.00    +0.000 S 
ATOM     28  C   UNL     1      52.081   5.509  18.496  0.00  0.00    +0.000 A 
ATOM     29  C   UNL     1      50.982   5.003  17.811  0.00  0.00    +0.000 A 
ATOM     30  C   UNL     1      51.104   3.554  17.667  0.00  0.00    +0.000 A 
BRANCH  22  32
ATOM     31  C   UNL     1      48.015   2.802  17.470  0.00  0.00    +0.000 C 
ATOM     32  O   UNL     1      49.094   2.814  16.537  0.00  0.00    +0.000 OA
ENDBRANCH  22  32
ENDBRANCH  18  29
ENDBRANCH   1  20
TORSDOF 7
ENDMDL
MODEL 3
REMARK VINA RESULT:    -6.526      2.230      2.673
REMARK INTER + INTRA:         -10.724
REMARK INTER:                  -9.667
REMARK INTRA:                  -1.057
REMARK UNBOUND:                -1.528
REMARK  Name = 
REMARK  8 active torsions:
REMARK  status: ('A' for Active; 'I' for Inactive)
REMARK    1  A    between atoms: C_1  and  O_2
REMARK    2  A    between atoms: O_2  and  C_3
REMARK    3  A    between atoms: C_10  and  C_11
REMARK    4  A    between atoms: N_13  and  C_14
REMARK    5  A    between atoms: C_14  and  C_15
REMARK    6  A    between atoms: C_18  and  N_19
REMARK    7  A    between atoms: N_19  and  C_20
REMARK    8  A    between atoms: C_20  and  C_21
REMARK                            x       y       z     vdW  Elec       q    Type
REMARK                         _______ _______ _______ _____ _____    ______ ____
ROOT
ATOM      1  C   UNL     1      49.872   7.785  15.319  0.00  0.00    +0.000 C 
ENDROOT
BRANCH   1   2
ATOM      2  C   UNL     1      48.977   7.320  14.201  0.00  0.00    +0.000 A 
ATOM      3  C   UNL     1      48.096   6.257  14.414  0.00  0.00    +0.000 A 
ATOM      4  C   UNL     1      47.233   5.830  13.399  0.00  0.00    +0.000 A 
ATOM      5  C   UNL     1      47.237   6.425  12.134  0.00  0.00    +0.000 A 
ATOM      6  C   UNL     1      48.150   7.467  11.919  0.00  0.00    +0.000 A 
ATOM      7  C   UNL     1      49.015   7.908  12.933  0.00  0.00    +0.000 A 
BRANCH   5   8
ATOM      8  N   UNL     1      46.302   6.144  11.133  0.00  0.00    +0.000 N 
ATOM      9  H   UNL     1      46.488   5.247  10.690  0.00  0.00    +0.000 HD
BRANCH   8  10
ATOM     10  C   UNL     1      44.885   6.435  11.323  0.00  0.00    +0.000 C 
BRANCH  10  11
ATOM     11  C   UNL     1      43.997   5.283  10.810  0.00  0.00    +0.000 C 
ATOM     12  C   UNL     1      42.720   5.188  11.665  0.00  0.00    +0.000 C 
ATOM     13  C   UNL     1      43.002   4.614  13.056  0.00  0.00    +0.000 C 
ATOM     14  N   UNL     1      43.679   3.318  12.990  0.00  0.00    +0.000 NA
ATOM     15  C   UNL     1      44.920   3.386  12.217  0.00  0.00    +0.000 C 
ATOM     16  C   UNL     1      44.678   3.907  10.803  0.00  0.00    +0.000 C 
ATOM     17  H   UNL     1      43.053   2.644  12.547  0.00  0.00    +0.000 HD
ENDBRANCH  10  11
ENDBRANCH   8  10
ENDBRANCH   5   8
ENDBRANCH   1   2
BRANCH   1  20
ATOM     18  C   UNL     1      50.431   6.164  17.094  0.00  0.00    +0.000 C 
ATOM     19  O   UNL     1      49.500   6.546  17.800  0.00  0.00    +0.000 OA
ATOM     20  N   UNL     1      50.642   6.688  15.850  0.00  0.00    +0.000 N 
ATOM     21  H   UNL     1      51.462   6.423  15.326  0.00  0.00    +0.000 HD
BRANCH  18  29
ATOM     22  C   UNL     1      50.365   2.722  17.097  0.00  0.00    +0.000 A 
ATOM     23  N   UNL     1      50.631   1.402  17.151  0.00  0.00    +0.000 NA
ATOM     24  C   UNL     1      51.811   1.019  17.647  0.00  0.00    +0.000 A 
ATOM     25  N   UNL     1      52.775   1.806  18.120  0.00  0.00    +0.000 NA
ATOM     26  C   UNL     1      52.474   3.113  18.036  0.00  0.00    +0.000 A 
ATOM     27  S   UNL     1      53.586   4.266  18.598  0.00  0.00    +0.000 S 
ATOM     28  C   UNL     1      52.564   5.545  18.149  0.00  0.00    +0.000 A 
ATOM     29  C   UNL     1      51.373   5.134  17.561  0.00  0.00    +0.000 A 
ATOM     30  C   UNL     1      51.309   3.675  17.523  0.00  0.00    +0.000 A 
BRANCH  22  32
ATOM     31  C   UNL     1      48.099   3.115  17.509  0.00  0.00    +0.000 C 
ATOM     32  O   UNL     1      49.160   3.116  16.556  0.00  0.00    +0.000 OA
ENDBRANCH  22  32
ENDBRANCH  18  29
ENDBRANCH   1  20
TORSDOF 7
ENDMDL
MODEL 4
REMARK VINA RESULT:    -6.444      2.232      3.039
REMARK INTER + INTRA:         -10.610
REMARK INTER:                  -9.469
REMARK INTRA:                  -1.141
REMARK UNBOUND:                -1.528
REMARK  Name = 
REMARK  8 active torsions:
REMARK  status: ('A' for Active; 'I' for Inactive)
REMARK    1  A    between atoms: C_1  and  O_2
REMARK    2  A    between atoms: O_2  and  C_3
REMARK    3  A    between atoms: C_10  and  C_11
REMARK    4  A    between atoms: N_13  and  C_14
REMARK    5  A    between atoms: C_14  and  C_15
REMARK    6  A    between atoms: C_18  and  N_19
REMARK    7  A    between atoms: N_19  and  C_20
REMARK    8  A    between atoms: C_20  and  C_21
REMARK                            x       y       z     vdW  Elec       q    Type
REMARK                         _______ _______ _______ _____ _____    ______ ____
ROOT
ATOM      1  C   UNL     1      47.350   8.842  13.542  0.00  0.00    +0.000 C 
ENDROOT
BRANCH   1   2
ATOM      2  C   UNL     1      46.601   7.662  12.982  0.00  0.00    +0.000 A 
ATOM      3  C   UNL     1      47.155   6.382  13.072  0.00  0.00    +0.000 A 
ATOM      4  C   UNL     1      46.462   5.268  12.587  0.00  0.00    +0.000 A 
ATOM      5  C   UNL     1      45.213   5.391  11.973  0.00  0.00    +0.000 A 
ATOM      6  C   UNL     1      44.682   6.684  11.855  0.00  0.00    +0.000 A 
ATOM      7  C   UNL     1      45.365   7.808  12.345  0.00  0.00    +0.000 A 
BRANCH   5   8
ATOM      8  N   UNL     1      44.410   4.308  11.605  0.00  0.00    +0.000 N 
ATOM      9  H   UNL     1      43.495   4.614  11.280  0.00  0.00    +0.000 HD
BRANCH   8  10
ATOM     10  C   UNL     1      44.961   3.181  10.861  0.00  0.00    +0.000 C 
BRANCH  10  11
ATOM     11  C   UNL     1      44.269   3.013   9.492  0.00  0.00    +0.000 C 
ATOM     12  C   UNL     1      44.665   1.660   8.870  0.00  0.00    +0.000 C 
ATOM     13  C   UNL     1      46.109   1.664   8.362  0.00  0.00    +0.000 C 
ATOM     14  N   UNL     1      46.360   2.759   7.423  0.00  0.00    +0.000 NA
ATOM     15  C   UNL     1      46.032   4.063   8.002  0.00  0.00    +0.000 C 
ATOM     16  C   UNL     1      44.583   4.122   8.479  0.00  0.00    +0.000 C 
ATOM     17  H   UNL     1      45.787   2.615   6.592  0.00  0.00    +0.000 HD
ENDBRANCH  10  11
ENDBRANCH   8  10
ENDBRANCH   5   8
ENDBRANCH   1   2
BRANCH   1  20
ATOM     18  C   UNL     1      48.658   8.323  15.570  0.00  0.00    +0.000 C 
ATOM     19  O   UNL     1      49.680   8.125  14.916  0.00  0.00    +0.000 OA
ATOM     20  N   UNL     1      47.497   8.725  14.971  0.00  0.00    +0.000 N 
ATOM     21  H   UNL     1      46.650   8.796  15.515  0.00  0.00    +0.000 HD
BRANCH  18  29
ATOM     22  C   UNL     1      48.617   5.524  17.576  0.00  0.00    +0.000 A 
ATOM     23  N   UNL     1      48.676   4.622  18.574  0.00  0.00    +0.000 NA
ATOM     24  C   UNL     1      48.726   5.077  19.829  0.00  0.00    +0.000 A 
ATOM     25  N   UNL     1      48.709   6.349  20.222  0.00  0.00    +0.000 NA
ATOM     26  C   UNL     1      48.661   7.215  19.195  0.00  0.00    +0.000 A 
ATOM     27  S   UNL     1      48.627   8.883  19.508  0.00  0.00    +0.000 S 
ATOM     28  C   UNL     1      48.605   9.244  17.849  0.00  0.00    +0.000 A 
ATOM     29  C   UNL     1      48.631   8.122  17.028  0.00  0.00    +0.000 A 
ATOM     30  C   UNL     1      48.634   6.906  17.838  0.00  0.00    +0.000 A 
BRANCH  22  32
ATOM     31  C   UNL     1      47.523   4.147  16.037  0.00  0.00    +0.000 C 
ATOM     32  O   UNL     1      48.597   5.053  16.280  0.00  0.00    +0.000 OA
ENDBRANCH  22  32
ENDBRANCH  18  29
ENDBRANCH   1  20
TORSDOF 7
ENDMDL
MODEL 5
REMARK VINA RESULT:    -6.362      2.719      4.355
REMARK INTER + INTRA:         -10.494
REMARK INTER:                  -9.323
REMARK INTRA:                  -1.171
REMARK UNBOUND:                -1.528
REMARK  Name = 
REMARK  8 active torsions:
REMARK  status: ('A' for Active; 'I' for Inactive)
REMARK    1  A    between atoms: C_1  and  O_2
REMARK    2  A    between atoms: O_2  and  C_3
REMARK    3  A    between atoms: C_10  and  C_11
REMARK    4  A    between atoms: N_13  and  C_14
REMARK    5  A    between atoms: C_14  and  C_15
REMARK    6  A    between atoms: C_18  and  N_19
REMARK    7  A    between atoms: N_19  and  C_20
REMARK    8  A    between atoms: C_20  and  C_21
REMARK                            x       y       z     vdW  Elec       q    Type
REMARK                         _______ _______ _______ _____ _____    ______ ____
ROOT
ATOM      1  C   UNL     1      45.591   4.294  14.693  0.00  0.00    +0.000 C 
ENDROOT
BRANCH   1   2
ATOM      2  C   UNL     1      45.491   4.570  13.217  0.00  0.00    +0.000 A 
ATOM      3  C   UNL     1      46.110   5.701  12.679  0.00  0.00    +0.000 A 
ATOM      4  C   UNL     1      46.058   5.960  11.305  0.00  0.00    +0.000 A 
ATOM      5  C   UNL     1      45.366   5.121  10.427  0.00  0.00    +0.000 A 
ATOM      6  C   UNL     1      44.717   4.008  10.981  0.00  0.00    +0.000 A 
ATOM      7  C   UNL     1      44.770   3.735  12.357  0.00  0.00    +0.000 A 
BRANCH   5   8
ATOM      8  N   UNL     1      45.402   5.244   9.034  0.00  0.00    +0.000 N 
ATOM      9  H   UNL     1      45.216   6.200   8.739  0.00  0.00    +0.000 HD
BRANCH   8  10
ATOM     10  C   UNL     1      46.421   4.562   8.244  0.00  0.00    +0.000 C 
BRANCH  10  11
ATOM     11  C   UNL     1      45.790   3.647   7.175  0.00  0.00    +0.000 C 
ATOM     12  C   UNL     1      45.022   2.499   7.858  0.00  0.00    +0.000 C 
ATOM     13  C   UNL     1      45.967   1.462   8.471  0.00  0.00    +0.000 C 
ATOM     14  N   UNL     1      46.920   0.937   7.492  0.00  0.00    +0.000 NA
ATOM     15  C   UNL     1      47.695   2.004   6.856  0.00  0.00    +0.000 C 
ATOM     16  C   UNL     1      46.793   3.037   6.186  0.00  0.00    +0.000 C 
ATOM     17  H   UNL     1      46.404   0.432   6.772  0.00  0.00    +0.000 HD
ENDBRANCH  10  11
ENDBRANCH   8  10
ENDBRANCH   5   8
ENDBRANCH   1   2
BRANCH   1  20
ATOM     18  C   UNL     1      47.355   4.066  16.403  0.00  0.00    +0.000 C 
ATOM     19  O   UNL     1      46.589   3.504  17.185  0.00  0.00    +0.000 OA
ATOM     20  N   UNL     1      46.950   4.433  15.151  0.00  0.00    +0.000 N 
ATOM     21  H   UNL     1      47.567   4.969  14.560  0.00  0.00    +0.000 HD
BRANCH  18  29
ATOM     22  C   UNL     1      49.414   6.764  15.822  0.00  0.00    +0.000 A 
ATOM     23  N   UNL     1      50.382   7.701  15.813  0.00  0.00    +0.000 NA
ATOM     24  C   UNL     1      51.512   7.441  16.476  0.00  0.00    +0.000 A 
ATOM     25  N   UNL     1      51.810   6.332  17.149  0.00  0.00    +0.000 NA
ATOM     26  C   UNL     1      50.813   5.430  17.142  0.00  0.00    +0.000 A 
ATOM     27  S   UNL     1      51.019   3.950  17.948  0.00  0.00    +0.000 S 
ATOM     28  C   UNL     1      49.452   3.448  17.528  0.00  0.00    +0.000 A 
ATOM     29  C   UNL     1      48.741   4.382  16.784  0.00  0.00    +0.000 A 
ATOM     30  C   UNL     1      49.571   5.558  16.528  0.00  0.00    +0.000 A 
BRANCH  22  32
ATOM     31  C   UNL     1      48.359   8.138  14.253  0.00  0.00    +0.000 C 
ATOM     32  O   UNL     1      48.236   7.047  15.164  0.00  0.00    +0.000 OA
ENDBRANCH  22  32
ENDBRANCH  18  29
ENDBRANCH   1  20
TORSDOF 7
ENDMDL
MODEL 6
REMARK VINA RESULT:    -6.355      3.000      4.410
REMARK INTER + INTRA:         -10.484
REMARK INTER:                  -9.538
REMARK INTRA:                  -0.947
REMARK UNBOUND:                -1.528
REMARK  Name = 
REMARK  8 active torsions:
REMARK  status: ('A' for Active; 'I' for Inactive)
REMARK    1  A    between atoms: C_1  and  O_2
REMARK    2  A    between atoms: O_2  and  C_3
REMARK    3  A    between atoms: C_10  and  C_11
REMARK    4  A    between atoms: N_13  and  C_14
REMARK    5  A    between atoms: C_14  and  C_15
REMARK    6  A    between atoms: C_18  and  N_19
REMARK    7  A    between atoms: N_19  and  C_20
REMARK    8  A    between atoms: C_20  and  C_21
REMARK                            x       y       z     vdW  Elec       q    Type
REMARK                         _______ _______ _______ _____ _____    ______ ____
ROOT
ATOM      1  C   UNL     1      46.601   4.601  14.836  0.00  0.00    +0.000 C 
ENDROOT
BRANCH   1   2
ATOM      2  C   UNL     1      46.156   4.762  13.407  0.00  0.00    +0.000 A 
ATOM      3  C   UNL     1      46.615   5.845  12.654  0.00  0.00    +0.000 A 
ATOM      4  C   UNL     1      46.240   5.996  11.316  0.00  0.00    +0.000 A 
ATOM      5  C   UNL     1      45.375   5.094  10.690  0.00  0.00    +0.000 A 
ATOM      6  C   UNL     1      44.890   4.029  11.464  0.00  0.00    +0.000 A 
ATOM      7  C   UNL     1      45.267   3.864  12.806  0.00  0.00    +0.000 A 
BRANCH   5   8
ATOM      8  N   UNL     1      45.083   5.107   9.322  0.00  0.00    +0.000 N 
ATOM      9  H   UNL     1      44.565   5.943   9.059  0.00  0.00    +0.000 HD
BRANCH   8  10
ATOM     10  C   UNL     1      46.071   4.682   8.337  0.00  0.00    +0.000 C 
BRANCH  10  11
ATOM     11  C   UNL     1      45.471   3.681   7.329  0.00  0.00    +0.000 C 
ATOM     12  C   UNL     1      44.665   2.604   8.080  0.00  0.00    +0.000 C 
ATOM     13  C   UNL     1      45.573   1.618   8.819  0.00  0.00    +0.000 C 
ATOM     14  N   UNL     1      46.557   1.001   7.928  0.00  0.00    +0.000 NA
ATOM     15  C   UNL     1      47.368   2.000   7.231  0.00  0.00    +0.000 C 
ATOM     16  C   UNL     1      46.504   2.978   6.437  0.00  0.00    +0.000 C 
ATOM     17  H   UNL     1      46.062   0.438   7.235  0.00  0.00    +0.000 HD
ENDBRANCH  10  11
ENDBRANCH   8  10
ENDBRANCH   5   8
ENDBRANCH   1   2
BRANCH   1  20
ATOM     18  C   UNL     1      48.593   5.394  16.057  0.00  0.00    +0.000 C 
ATOM     19  O   UNL     1      48.818   4.274  16.511  0.00  0.00    +0.000 OA
ATOM     20  N   UNL     1      47.559   5.617  15.193  0.00  0.00    +0.000 N 
ATOM     21  H   UNL     1      47.340   6.558  14.902  0.00  0.00    +0.000 HD
BRANCH  18  29
ATOM     22  C   UNL     1      49.516   6.763  19.079  0.00  0.00    +0.000 A 
ATOM     23  N   UNL     1      50.080   7.441  20.098  0.00  0.00    +0.000 NA
ATOM     24  C   UNL     1      50.902   8.452  19.799  0.00  0.00    +0.000 A 
ATOM     25  N   UNL     1      51.227   8.889  18.585  0.00  0.00    +0.000 NA
ATOM     26  C   UNL     1      50.653   8.178  17.600  0.00  0.00    +0.000 A 
ATOM     27  S   UNL     1      50.949   8.598  15.982  0.00  0.00    +0.000 S 
ATOM     28  C   UNL     1      49.978   7.323  15.421  0.00  0.00    +0.000 A 
ATOM     29  C   UNL     1      49.419   6.553  16.434  0.00  0.00    +0.000 A 
ATOM     30  C   UNL     1      49.801   7.087  17.740  0.00  0.00    +0.000 A 
BRANCH  22  32
ATOM     31  C   UNL     1      47.405   6.112  19.840  0.00  0.00    +0.000 C 
ATOM     32  O   UNL     1      48.694   5.701  19.388  0.00  0.00    +0.000 OA
ENDBRANCH  22  32
ENDBRANCH  18  29
ENDBRANCH   1  20
TORSDOF 7
ENDMDL
MODEL 7
REMARK VINA RESULT:    -6.283      3.151      5.381
REMARK INTER + INTRA:         -10.383
REMARK INTER:                  -9.218
REMARK INTRA:                  -1.165
REMARK UNBOUND:                -1.528
REMARK  Name = 
REMARK  8 active torsions:
REMARK  status: ('A' for Active; 'I' for Inactive)
REMARK    1  A    between atoms: C_1  and  O_2
REMARK    2  A    between atoms: O_2  and  C_3
REMARK    3  A    between atoms: C_10  and  C_11
REMARK    4  A    between atoms: N_13  and  C_14
REMARK    5  A    between atoms: C_14  and  C_15
REMARK    6  A    between atoms: C_18  and  N_19
REMARK    7  A    between atoms: N_19  and  C_20
REMARK    8  A    between atoms: C_20  and  C_21
REMARK                            x       y       z     vdW  Elec       q    Type
REMARK                         _______ _______ _______ _____ _____    ______ ____
ROOT
ATOM      1  C   UNL     1      46.226   4.705  13.834  0.00  0.00    +0.000 C 
ENDROOT
BRANCH   1   2
ATOM      2  C   UNL     1      45.586   4.584  12.476  0.00  0.00    +0.000 A 
ATOM      3  C   UNL     1      45.794   5.582  11.520  0.00  0.00    +0.000 A 
ATOM      4  C   UNL     1      45.236   5.474  10.242  0.00  0.00    +0.000 A 
ATOM      5  C   UNL     1      44.432   4.389   9.881  0.00  0.00    +0.000 A 
ATOM      6  C   UNL     1      44.200   3.410  10.860  0.00  0.00    +0.000 A 
ATOM      7  C   UNL     1      44.762   3.505  12.142  0.00  0.00    +0.000 A 
BRANCH   5   8
ATOM      8  N   UNL     1      43.972   4.151   8.583  0.00  0.00    +0.000 N 
ATOM      9  H   UNL     1      43.655   5.009   8.136  0.00  0.00    +0.000 HD
BRANCH   8  10
ATOM     10  C   UNL     1      44.675   3.237   7.690  0.00  0.00    +0.000 C 
BRANCH  10  11
ATOM     11  C   UNL     1      46.166   3.113   8.066  0.00  0.00    +0.000 C 
ATOM     12  C   UNL     1      47.039   3.686   6.934  0.00  0.00    +0.000 C 
ATOM     13  C   UNL     1      47.067   2.767   5.710  0.00  0.00    +0.000 C 
ATOM     14  N   UNL     1      47.489   1.408   6.052  0.00  0.00    +0.000 NA
ATOM     15  C   UNL     1      46.650   0.820   7.097  0.00  0.00    +0.000 C 
ATOM     16  C   UNL     1      46.632   1.680   8.359  0.00  0.00    +0.000 C 
ATOM     17  H   UNL     1      48.454   1.438   6.383  0.00  0.00    +0.000 HD
ENDBRANCH  10  11
ENDBRANCH   8  10
ENDBRANCH   5   8
ENDBRANCH   1   2
BRANCH   1  20
ATOM     18  C   UNL     1      48.089   5.940  14.879  0.00  0.00    +0.000 C 
ATOM     19  O   UNL     1      48.130   5.164  15.832  0.00  0.00    +0.000 OA
ATOM     20  N   UNL     1      47.220   5.748  13.842  0.00  0.00    +0.000 N 
ATOM     21  H   UNL     1      47.143   6.444  13.115  0.00  0.00    +0.000 HD
BRANCH  18  29
ATOM     22  C   UNL     1      47.743   9.074  13.494  0.00  0.00    +0.000 A 
ATOM     23  N   UNL     1      47.841  10.366  13.125  0.00  0.00    +0.000 NA
ATOM     24  C   UNL     1      48.953  11.030  13.455  0.00  0.00    +0.000 A 
ATOM     25  N   UNL     1      50.008  10.551  14.108  0.00  0.00    +0.000 NA
ATOM     26  C   UNL     1      49.864   9.264  14.468  0.00  0.00    +0.000 A 
ATOM     27  S   UNL     1      51.116   8.484  15.307  0.00  0.00    +0.000 S 
ATOM     28  C   UNL     1      50.223   7.044  15.403  0.00  0.00    +0.000 A 
ATOM     29  C   UNL     1      48.965   7.121  14.815  0.00  0.00    +0.000 A 
ATOM     30  C   UNL     1      48.765   8.445  14.229  0.00  0.00    +0.000 A 
BRANCH  22  32
ATOM     31  C   UNL     1      45.639   9.214  12.488  0.00  0.00    +0.000 C 
ATOM     32  O   UNL     1      46.583   8.399  13.181  0.00  0.00    +0.000 OA
ENDBRANCH  22  32
ENDBRANCH  18  29
ENDBRANCH   1  20
TORSDOF 7
ENDMDL
MODEL 8
REMARK VINA RESULT:    -6.116      2.517      3.580
REMARK INTER + INTRA:         -10.148
REMARK INTER:                  -8.904
REMARK INTRA:                  -1.243
REMARK UNBOUND:                -1.528
REMARK  Name = 
REMARK  8 active torsions:
REMARK  status: ('A' for Active; 'I' for Inactive)
REMARK    1  A    between atoms: C_1  and  O_2
REMARK    2  A    between atoms: O_2  and  C_3
REMARK    3  A    between atoms: C_10  and  C_11
REMARK    4  A    between atoms: N_13  and  C_14
REMARK    5  A    between atoms: C_14  and  C_15
REMARK    6  A    between atoms: C_18  and  N_19
REMARK    7  A    between atoms: N_19  and  C_20
REMARK    8  A    between atoms: C_20  and  C_21
REMARK                            x       y       z     vdW  Elec       q    Type
REMARK                         _______ _______ _______ _____ _____    ______ ____
ROOT
ATOM      1  C   UNL     1      46.937   7.844  13.562  0.00  0.00    +0.000 C 
ENDROOT
BRANCH   1   2
ATOM      2  C   UNL     1      46.202   6.725  12.872  0.00  0.00    +0.000 A 
ATOM      3  C   UNL     1      45.437   6.995  11.735  0.00  0.00    +0.000 A 
ATOM      4  C   UNL     1      44.773   5.966  11.060  0.00  0.00    +0.000 A 
ATOM      5  C   UNL     1      44.824   4.642  11.507  0.00  0.00    +0.000 A 
ATOM      6  C   UNL     1      45.566   4.387  12.670  0.00  0.00    +0.000 A 
ATOM      7  C   UNL     1      46.242   5.412  13.350  0.00  0.00    +0.000 A 
BRANCH   5   8
ATOM      8  N   UNL     1      44.308   3.554  10.796  0.00  0.00    +0.000 N 
ATOM      9  H   UNL     1      43.495   3.820  10.244  0.00  0.00    +0.000 HD
BRANCH   8  10
ATOM     10  C   UNL     1      45.191   2.599  10.137  0.00  0.00    +0.000 C 
BRANCH  10  11
ATOM     11  C   UNL     1      44.774   2.359   8.671  0.00  0.00    +0.000 C 
ATOM     12  C   UNL     1      45.610   1.213   8.072  0.00  0.00    +0.000 C 
ATOM     13  C   UNL     1      47.055   1.639   7.798  0.00  0.00    +0.000 C 
ATOM     14  N   UNL     1      47.127   2.830   6.951  0.00  0.00    +0.000 NA
ATOM     15  C   UNL     1      46.375   3.952   7.517  0.00  0.00    +0.000 C 
ATOM     16  C   UNL     1      44.913   3.587   7.761  0.00  0.00    +0.000 C 
ATOM     17  H   UNL     1      46.739   2.604   6.035  0.00  0.00    +0.000 HD
ENDBRANCH  10  11
ENDBRANCH   8  10
ENDBRANCH   5   8
ENDBRANCH   1   2
BRANCH   1  20
ATOM     18  C   UNL     1      48.684   8.077  15.290  0.00  0.00    +0.000 C 
ATOM     19  O   UNL     1      48.308   9.210  15.582  0.00  0.00    +0.000 OA
ATOM     20  N   UNL     1      48.030   7.332  14.349  0.00  0.00    +0.000 N 
ATOM     21  H   UNL     1      48.407   6.440  14.063  0.00  0.00    +0.000 HD
BRANCH  18  29
ATOM     22  C   UNL     1      49.279   5.018  16.754  0.00  0.00    +0.000 A 
ATOM     23  N   UNL     1      49.797   3.900  17.299  0.00  0.00    +0.000 NA
ATOM     24  C   UNL     1      51.089   3.909  17.639  0.00  0.00    +0.000 A 
ATOM     25  N   UNL     1      51.944   4.921  17.514  0.00  0.00    +0.000 NA
ATOM     26  C   UNL     1      51.390   6.011  16.956  0.00  0.00    +0.000 A 
ATOM     27  S   UNL     1      52.332   7.403  16.723  0.00  0.00    +0.000 S 
ATOM     28  C   UNL     1      51.029   8.227  16.013  0.00  0.00    +0.000 A 
ATOM     29  C   UNL     1      49.864   7.473  15.928  0.00  0.00    +0.000 A 
ATOM     30  C   UNL     1      50.075   6.154  16.522  0.00  0.00    +0.000 A 
BRANCH  22  32
ATOM     31  C   UNL     1      47.244   3.879  16.906  0.00  0.00    +0.000 C 
ATOM     32  O   UNL     1      47.954   4.996  16.375  0.00  0.00    +0.000 OA
ENDBRANCH  22  32
ENDBRANCH  18  29
ENDBRANCH   1  20
TORSDOF 7
ENDMDL
MODEL 9
REMARK VINA RESULT:    -5.810      2.605      3.878
REMARK INTER + INTRA:          -9.715
REMARK INTER:                  -8.708
REMARK INTRA:                  -1.007
REMARK UNBOUND:                -1.528
REMARK  Name = 
REMARK  8 active torsions:
REMARK  status: ('A' for Active; 'I' for Inactive)
REMARK    1  A    between atoms: C_1  and  O_2
REMARK    2  A    between atoms: O_2  and  C_3
REMARK    3  A    between atoms: C_10  and  C_11
REMARK    4  A    between atoms: N_13  and  C_14
REMARK    5  A    between atoms: C_14  and  C_15
REMARK    6  A    between atoms: C_18  and  N_19
REMARK    7  A    between atoms: N_19  and  C_20
REMARK    8  A    between atoms: C_20  and  C_21
REMARK                            x       y       z     vdW  Elec       q    Type
REMARK                         _______ _______ _______ _____ _____    ______ ____
ROOT
ATOM      1  C   UNL     1      47.941   8.126  14.000  0.00  0.00    +0.000 C 
ENDROOT
BRANCH   1   2
ATOM      2  C   UNL     1      47.075   7.133  13.271  0.00  0.00    +0.000 A 
ATOM      3  C   UNL     1      47.253   5.765  13.491  0.00  0.00    +0.000 A 
ATOM      4  C   UNL     1      46.439   4.826  12.848  0.00  0.00    +0.000 A 
ATOM      5  C   UNL     1      45.443   5.213  11.947  0.00  0.00    +0.000 A 
ATOM      6  C   UNL     1      45.296   6.587  11.706  0.00  0.00    +0.000 A 
ATOM      7  C   UNL     1      46.102   7.538  12.352  0.00  0.00    +0.000 A 
BRANCH   5   8
ATOM      8  N   UNL     1      44.505   4.338  11.392  0.00  0.00    +0.000 N 
ATOM      9  H   UNL     1      43.784   4.840  10.878  0.00  0.00    +0.000 HD
BRANCH   8  10
ATOM     10  C   UNL     1      44.920   3.086  10.769  0.00  0.00    +0.000 C 
BRANCH  10  11
ATOM     11  C   UNL     1      44.289   2.912   9.372  0.00  0.00    +0.000 C 
ATOM     12  C   UNL     1      44.721   1.561   8.770  0.00  0.00    +0.000 C 
ATOM     13  C   UNL     1      46.186   1.574   8.324  0.00  0.00    +0.000 C 
ATOM     14  N   UNL     1      46.470   2.670   7.396  0.00  0.00    +0.000 NA
ATOM     15  C   UNL     1      46.108   3.972   7.959  0.00  0.00    +0.000 C 
ATOM     16  C   UNL     1      44.639   4.022   8.372  0.00  0.00    +0.000 C 
ATOM     17  H   UNL     1      45.934   2.521   6.541  0.00  0.00    +0.000 HD
ENDBRANCH  10  11
ENDBRANCH   8  10
ENDBRANCH   5   8
ENDBRANCH   1   2
BRANCH   1  20
ATOM     18  C   UNL     1      49.114   7.062  15.893  0.00  0.00    +0.000 C 
ATOM     19  O   UNL     1      50.072   6.755  15.186  0.00  0.00    +0.000 OA
ATOM     20  N   UNL     1      48.062   7.776  15.393  0.00  0.00    +0.000 N 
ATOM     21  H   UNL     1      47.249   7.941  15.967  0.00  0.00    +0.000 HD
BRANCH  18  29
ATOM     22  C   UNL     1      48.839   8.822  18.839  0.00  0.00    +0.000 A 
ATOM     23  N   UNL     1      48.659   9.246  20.106  0.00  0.00    +0.000 NA
ATOM     24  C   UNL     1      48.576   8.324  21.069  0.00  0.00    +0.000 A 
ATOM     25  N   UNL     1      48.667   7.004  20.926  0.00  0.00    +0.000 NA
ATOM     26  C   UNL     1      48.833   6.625  19.647  0.00  0.00    +0.000 A 
ATOM     27  S   UNL     1      48.975   4.975  19.275  0.00  0.00    +0.000 S 
ATOM     28  C   UNL     1      49.113   5.309  17.617  0.00  0.00    +0.000 A 
ATOM     29  C   UNL     1      49.048   6.663  17.308  0.00  0.00    +0.000 A 
ATOM     30  C   UNL     1      48.910   7.451  18.531  0.00  0.00    +0.000 A 
BRANCH  22  32
ATOM     31  C   UNL     1      47.770  10.653  17.856  0.00  0.00    +0.000 C 
ATOM     32  O   UNL     1      48.892   9.773  17.842  0.00  0.00    +0.000 OA
ENDBRANCH  22  32
ENDBRANCH  18  29
ENDBRANCH   1  20
TORSDOF 7
ENDMDL
