MODEL 1
REMARK VINA RESULT:    -7.458      0.000      0.000
REMARK INTER + INTRA:         -10.148
REMARK INTER:                  -9.638
REMARK INTRA:                  -0.510
REMARK UNBOUND:                -0.510
REMARK  Name = 
REMARK  6 active torsions:
REMARK  status: ('A' for Active; 'I' for Inactive)
REMARK    1  A    between atoms: N_1  and  C_2
REMARK    2  A    between atoms: C_2  and  C_3
REMARK    3  A    between atoms: C_6  and  O_7
REMARK    4  A    between atoms: O_7  and  C_8
REMARK    5  A    between atoms: C_8  and  C_9
REMARK    6  A    between atoms: C_9  and  O_10
REMARK                            x       y       z     vdW  Elec       q    Type
REMARK                         _______ _______ _______ _____ _____    ______ ____
ROOT
ATOM      1  C   UNL     1      46.584   2.102   7.658  0.00  0.00    +0.000 A 
ATOM      2  C   UNL     1      46.575   3.472   7.369  0.00  0.00    +0.000 A 
ATOM      3  C   UNL     1      45.628   4.322   7.947  0.00  0.00    +0.000 A 
ATOM      4  C   UNL     1      44.670   3.821   8.828  0.00  0.00    +0.000 A 
ATOM      5  C   UNL     1      44.668   2.454   9.117  0.00  0.00    +0.000 A 
ATOM      6  C   UNL     1      45.617   1.600   8.538  0.00  0.00    +0.000 A 
ENDROOT
BRANCH   1   7
ATOM      7  C   UNL     1      47.596   1.195   7.006  0.00  0.00    +0.000 C 
BRANCH   7   8
ATOM      8  N   UNL     1      48.345   1.881   5.957  0.00  0.00    +0.000 NA
ATOM      9  H   UNL     1      47.731   2.041   5.161  0.00  0.00    +0.000 HD
ATOM     10  H   UNL     1      49.088   1.266   5.630  0.00  0.00    +0.000 HD
ENDBRANCH   7   8
ENDBRANCH   1   7
BRANCH   4  11
ATOM     11  O   UNL     1      43.700   4.562   9.455  0.00  0.00    +0.000 OA
BRANCH  11  12
ATOM     12  C   UNL     1      43.493   4.267  10.847  0.00  0.00    +0.000 C 
BRANCH  12  13
ATOM     13  C   UNL     1      43.534   5.569  11.685  0.00  0.00    +0.000 C 
ATOM     14  C   UNL     1      44.560   6.579  11.145  0.00  0.00    +0.000 C 
ATOM     15  C   UNL     1      46.001   6.115  11.352  0.00  0.00    +0.000 C 
ATOM     16  C   UNL     1      46.285   5.762  12.812  0.00  0.00    +0.000 C 
ATOM     17  C   UNL     1      45.266   4.785  13.391  0.00  0.00    +0.000 C 
ATOM     18  C   UNL     1      43.835   5.265  13.163  0.00  0.00    +0.000 C 
BRANCH  13  19
ATOM     19  O   UNL     1      42.239   6.182  11.636  0.00  0.00    +0.000 OA
ATOM     20  H   UNL     1      41.908   6.062  10.726  0.00  0.00    +0.000 HD
ENDBRANCH  13  19
ENDBRANCH  12  13
ENDBRANCH  11  12
ENDBRANCH   4  11
TORSDOF 6
ENDMDL
MODEL 2
REMARK VINA RESULT:    -7.261      1.022      1.653
REMARK INTER + INTRA:          -9.894
REMARK INTER:                  -9.378
REMARK INTRA:                  -0.516
REMARK UNBOUND:                -0.510
REMARK  Name = 
REMARK  6 active torsions:
REMARK  status: ('A' for Active; 'I' for Inactive)
REMARK    1  A    between atoms: N_1  and  C_2
REMARK    2  A    between atoms: C_2  and  C_3
REMARK    3  A    between atoms: C_6  and  O_7
REMARK    4  A    between atoms: O_7  and  C_8
REMARK    5  A    between atoms: C_8  and  C_9
REMARK    6  A    between atoms: C_9  and  O_10
REMARK                            x       y       z     vdW  Elec       q    Type
REMARK                         _______ _______ _______ _____ _____    ______ ____
ROOT
ATOM      1  C   UNL     1      47.062   2.330   7.250  0.00  0.00    +0.000 A 
ATOM      2  C   UNL     1      46.379   1.386   8.027  0.00  0.00    +0.000 A 
ATOM      3  C   UNL     1      45.295   1.761   8.825  0.00  0.00    +0.000 A 
ATOM      4  C   UNL     1      44.869   3.089   8.865  0.00  0.00    +0.000 A 
ATOM      5  C   UNL     1      45.548   4.038   8.097  0.00  0.00    +0.000 A 
ATOM      6  C   UNL     1      46.636   3.663   7.295  0.00  0.00    +0.000 A 
ENDROOT
BRANCH   1   7
ATOM      7  C   UNL     1      48.245   1.914   6.414  0.00  0.00    +0.000 C 
BRANCH   7   8
ATOM      8  N   UNL     1      48.237   2.556   5.104  0.00  0.00    +0.000 NA
ATOM      9  H   UNL     1      48.751   3.434   5.160  0.00  0.00    +0.000 HD
ATOM     10  H   UNL     1      47.278   2.799   4.862  0.00  0.00    +0.000 HD
ENDBRANCH   7   8
ENDBRANCH   1   7
BRANCH   4  11
ATOM     11  O   UNL     1      43.817   3.566   9.606  0.00  0.00    +0.000 OA
BRANCH  11  12
ATOM     12  C   UNL     1      44.047   4.813  10.283  0.00  0.00    +0.000 C 
BRANCH  12  13
ATOM     13  C   UNL     1      43.604   4.711  11.763  0.00  0.00    +0.000 C 
ATOM     14  C   UNL     1      44.157   5.862  12.619  0.00  0.00    +0.000 C 
ATOM     15  C   UNL     1      45.669   5.770  12.815  0.00  0.00    +0.000 C 
ATOM     16  C   UNL     1      46.093   4.410  13.371  0.00  0.00    +0.000 C 
ATOM     17  C   UNL     1      45.534   3.242  12.563  0.00  0.00    +0.000 C 
ATOM     18  C   UNL     1      44.024   3.363  12.374  0.00  0.00    +0.000 C 
BRANCH  13  19
ATOM     19  O   UNL     1      42.171   4.769  11.814  0.00  0.00    +0.000 OA
ATOM     20  H   UNL     1      41.936   5.047  12.718  0.00  0.00    +0.000 HD
ENDBRANCH  13  19
ENDBRANCH  12  13
ENDBRANCH  11  12
ENDBRANCH   4  11
TORSDOF 6
ENDMDL
MODEL 3
REMARK VINA RESULT:    -7.041      1.337      1.611
REMARK INTER + INTRA:          -9.610
REMARK INTER:                  -9.142
REMARK INTRA:                  -0.467
REMARK UNBOUND:                -0.510
REMARK  Name = 
REMARK  6 active torsions:
REMARK  status: ('A' for Active; 'I' for Inactive)
REMARK    1  A    between atoms: N_1  and  C_2
REMARK    2  A    between atoms: C_2  and  C_3
REMARK    3  A    between atoms: C_6  and  O_7
REMARK    4  A    between atoms: O_7  and  C_8
REMARK    5  A    between atoms: C_8  and  C_9
REMARK    6  A    between atoms: C_9  and  O_10
REMARK                            x       y       z     vdW  Elec       q    Type
REMARK                         _______ _______ _______ _____ _____    ______ ____
ROOT
ATOM      1  C   UNL     1      46.600   2.753   6.874  0.00  0.00    +0.000 A 
ATOM      2  C   UNL     1      46.199   4.026   7.299  0.00  0.00    +0.000 A 
ATOM      3  C   UNL     1      45.485   4.194   8.489  0.00  0.00    +0.000 A 
ATOM      4  C   UNL     1      45.155   3.093   9.279  0.00  0.00    +0.000 A 
ATOM      5  C   UNL     1      45.546   1.820   8.860  0.00  0.00    +0.000 A 
ATOM      6  C   UNL     1      46.263   1.649   7.667  0.00  0.00    +0.000 A 
ENDROOT
BRANCH   1   7
ATOM      7  C   UNL     1      47.348   2.586   5.576  0.00  0.00    +0.000 C 
BRANCH   7   8
ATOM      8  N   UNL     1      48.575   1.816   5.751  0.00  0.00    +0.000 NA
ATOM      9  H   UNL     1      48.392   0.841   5.522  0.00  0.00    +0.000 HD
ATOM     10  H   UNL     1      48.838   1.836   6.735  0.00  0.00    +0.000 HD
ENDBRANCH   7   8
ENDBRANCH   1   7
BRANCH   4  11
ATOM     11  O   UNL     1      44.464   3.143  10.464  0.00  0.00    +0.000 OA
BRANCH  11  12
ATOM     12  C   UNL     1      45.268   3.263  11.650  0.00  0.00    +0.000 C 
BRANCH  12  13
ATOM     13  C   UNL     1      44.630   4.274  12.633  0.00  0.00    +0.000 C 
ATOM     14  C   UNL     1      44.021   5.487  11.911  0.00  0.00    +0.000 C 
ATOM     15  C   UNL     1      45.085   6.392  11.293  0.00  0.00    +0.000 C 
ATOM     16  C   UNL     1      46.134   6.825  12.317  0.00  0.00    +0.000 C 
ATOM     17  C   UNL     1      46.737   5.648  13.078  0.00  0.00    +0.000 C 
ATOM     18  C   UNL     1      45.654   4.754  13.676  0.00  0.00    +0.000 C 
BRANCH  13  19
ATOM     19  O   UNL     1      43.579   3.610  13.349  0.00  0.00    +0.000 OA
ATOM     20  H   UNL     1      43.144   3.012  12.714  0.00  0.00    +0.000 HD
ENDBRANCH  13  19
ENDBRANCH  12  13
ENDBRANCH  11  12
ENDBRANCH   4  11
TORSDOF 6
ENDMDL
MODEL 4
REMARK VINA RESULT:    -6.457      1.025      2.121
REMARK INTER + INTRA:          -8.855
REMARK INTER:                  -8.908
REMARK INTRA:                   0.053
REMARK UNBOUND:                -0.510
REMARK  Name = 
REMARK  6 active torsions:
REMARK  status: ('A' for Active; 'I' for Inactive)
REMARK    1  A    between atoms: N_1  and  C_2
REMARK    2  A    between atoms: C_2  and  C_3
REMARK    3  A    between atoms: C_6  and  O_7
REMARK    4  A    between atoms: O_7  and  C_8
REMARK    5  A    between atoms: C_8  and  C_9
REMARK    6  A    between atoms: C_9  and  O_10
REMARK                            x       y       z     vdW  Elec       q    Type
REMARK                         _______ _______ _______ _____ _____    ______ ____
ROOT
ATOM      1  C   UNL     1      46.738   2.184   7.482  0.00  0.00    +0.000 A 
ATOM      2  C   UNL     1      45.857   1.715   8.464  0.00  0.00    +0.000 A 
ATOM      3  C   UNL     1      45.077   2.601   9.213  0.00  0.00    +0.000 A 
ATOM      4  C   UNL     1      45.162   3.976   8.997  0.00  0.00    +0.000 A 
ATOM      5  C   UNL     1      46.043   4.453   8.023  0.00  0.00    +0.000 A 
ATOM      6  C   UNL     1      46.825   3.566   7.270  0.00  0.00    +0.000 A 
ENDROOT
BRANCH   1   7
ATOM      7  C   UNL     1      47.589   1.217   6.700  0.00  0.00    +0.000 C 
BRANCH   7   8
ATOM      8  N   UNL     1      48.405   1.897   5.700  0.00  0.00    +0.000 NA
ATOM      9  H   UNL     1      49.053   2.526   6.170  0.00  0.00    +0.000 HD
ATOM     10  H   UNL     1      47.800   2.482   5.125  0.00  0.00    +0.000 HD
ENDBRANCH   7   8
ENDBRANCH   1   7
BRANCH   4  11
ATOM     11  O   UNL     1      44.443   4.933   9.668  0.00  0.00    +0.000 OA
BRANCH  11  12
ATOM     12  C   UNL     1      45.214   5.846  10.467  0.00  0.00    +0.000 C 
BRANCH  12  13
ATOM     13  C   UNL     1      44.536   6.063  11.842  0.00  0.00    +0.000 C 
ATOM     14  C   UNL     1      45.279   5.345  12.980  0.00  0.00    +0.000 C 
ATOM     15  C   UNL     1      45.158   3.825  12.890  0.00  0.00    +0.000 C 
ATOM     16  C   UNL     1      43.700   3.370  12.805  0.00  0.00    +0.000 C 
ATOM     17  C   UNL     1      42.922   4.087  11.705  0.00  0.00    +0.000 C 
ATOM     18  C   UNL     1      43.067   5.603  11.812  0.00  0.00    +0.000 C 
BRANCH  13  19
ATOM     19  O   UNL     1      44.531   7.468  12.131  0.00  0.00    +0.000 OA
ATOM     20  H   UNL     1      44.985   7.577  12.987  0.00  0.00    +0.000 HD
ENDBRANCH  13  19
ENDBRANCH  12  13
ENDBRANCH  11  12
ENDBRANCH   4  11
TORSDOF 6
ENDMDL
MODEL 5
REMARK VINA RESULT:    -5.927      3.192      5.948
REMARK INTER + INTRA:          -8.170
REMARK INTER:                  -7.691
REMARK INTRA:                  -0.479
REMARK UNBOUND:                -0.510
REMARK  Name = 
REMARK  6 active torsions:
REMARK  status: ('A' for Active; 'I' for Inactive)
REMARK    1  A    between atoms: N_1  and  C_2
REMARK    2  A    between atoms: C_2  and  C_3
REMARK    3  A    between atoms: C_6  and  O_7
REMARK    4  A    between atoms: O_7  and  C_8
REMARK    5  A    between atoms: C_8  and  C_9
REMARK    6  A    between atoms: C_9  and  O_10
REMARK                            x       y       z     vdW  Elec       q    Type
REMARK                         _______ _______ _______ _____ _____    ______ ____
ROOT
ATOM      1  C   UNL     1      47.002   7.727  13.179  0.00  0.00    +0.000 A 
ATOM      2  C   UNL     1      47.657   6.509  13.398  0.00  0.00    +0.000 A 
ATOM      3  C   UNL     1      46.970   5.295  13.295  0.00  0.00    +0.000 A 
ATOM      4  C   UNL     1      45.614   5.274  12.972  0.00  0.00    +0.000 A 
ATOM      5  C   UNL     1      44.952   6.485  12.757  0.00  0.00    +0.000 A 
ATOM      6  C   UNL     1      45.639   7.703  12.859  0.00  0.00    +0.000 A 
ENDROOT
BRANCH   1   7
ATOM      7  C   UNL     1      47.751   9.027  13.319  0.00  0.00    +0.000 C 
BRANCH   7   8
ATOM      8  N   UNL     1      47.027  10.139  12.710  0.00  0.00    +0.000 NA
ATOM      9  H   UNL     1      46.185   9.784  12.263  0.00  0.00    +0.000 HD
ATOM     10  H   UNL     1      47.601  10.538  11.969  0.00  0.00    +0.000 HD
ENDBRANCH   7   8
ENDBRANCH   1   7
BRANCH   4  11
ATOM     11  O   UNL     1      44.845   4.144  12.839  0.00  0.00    +0.000 OA
BRANCH  11  12
ATOM     12  C   UNL     1      45.228   3.250  11.780  0.00  0.00    +0.000 C 
BRANCH  12  13
ATOM     13  C   UNL     1      44.156   3.248  10.664  0.00  0.00    +0.000 C 
ATOM     14  C   UNL     1      44.295   2.042   9.721  0.00  0.00    +0.000 C 
ATOM     15  C   UNL     1      45.548   2.123   8.851  0.00  0.00    +0.000 C 
ATOM     16  C   UNL     1      45.626   3.441   8.080  0.00  0.00    +0.000 C 
ATOM     17  C   UNL     1      45.459   4.662   8.981  0.00  0.00    +0.000 C 
ATOM     18  C   UNL     1      44.206   4.552   9.847  0.00  0.00    +0.000 C 
BRANCH  13  19
ATOM     19  O   UNL     1      42.861   3.185  11.277  0.00  0.00    +0.000 OA
ATOM     20  H   UNL     1      43.009   2.998  12.222  0.00  0.00    +0.000 HD
ENDBRANCH  13  19
ENDBRANCH  12  13
ENDBRANCH  11  12
ENDBRANCH   4  11
TORSDOF 6
ENDMDL
MODEL 6
REMARK VINA RESULT:    -5.337      4.621      6.248
REMARK INTER + INTRA:          -7.407
REMARK INTER:                  -7.127
REMARK INTRA:                  -0.280
REMARK UNBOUND:                -0.510
REMARK  Name = 
REMARK  6 active torsions:
REMARK  status: ('A' for Active; 'I' for Inactive)
REMARK    1  A    between atoms: N_1  and  C_2
REMARK    2  A    between atoms: C_2  and  C_3
REMARK    3  A    between atoms: C_6  and  O_7
REMARK    4  A    between atoms: O_7  and  C_8
REMARK    5  A    between atoms: C_8  and  C_9
REMARK    6  A    between atoms: C_9  and  O_10
REMARK                            x       y       z     vdW  Elec       q    Type
REMARK                         _______ _______ _______ _____ _____    ______ ____
ROOT
ATOM      1  C   UNL     1      45.596   5.212  11.274  0.00  0.00    +0.000 A 
ATOM      2  C   UNL     1      46.402   6.015  12.090  0.00  0.00    +0.000 A 
ATOM      3  C   UNL     1      46.900   5.534  13.304  0.00  0.00    +0.000 A 
ATOM      4  C   UNL     1      46.603   4.239  13.728  0.00  0.00    +0.000 A 
ATOM      5  C   UNL     1      45.795   3.433  12.923  0.00  0.00    +0.000 A 
ATOM      6  C   UNL     1      45.295   3.915  11.704  0.00  0.00    +0.000 A 
ENDROOT
BRANCH   1   7
ATOM      7  C   UNL     1      45.046   5.756   9.980  0.00  0.00    +0.000 C 
BRANCH   7   8
ATOM      8  N   UNL     1      45.662   5.122   8.819  0.00  0.00    +0.000 NA
ATOM      9  H   UNL     1      46.587   4.783   9.075  0.00  0.00    +0.000 HD
ATOM     10  H   UNL     1      45.803   5.826   8.096  0.00  0.00    +0.000 HD
ENDBRANCH   7   8
ENDBRANCH   1   7
BRANCH   4  11
ATOM     11  O   UNL     1      47.041   3.663  14.895  0.00  0.00    +0.000 OA
BRANCH  11  12
ATOM     12  C   UNL     1      47.527   4.574  15.896  0.00  0.00    +0.000 C 
BRANCH  12  13
ATOM     13  C   UNL     1      47.569   3.880  17.279  0.00  0.00    +0.000 C 
ATOM     14  C   UNL     1      47.594   4.889  18.438  0.00  0.00    +0.000 C 
ATOM     15  C   UNL     1      48.912   5.658  18.515  0.00  0.00    +0.000 C 
ATOM     16  C   UNL     1      50.119   4.722  18.568  0.00  0.00    +0.000 C 
ATOM     17  C   UNL     1      50.111   3.684  17.450  0.00  0.00    +0.000 C 
ATOM     18  C   UNL     1      48.781   2.937  17.388  0.00  0.00    +0.000 C 
BRANCH  13  19
ATOM     19  O   UNL     1      46.393   3.072  17.419  0.00  0.00    +0.000 OA
ATOM     20  H   UNL     1      46.699   2.159  17.572  0.00  0.00    +0.000 HD
ENDBRANCH  13  19
ENDBRANCH  12  13
ENDBRANCH  11  12
ENDBRANCH   4  11
TORSDOF 6
ENDMDL
MODEL 7
REMARK VINA RESULT:    -5.202      3.156      4.509
REMARK INTER + INTRA:          -7.233
REMARK INTER:                  -6.639
REMARK INTRA:                  -0.594
REMARK UNBOUND:                -0.510
REMARK  Name = 
REMARK  6 active torsions:
REMARK  status: ('A' for Active; 'I' for Inactive)
REMARK    1  A    between atoms: N_1  and  C_2
REMARK    2  A    between atoms: C_2  and  C_3
REMARK    3  A    between atoms: C_6  and  O_7
REMARK    4  A    between atoms: O_7  and  C_8
REMARK    5  A    between atoms: C_8  and  C_9
REMARK    6  A    between atoms: C_9  and  O_10
REMARK                            x       y       z     vdW  Elec       q    Type
REMARK                         _______ _______ _______ _____ _____    ______ ____
ROOT
ATOM      1  C   UNL     1      44.951   3.860   9.938  0.00  0.00    +0.000 A 
ATOM      2  C   UNL     1      44.699   3.524  11.274  0.00  0.00    +0.000 A 
ATOM      3  C   UNL     1      44.960   4.431  12.305  0.00  0.00    +0.000 A 
ATOM      4  C   UNL     1      45.479   5.694  12.023  0.00  0.00    +0.000 A 
ATOM      5  C   UNL     1      45.739   6.035  10.693  0.00  0.00    +0.000 A 
ATOM      6  C   UNL     1      45.478   5.127   9.658  0.00  0.00    +0.000 A 
ENDROOT
BRANCH   1   7
ATOM      7  C   UNL     1      44.688   2.860   8.841  0.00  0.00    +0.000 C 
BRANCH   7   8
ATOM      8  N   UNL     1      45.203   1.536   9.177  0.00  0.00    +0.000 NA
ATOM      9  H   UNL     1      46.193   1.495   8.945  0.00  0.00    +0.000 HD
ATOM     10  H   UNL     1      44.740   0.845   8.589  0.00  0.00    +0.000 HD
ENDBRANCH   7   8
ENDBRANCH   1   7
BRANCH   4  11
ATOM     11  O   UNL     1      45.767   6.662  12.952  0.00  0.00    +0.000 OA
BRANCH  11  12
ATOM     12  C   UNL     1      46.239   7.914  12.423  0.00  0.00    +0.000 C 
BRANCH  12  13
ATOM     13  C   UNL     1      47.382   8.473  13.304  0.00  0.00    +0.000 C 
ATOM     14  C   UNL     1      48.080   9.680  12.657  0.00  0.00    +0.000 C 
ATOM     15  C   UNL     1      48.895   9.293  11.425  0.00  0.00    +0.000 C 
ATOM     16  C   UNL     1      49.890   8.171  11.725  0.00  0.00    +0.000 C 
ATOM     17  C   UNL     1      49.236   6.967  12.398  0.00  0.00    +0.000 C 
ATOM     18  C   UNL     1      48.421   7.382  13.620  0.00  0.00    +0.000 C 
BRANCH  13  19
ATOM     19  O   UNL     1      46.825   8.900  14.555  0.00  0.00    +0.000 OA
ATOM     20  H   UNL     1      47.202   8.318  15.240  0.00  0.00    +0.000 HD
ENDBRANCH  13  19
ENDBRANCH  12  13
ENDBRANCH  11  12
ENDBRANCH   4  11
TORSDOF 6
ENDMDL
MODEL 8
REMARK VINA RESULT:    -5.196      3.302      5.764
REMARK INTER + INTRA:          -7.225
REMARK INTER:                  -6.730
REMARK INTRA:                  -0.494
REMARK UNBOUND:                -0.510
REMARK  Name = 
REMARK  6 active torsions:
REMARK  status: ('A' for Active; 'I' for Inactive)
REMARK    1  A    between atoms: N_1  and  C_2
REMARK    2  A    between atoms: C_2  and  C_3
REMARK    3  A    between atoms: C_6  and  O_7
REMARK    4  A    between atoms: O_7  and  C_8
REMARK    5  A    between atoms: C_8  and  C_9
REMARK    6  A    between atoms: C_9  and  O_10
REMARK                            x       y       z     vdW  Elec       q    Type
REMARK                         _______ _______ _______ _____ _____    ______ ____
ROOT
ATOM      1  C   UNL     1      48.657   8.832  11.874  0.00  0.00    +0.000 A 
ATOM      2  C   UNL     1      48.533   7.439  11.812  0.00  0.00    +0.000 A 
ATOM      3  C   UNL     1      47.318   6.812  12.102  0.00  0.00    +0.000 A 
ATOM      4  C   UNL     1      46.200   7.564  12.461  0.00  0.00    +0.000 A 
ATOM      5  C   UNL     1      46.316   8.955  12.531  0.00  0.00    +0.000 A 
ATOM      6  C   UNL     1      47.534   9.585  12.240  0.00  0.00    +0.000 A 
ENDROOT
BRANCH   1   7
ATOM      7  C   UNL     1      49.981   9.491  11.582  0.00  0.00    +0.000 C 
BRANCH   7   8
ATOM      8  N   UNL     1      50.985   8.524  11.152  0.00  0.00    +0.000 NA
ATOM      9  H   UNL     1      51.908   8.857  11.426  0.00  0.00    +0.000 HD
ATOM     10  H   UNL     1      50.986   8.482  10.134  0.00  0.00    +0.000 HD
ENDBRANCH   7   8
ENDBRANCH   1   7
BRANCH   4  11
ATOM     11  O   UNL     1      44.961   7.056  12.761  0.00  0.00    +0.000 OA
BRANCH  11  12
ATOM     12  C   UNL     1      44.925   5.658  13.096  0.00  0.00    +0.000 C 
BRANCH  12  13
ATOM     13  C   UNL     1      43.591   5.027  12.629  0.00  0.00    +0.000 C 
ATOM     14  C   UNL     1      43.623   3.491  12.675  0.00  0.00    +0.000 C 
ATOM     15  C   UNL     1      44.553   2.894  11.621  0.00  0.00    +0.000 C 
ATOM     16  C   UNL     1      44.226   3.400  10.216  0.00  0.00    +0.000 C 
ATOM     17  C   UNL     1      44.153   4.922  10.139  0.00  0.00    +0.000 C 
ATOM     18  C   UNL     1      43.226   5.494  11.208  0.00  0.00    +0.000 C 
BRANCH  13  19
ATOM     19  O   UNL     1      42.545   5.476  13.501  0.00  0.00    +0.000 OA
ATOM     20  H   UNL     1      42.418   6.426  13.319  0.00  0.00    +0.000 HD
ENDBRANCH  13  19
ENDBRANCH  12  13
ENDBRANCH  11  12
ENDBRANCH   4  11
TORSDOF 6
ENDMDL
MODEL 9
REMARK VINA RESULT:    -5.178      5.110      7.507
REMARK INTER + INTRA:          -7.201
REMARK INTER:                  -6.927
REMARK INTRA:                  -0.274
REMARK UNBOUND:                -0.510
REMARK  Name = 
REMARK  6 active torsions:
REMARK  status: ('A' for Active; 'I' for Inactive)
REMARK    1  A    between atoms: N_1  and  C_2
REMARK    2  A    between atoms: C_2  and  C_3
REMARK    3  A    between atoms: C_6  and  O_7
REMARK    4  A    between atoms: O_7  and  C_8
REMARK    5  A    between atoms: C_8  and  C_9
REMARK    6  A    between atoms: C_9  and  O_10
REMARK                            x       y       z     vdW  Elec       q    Type
REMARK                         _______ _______ _______ _____ _____    ______ ____
ROOT
ATOM      1  C   UNL     1      48.611   4.239  17.928  0.00  0.00    +0.000 A 
ATOM      2  C   UNL     1      48.114   5.309  17.172  0.00  0.00    +0.000 A 
ATOM      3  C   UNL     1      47.543   5.096  15.914  0.00  0.00    +0.000 A 
ATOM      4  C   UNL     1      47.457   3.809  15.384  0.00  0.00    +0.000 A 
ATOM      5  C   UNL     1      47.955   2.737  16.128  0.00  0.00    +0.000 A 
ATOM      6  C   UNL     1      48.528   2.949  17.390  0.00  0.00    +0.000 A 
ENDROOT
BRANCH   1   7
ATOM      7  C   UNL     1      49.247   4.489  19.271  0.00  0.00    +0.000 C 
BRANCH   7   8
ATOM      8  N   UNL     1      48.624   3.693  20.324  0.00  0.00    +0.000 NA
ATOM      9  H   UNL     1      48.622   4.229  21.189  0.00  0.00    +0.000 HD
ATOM     10  H   UNL     1      49.199   2.870  20.496  0.00  0.00    +0.000 HD
ENDBRANCH   7   8
ENDBRANCH   1   7
BRANCH   4  11
ATOM     11  O   UNL     1      46.913   3.485  14.166  0.00  0.00    +0.000 OA
BRANCH  11  12
ATOM     12  C   UNL     1      46.120   4.511  13.545  0.00  0.00    +0.000 C 
BRANCH  12  13
ATOM     13  C   UNL     1      45.123   3.885  12.539  0.00  0.00    +0.000 C 
ATOM     14  C   UNL     1      45.318   4.422  11.112  0.00  0.00    +0.000 C 
ATOM     15  C   UNL     1      44.905   5.886  10.978  0.00  0.00    +0.000 C 
ATOM     16  C   UNL     1      43.479   6.127  11.472  0.00  0.00    +0.000 C 
ATOM     17  C   UNL     1      43.239   5.577  12.875  0.00  0.00    +0.000 C 
ATOM     18  C   UNL     1      43.668   4.116  12.985  0.00  0.00    +0.000 C 
BRANCH  13  19
ATOM     19  O   UNL     1      45.335   2.466  12.512  0.00  0.00    +0.000 OA
ATOM     20  H   UNL     1      46.243   2.326  12.185  0.00  0.00    +0.000 HD
ENDBRANCH  13  19
ENDBRANCH  12  13
ENDBRANCH  11  12
ENDBRANCH   4  11
TORSDOF 6
ENDMDL
