MODEL 1
REMARK VINA RESULT:    -8.504      0.000      0.000
REMARK INTER + INTRA:         -11.735
REMARK INTER:                 -10.990
REMARK INTRA:                  -0.744
REMARK UNBOUND:                -0.744
REMARK  Name = 
REMARK  5 active torsions:
REMARK  status: ('A' for Active; 'I' for Inactive)
REMARK    1  A    between atoms: C_2  and  C_3
REMARK    2  A    between atoms: C_6  and  N_7
REMARK    3  A    between atoms: N_7  and  C_8
REMARK    4  A    between atoms: C_8  and  C_9
REMARK    5  A    between atoms: C_13  and  C_14
REMARK                            x       y       z     vdW  Elec       q    Type
REMARK                         _______ _______ _______ _____ _____    ______ ____
ROOT
ATOM      1  C   UNL     1      44.170   4.451  11.735  0.00  0.00    +0.000 C 
ATOM      2  C   UNL     1      43.402   3.402  12.522  0.00  0.00    +0.000 C 
ATOM      3  C   UNL     1      43.030   4.833  12.681  0.00  0.00    +0.000 C 
ENDROOT
BRANCH   1   4
ATOM      4  C   UNL     1      45.499   5.021  12.225  0.00  0.00    +0.000 A 
ATOM      5  C   UNL     1      46.020   6.199  11.663  0.00  0.00    +0.000 A 
ATOM      6  C   UNL     1      47.046   6.904  12.286  0.00  0.00    +0.000 A 
ATOM      7  C   UNL     1      47.581   6.431  13.483  0.00  0.00    +0.000 A 
ATOM      8  C   UNL     1      47.143   5.219  14.042  0.00  0.00    +0.000 A 
ATOM      9  C   UNL     1      46.135   4.509  13.367  0.00  0.00    +0.000 A 
BRANCH   8  10
ATOM     10  C   UNL     1      47.631   4.752  15.346  0.00  0.00    +0.000 A 
ATOM     11  C   UNL     1      47.493   3.441  15.774  0.00  0.00    +0.000 A 
ATOM     12  N   UNL     1      47.964   2.957  16.944  0.00  0.00    +0.000 NA
ATOM     13  C   UNL     1      48.616   3.839  17.712  0.00  0.00    +0.000 A 
ATOM     14  N   UNL     1      48.832   5.129  17.418  0.00  0.00    +0.000 NA
ATOM     15  C   UNL     1      48.328   5.552  16.238  0.00  0.00    +0.000 A 
ENDBRANCH   8  10
ENDBRANCH   1   4
BRANCH   1  16
ATOM     16  N   UNL     1      43.978   4.497  10.280  0.00  0.00    +0.000 N 
ATOM     17  H   UNL     1      43.051   4.709   9.924  0.00  0.00    +0.000 HD
BRANCH  16  21
ATOM     18  C   UNL     1      46.647   2.649   7.558  0.00  0.00    +0.000 A 
ATOM     19  C   UNL     1      45.919   1.861   8.447  0.00  0.00    +0.000 A 
ATOM     20  C   UNL     1      45.030   2.461   9.350  0.00  0.00    +0.000 A 
ATOM     21  C   UNL     1      44.816   3.843   9.355  0.00  0.00    +0.000 A 
ATOM     22  C   UNL     1      45.568   4.624   8.464  0.00  0.00    +0.000 A 
ATOM     23  C   UNL     1      46.480   4.034   7.575  0.00  0.00    +0.000 A 
BRANCH  18  25
ATOM     24  N   UNL     1      48.327   1.547   5.914  0.00  0.00    +0.000 NA
ATOM     25  C   UNL     1      47.575   2.041   6.649  0.00  0.00    +0.000 C 
ENDBRANCH  18  25
ENDBRANCH  16  21
ENDBRANCH   1  16
TORSDOF 5
ENDMDL
MODEL 2
REMARK VINA RESULT:    -7.831      2.587      3.694
REMARK INTER + INTRA:         -10.864
REMARK INTER:                 -10.024
REMARK INTRA:                  -0.840
REMARK UNBOUND:                -0.744
REMARK  Name = 
REMARK  5 active torsions:
REMARK  status: ('A' for Active; 'I' for Inactive)
REMARK    1  A    between atoms: C_2  and  C_3
REMARK    2  A    between atoms: C_6  and  N_7
REMARK    3  A    between atoms: N_7  and  C_8
REMARK    4  A    between atoms: C_8  and  C_9
REMARK    5  A    between atoms: C_13  and  C_14
REMARK                            x       y       z     vdW  Elec       q    Type
REMARK                         _______ _______ _______ _____ _____    ______ ____
ROOT
ATOM      1  C   UNL     1      43.981   4.813  11.503  0.00  0.00    +0.000 C 
ATOM      2  C   UNL     1      43.062   3.670  11.905  0.00  0.00    +0.000 C 
ATOM      3  C   UNL     1      42.635   5.068  12.185  0.00  0.00    +0.000 C 
ENDROOT
BRANCH   1   4
ATOM      4  C   UNL     1      45.136   5.274  12.389  0.00  0.00    +0.000 A 
ATOM      5  C   UNL     1      45.760   4.375  13.272  0.00  0.00    +0.000 A 
ATOM      6  C   UNL     1      46.991   4.669  13.851  0.00  0.00    +0.000 A 
ATOM      7  C   UNL     1      47.616   5.881  13.566  0.00  0.00    +0.000 A 
ATOM      8  C   UNL     1      46.996   6.841  12.750  0.00  0.00    +0.000 A 
ATOM      9  C   UNL     1      45.733   6.532  12.214  0.00  0.00    +0.000 A 
BRANCH   8  10
ATOM     10  C   UNL     1      47.678   8.084  12.367  0.00  0.00    +0.000 A 
ATOM     11  C   UNL     1      48.841   8.101  11.614  0.00  0.00    +0.000 A 
ATOM     12  N   UNL     1      49.478   9.219  11.203  0.00  0.00    +0.000 NA
ATOM     13  C   UNL     1      48.904  10.375  11.560  0.00  0.00    +0.000 A 
ATOM     14  N   UNL     1      47.778  10.505  12.275  0.00  0.00    +0.000 NA
ATOM     15  C   UNL     1      47.195   9.349  12.663  0.00  0.00    +0.000 A 
ENDBRANCH   8  10
ENDBRANCH   1   4
BRANCH   1  16
ATOM     16  N   UNL     1      44.154   5.086  10.071  0.00  0.00    +0.000 N 
ATOM     17  H   UNL     1      43.438   5.624   9.594  0.00  0.00    +0.000 HD
BRANCH  16  21
ATOM     18  C   UNL     1      46.732   2.844   7.565  0.00  0.00    +0.000 A 
ATOM     19  C   UNL     1      45.835   2.178   8.399  0.00  0.00    +0.000 A 
ATOM     20  C   UNL     1      44.975   2.909   9.230  0.00  0.00    +0.000 A 
ATOM     21  C   UNL     1      44.959   4.307   9.215  0.00  0.00    +0.000 A 
ATOM     22  C   UNL     1      45.877   4.963   8.380  0.00  0.00    +0.000 A 
ATOM     23  C   UNL     1      46.761   4.238   7.565  0.00  0.00    +0.000 A 
BRANCH  18  25
ATOM     24  N   UNL     1      48.356   1.495   6.055  0.00  0.00    +0.000 NA
ATOM     25  C   UNL     1      47.630   2.098   6.731  0.00  0.00    +0.000 C 
ENDBRANCH  18  25
ENDBRANCH  16  21
ENDBRANCH   1  16
TORSDOF 5
ENDMDL
MODEL 3
REMARK VINA RESULT:    -6.439      1.471      2.293
REMARK INTER + INTRA:          -9.065
REMARK INTER:                  -9.165
REMARK INTRA:                   0.101
REMARK UNBOUND:                -0.744
REMARK  Name = 
REMARK  5 active torsions:
REMARK  status: ('A' for Active; 'I' for Inactive)
REMARK    1  A    between atoms: C_2  and  C_3
REMARK    2  A    between atoms: C_6  and  N_7
REMARK    3  A    between atoms: N_7  and  C_8
REMARK    4  A    between atoms: C_8  and  C_9
REMARK    5  A    between atoms: C_13  and  C_14
REMARK                            x       y       z     vdW  Elec       q    Type
REMARK                         _______ _______ _______ _____ _____    ______ ____
ROOT
ATOM      1  C   UNL     1      44.149   5.174  11.964  0.00  0.00    +0.000 C 
ATOM      2  C   UNL     1      42.854   5.176  12.761  0.00  0.00    +0.000 C 
ATOM      3  C   UNL     1      42.865   5.791  11.406  0.00  0.00    +0.000 C 
ENDROOT
BRANCH   1   4
ATOM      4  C   UNL     1      45.224   6.240  12.162  0.00  0.00    +0.000 A 
ATOM      5  C   UNL     1      45.000   7.564  11.744  0.00  0.00    +0.000 A 
ATOM      6  C   UNL     1      45.812   8.606  12.183  0.00  0.00    +0.000 A 
ATOM      7  C   UNL     1      46.877   8.338  13.040  0.00  0.00    +0.000 A 
ATOM      8  C   UNL     1      47.185   7.022  13.423  0.00  0.00    +0.000 A 
ATOM      9  C   UNL     1      46.371   5.987  12.929  0.00  0.00    +0.000 A 
BRANCH   8  10
ATOM     10  C   UNL     1      48.246   6.730  14.395  0.00  0.00    +0.000 A 
ATOM     11  C   UNL     1      49.447   7.423  14.426  0.00  0.00    +0.000 A 
ATOM     12  N   UNL     1      50.431   7.219  15.327  0.00  0.00    +0.000 NA
ATOM     13  C   UNL     1      50.186   6.278  16.248  0.00  0.00    +0.000 A 
ATOM     14  N   UNL     1      49.069   5.542  16.341  0.00  0.00    +0.000 NA
ATOM     15  C   UNL     1      48.126   5.790  15.405  0.00  0.00    +0.000 A 
ENDBRANCH   8  10
ENDBRANCH   1   4
BRANCH   1  16
ATOM     16  N   UNL     1      44.641   3.888  11.454  0.00  0.00    +0.000 N 
ATOM     17  H   UNL     1      44.917   3.179  12.125  0.00  0.00    +0.000 HD
BRANCH  16  21
ATOM     18  C   UNL     1      46.121   3.255   7.535  0.00  0.00    +0.000 A 
ATOM     19  C   UNL     1      46.101   4.545   8.061  0.00  0.00    +0.000 A 
ATOM     20  C   UNL     1      45.617   4.766   9.358  0.00  0.00    +0.000 A 
ATOM     21  C   UNL     1      45.189   3.710  10.168  0.00  0.00    +0.000 A 
ATOM     22  C   UNL     1      45.201   2.418   9.619  0.00  0.00    +0.000 A 
ATOM     23  C   UNL     1      45.660   2.192   8.311  0.00  0.00    +0.000 A 
BRANCH  18  25
ATOM     24  N   UNL     1      46.977   2.845   5.119  0.00  0.00    +0.000 NA
ATOM     25  C   UNL     1      46.594   3.028   6.200  0.00  0.00    +0.000 C 
ENDBRANCH  18  25
ENDBRANCH  16  21
ENDBRANCH   1  16
TORSDOF 5
ENDMDL
MODEL 4
REMARK VINA RESULT:    -6.269      2.723      6.927
REMARK INTER + INTRA:          -8.845
REMARK INTER:                  -8.149
REMARK INTRA:                  -0.696
REMARK UNBOUND:                -0.744
REMARK  Name = 
REMARK  5 active torsions:
REMARK  status: ('A' for Active; 'I' for Inactive)
REMARK    1  A    between atoms: C_2  and  C_3
REMARK    2  A    between atoms: C_6  and  N_7
REMARK    3  A    between atoms: N_7  and  C_8
REMARK    4  A    between atoms: C_8  and  C_9
REMARK    5  A    between atoms: C_13  and  C_14
REMARK                            x       y       z     vdW  Elec       q    Type
REMARK                         _______ _______ _______ _____ _____    ______ ____
ROOT
ATOM      1  C   UNL     1      43.890   6.152  11.857  0.00  0.00    +0.000 C 
ATOM      2  C   UNL     1      43.327   7.176  10.886  0.00  0.00    +0.000 C 
ATOM      3  C   UNL     1      42.395   6.472  11.808  0.00  0.00    +0.000 C 
ENDROOT
BRANCH   1   4
ATOM      4  C   UNL     1      44.150   4.704  11.448  0.00  0.00    +0.000 A 
ATOM      5  C   UNL     1      43.394   3.659  12.007  0.00  0.00    +0.000 A 
ATOM      6  C   UNL     1      43.388   2.388  11.439  0.00  0.00    +0.000 A 
ATOM      7  C   UNL     1      44.154   2.137  10.302  0.00  0.00    +0.000 A 
ATOM      8  C   UNL     1      44.983   3.129   9.753  0.00  0.00    +0.000 A 
ATOM      9  C   UNL     1      44.999   4.390  10.376  0.00  0.00    +0.000 A 
BRANCH   8  10
ATOM     10  C   UNL     1      45.726   2.909   8.506  0.00  0.00    +0.000 A 
ATOM     11  C   UNL     1      46.248   1.675   8.150  0.00  0.00    +0.000 A 
ATOM     12  N   UNL     1      46.899   1.417   6.996  0.00  0.00    +0.000 NA
ATOM     13  C   UNL     1      47.018   2.453   6.156  0.00  0.00    +0.000 A 
ATOM     14  N   UNL     1      46.554   3.692   6.366  0.00  0.00    +0.000 NA
ATOM     15  C   UNL     1      45.920   3.887   7.544  0.00  0.00    +0.000 A 
ENDBRANCH   8  10
ENDBRANCH   1   4
BRANCH   1  16
ATOM     16  N   UNL     1      44.721   6.639  12.966  0.00  0.00    +0.000 N 
ATOM     17  H   UNL     1      44.256   7.010  13.788  0.00  0.00    +0.000 HD
BRANCH  16  21
ATOM     18  C   UNL     1      48.774   7.741  12.410  0.00  0.00    +0.000 A 
ATOM     19  C   UNL     1      47.769   8.677  12.171  0.00  0.00    +0.000 A 
ATOM     20  C   UNL     1      46.425   8.324  12.354  0.00  0.00    +0.000 A 
ATOM     21  C   UNL     1      46.059   7.058  12.820  0.00  0.00    +0.000 A 
ATOM     22  C   UNL     1      47.081   6.122  13.043  0.00  0.00    +0.000 A 
ATOM     23  C   UNL     1      48.428   6.458  12.836  0.00  0.00    +0.000 A 
BRANCH  18  25
ATOM     24  N   UNL     1      51.263   8.374  12.032  0.00  0.00    +0.000 NA
ATOM     25  C   UNL     1      50.150   8.090  12.201  0.00  0.00    +0.000 C 
ENDBRANCH  18  25
ENDBRANCH  16  21
ENDBRANCH   1  16
TORSDOF 5
ENDMDL
MODEL 5
REMARK VINA RESULT:    -6.134      1.646      7.911
REMARK INTER + INTRA:          -8.671
REMARK INTER:                  -8.393
REMARK INTRA:                  -0.279
REMARK UNBOUND:                -0.744
REMARK  Name = 
REMARK  5 active torsions:
REMARK  status: ('A' for Active; 'I' for Inactive)
REMARK    1  A    between atoms: C_2  and  C_3
REMARK    2  A    between atoms: C_6  and  N_7
REMARK    3  A    between atoms: N_7  and  C_8
REMARK    4  A    between atoms: C_8  and  C_9
REMARK    5  A    between atoms: C_13  and  C_14
REMARK                            x       y       z     vdW  Elec       q    Type
REMARK                         _______ _______ _______ _____ _____    ______ ____
ROOT
ATOM      1  C   UNL     1      46.348   5.148  13.655  0.00  0.00    +0.000 C 
ATOM      2  C   UNL     1      47.570   5.881  13.124  0.00  0.00    +0.000 C 
ATOM      3  C   UNL     1      46.300   6.635  13.300  0.00  0.00    +0.000 C 
ENDROOT
BRANCH   1   4
ATOM      4  C   UNL     1      45.427   4.341  12.742  0.00  0.00    +0.000 A 
ATOM      5  C   UNL     1      44.053   4.241  13.024  0.00  0.00    +0.000 A 
ATOM      6  C   UNL     1      43.150   3.788  12.066  0.00  0.00    +0.000 A 
ATOM      7  C   UNL     1      43.612   3.412  10.806  0.00  0.00    +0.000 A 
ATOM      8  C   UNL     1      44.984   3.423  10.504  0.00  0.00    +0.000 A 
ATOM      9  C   UNL     1      45.874   3.845  11.508  0.00  0.00    +0.000 A 
BRANCH   8  10
ATOM     10  C   UNL     1      45.479   3.116   9.157  0.00  0.00    +0.000 A 
ATOM     11  C   UNL     1      45.698   4.091   8.196  0.00  0.00    +0.000 A 
ATOM     12  N   UNL     1      46.193   3.860   6.961  0.00  0.00    +0.000 NA
ATOM     13  C   UNL     1      46.491   2.583   6.688  0.00  0.00    +0.000 A 
ATOM     14  N   UNL     1      46.341   1.545   7.523  0.00  0.00    +0.000 NA
ATOM     15  C   UNL     1      45.833   1.843   8.740  0.00  0.00    +0.000 A 
ENDBRANCH   8  10
ENDBRANCH   1   4
BRANCH   1  16
ATOM     16  N   UNL     1      46.361   4.715  15.058  0.00  0.00    +0.000 N 
ATOM     17  H   UNL     1      45.546   4.914  15.629  0.00  0.00    +0.000 HD
BRANCH  16  21
ATOM     18  C   UNL     1      49.829   4.102  17.411  0.00  0.00    +0.000 A 
ATOM     19  C   UNL     1      49.106   3.001  16.956  0.00  0.00    +0.000 A 
ATOM     20  C   UNL     1      47.958   3.192  16.174  0.00  0.00    +0.000 A 
ATOM     21  C   UNL     1      47.537   4.470  15.794  0.00  0.00    +0.000 A 
ATOM     22  C   UNL     1      48.268   5.569  16.272  0.00  0.00    +0.000 A 
ATOM     23  C   UNL     1      49.403   5.387  17.078  0.00  0.00    +0.000 A 
BRANCH  18  25
ATOM     24  N   UNL     1      51.930   3.757  18.897  0.00  0.00    +0.000 NA
ATOM     25  C   UNL     1      50.991   3.911  18.232  0.00  0.00    +0.000 C 
ENDBRANCH  18  25
ENDBRANCH  16  21
ENDBRANCH   1  16
TORSDOF 5
ENDMDL
MODEL 6
REMARK VINA RESULT:    -6.017      2.789      4.677
REMARK INTER + INTRA:          -8.521
REMARK INTER:                  -7.952
REMARK INTRA:                  -0.569
REMARK UNBOUND:                -0.744
REMARK  Name = 
REMARK  5 active torsions:
REMARK  status: ('A' for Active; 'I' for Inactive)
REMARK    1  A    between atoms: C_2  and  C_3
REMARK    2  A    between atoms: C_6  and  N_7
REMARK    3  A    between atoms: N_7  and  C_8
REMARK    4  A    between atoms: C_8  and  C_9
REMARK    5  A    between atoms: C_13  and  C_14
REMARK                            x       y       z     vdW  Elec       q    Type
REMARK                         _______ _______ _______ _____ _____    ______ ____
ROOT
ATOM      1  C   UNL     1      48.153   8.060  12.557  0.00  0.00    +0.000 C 
ATOM      2  C   UNL     1      48.928   8.894  11.550  0.00  0.00    +0.000 C 
ATOM      3  C   UNL     1      49.096   7.416  11.540  0.00  0.00    +0.000 C 
ENDROOT
BRANCH   1   4
ATOM      4  C   UNL     1      48.655   7.837  13.982  0.00  0.00    +0.000 A 
ATOM      5  C   UNL     1      49.059   8.926  14.773  0.00  0.00    +0.000 A 
ATOM      6  C   UNL     1      49.220   8.798  16.150  0.00  0.00    +0.000 A 
ATOM      7  C   UNL     1      48.990   7.566  16.760  0.00  0.00    +0.000 A 
ATOM      8  C   UNL     1      48.658   6.432  16.000  0.00  0.00    +0.000 A 
ATOM      9  C   UNL     1      48.545   6.585  14.607  0.00  0.00    +0.000 A 
BRANCH   8  10
ATOM     10  C   UNL     1      48.326   5.150  16.634  0.00  0.00    +0.000 A 
ATOM     11  C   UNL     1      49.102   4.583  17.633  0.00  0.00    +0.000 A 
ATOM     12  N   UNL     1      48.813   3.429  18.273  0.00  0.00    +0.000 NA
ATOM     13  C   UNL     1      47.678   2.828  17.894  0.00  0.00    +0.000 A 
ATOM     14  N   UNL     1      46.831   3.269  16.954  0.00  0.00    +0.000 NA
ATOM     15  C   UNL     1      47.182   4.424  16.346  0.00  0.00    +0.000 A 
ENDBRANCH   8  10
ENDBRANCH   1   4
BRANCH   1  16
ATOM     16  N   UNL     1      46.697   7.959  12.392  0.00  0.00    +0.000 N 
ATOM     17  H   UNL     1      46.118   8.699  12.775  0.00  0.00    +0.000 HD
BRANCH  16  21
ATOM     18  C   UNL     1      44.488   4.389  11.821  0.00  0.00    +0.000 A 
ATOM     19  C   UNL     1      45.042   5.037  10.718  0.00  0.00    +0.000 A 
ATOM     20  C   UNL     1      45.778   6.217  10.895  0.00  0.00    +0.000 A 
ATOM     21  C   UNL     1      46.014   6.747  12.168  0.00  0.00    +0.000 A 
ATOM     22  C   UNL     1      45.437   6.091  13.267  0.00  0.00    +0.000 A 
ATOM     23  C   UNL     1      44.676   4.923  13.095  0.00  0.00    +0.000 A 
BRANCH  18  25
ATOM     24  N   UNL     1      43.088   2.228  11.496  0.00  0.00    +0.000 NA
ATOM     25  C   UNL     1      43.715   3.194  11.641  0.00  0.00    +0.000 C 
ENDBRANCH  18  25
ENDBRANCH  16  21
ENDBRANCH   1  16
TORSDOF 5
ENDMDL
MODEL 7
REMARK VINA RESULT:    -5.987      1.818      7.471
REMARK INTER + INTRA:          -8.481
REMARK INTER:                  -8.490
REMARK INTRA:                   0.008
REMARK UNBOUND:                -0.744
REMARK  Name = 
REMARK  5 active torsions:
REMARK  status: ('A' for Active; 'I' for Inactive)
REMARK    1  A    between atoms: C_2  and  C_3
REMARK    2  A    between atoms: C_6  and  N_7
REMARK    3  A    between atoms: N_7  and  C_8
REMARK    4  A    between atoms: C_8  and  C_9
REMARK    5  A    between atoms: C_13  and  C_14
REMARK                            x       y       z     vdW  Elec       q    Type
REMARK                         _______ _______ _______ _____ _____    ______ ____
ROOT
ATOM      1  C   UNL     1      46.374   7.456  12.352  0.00  0.00    +0.000 C 
ATOM      2  C   UNL     1      46.325   8.905  11.895  0.00  0.00    +0.000 C 
ATOM      3  C   UNL     1      45.634   8.526  13.157  0.00  0.00    +0.000 C 
ENDROOT
BRANCH   1   4
ATOM      4  C   UNL     1      45.402   6.405  11.820  0.00  0.00    +0.000 A 
ATOM      5  C   UNL     1      44.018   6.551  12.016  0.00  0.00    +0.000 A 
ATOM      6  C   UNL     1      43.102   5.795  11.290  0.00  0.00    +0.000 A 
ATOM      7  C   UNL     1      43.560   4.864  10.359  0.00  0.00    +0.000 A 
ATOM      8  C   UNL     1      44.934   4.631  10.184  0.00  0.00    +0.000 A 
ATOM      9  C   UNL     1      45.832   5.380  10.963  0.00  0.00    +0.000 A 
BRANCH   8  10
ATOM     10  C   UNL     1      45.434   3.720   9.147  0.00  0.00    +0.000 A 
ATOM     11  C   UNL     1      46.067   4.166   7.997  0.00  0.00    +0.000 A 
ATOM     12  N   UNL     1      46.581   3.365   7.039  0.00  0.00    +0.000 NA
ATOM     13  C   UNL     1      46.461   2.050   7.260  0.00  0.00    +0.000 A 
ATOM     14  N   UNL     1      45.885   1.482   8.329  0.00  0.00    +0.000 NA
ATOM     15  C   UNL     1      45.383   2.339   9.247  0.00  0.00    +0.000 A 
ENDBRANCH   8  10
ENDBRANCH   1   4
BRANCH   1  16
ATOM     16  N   UNL     1      47.660   6.926  12.822  0.00  0.00    +0.000 N 
ATOM     17  H   UNL     1      48.391   6.762  12.138  0.00  0.00    +0.000 HD
BRANCH  16  21
ATOM     18  C   UNL     1      48.100   4.935  16.536  0.00  0.00    +0.000 A 
ATOM     19  C   UNL     1      47.279   4.383  15.555  0.00  0.00    +0.000 A 
ATOM     20  C   UNL     1      47.128   5.031  14.321  0.00  0.00    +0.000 A 
ATOM     21  C   UNL     1      47.822   6.208  14.025  0.00  0.00    +0.000 A 
ATOM     22  C   UNL     1      48.634   6.759  15.028  0.00  0.00    +0.000 A 
ATOM     23  C   UNL     1      48.770   6.131  16.276  0.00  0.00    +0.000 A 
BRANCH  18  25
ATOM     24  N   UNL     1      48.351   3.762  18.839  0.00  0.00    +0.000 NA
ATOM     25  C   UNL     1      48.238   4.287  17.809  0.00  0.00    +0.000 C 
ENDBRANCH  18  25
ENDBRANCH  16  21
ENDBRANCH   1  16
TORSDOF 5
ENDMDL
MODEL 8
REMARK VINA RESULT:    -5.926      2.997      7.629
REMARK INTER + INTRA:          -8.403
REMARK INTER:                  -7.378
REMARK INTRA:                  -1.025
REMARK UNBOUND:                -0.744
REMARK  Name = 
REMARK  5 active torsions:
REMARK  status: ('A' for Active; 'I' for Inactive)
REMARK    1  A    between atoms: C_2  and  C_3
REMARK    2  A    between atoms: C_6  and  N_7
REMARK    3  A    between atoms: N_7  and  C_8
REMARK    4  A    between atoms: C_8  and  C_9
REMARK    5  A    between atoms: C_13  and  C_14
REMARK                            x       y       z     vdW  Elec       q    Type
REMARK                         _______ _______ _______ _____ _____    ______ ____
ROOT
ATOM      1  C   UNL     1      48.712   8.222  16.397  0.00  0.00    +0.000 C 
ATOM      2  C   UNL     1      49.675   9.270  16.932  0.00  0.00    +0.000 C 
ATOM      3  C   UNL     1      48.263   9.659  16.669  0.00  0.00    +0.000 C 
ENDROOT
BRANCH   1   4
ATOM      4  C   UNL     1      48.617   7.895  14.908  0.00  0.00    +0.000 A 
ATOM      5  C   UNL     1      49.659   8.249  14.033  0.00  0.00    +0.000 A 
ATOM      6  C   UNL     1      49.747   7.700  12.756  0.00  0.00    +0.000 A 
ATOM      7  C   UNL     1      48.780   6.793  12.327  0.00  0.00    +0.000 A 
ATOM      8  C   UNL     1      47.681   6.467  13.138  0.00  0.00    +0.000 A 
ATOM      9  C   UNL     1      47.598   7.071  14.406  0.00  0.00    +0.000 A 
BRANCH   8  10
ATOM     10  C   UNL     1      46.704   5.448  12.738  0.00  0.00    +0.000 A 
ATOM     11  C   UNL     1      45.873   5.594  11.638  0.00  0.00    +0.000 A 
ATOM     12  N   UNL     1      44.991   4.666  11.208  0.00  0.00    +0.000 NA
ATOM     13  C   UNL     1      44.956   3.531  11.917  0.00  0.00    +0.000 A 
ATOM     14  N   UNL     1      45.707   3.252  12.992  0.00  0.00    +0.000 NA
ATOM     15  C   UNL     1      46.563   4.225  13.375  0.00  0.00    +0.000 A 
ENDBRANCH   8  10
ENDBRANCH   1   4
BRANCH   1  16
ATOM     16  N   UNL     1      48.311   7.132  17.295  0.00  0.00    +0.000 N 
ATOM     17  H   UNL     1      47.767   7.365  18.120  0.00  0.00    +0.000 HD
BRANCH  16  21
ATOM     18  C   UNL     1      50.224   3.352  17.360  0.00  0.00    +0.000 A 
ATOM     19  C   UNL     1      50.988   4.511  17.486  0.00  0.00    +0.000 A 
ATOM     20  C   UNL     1      50.366   5.767  17.469  0.00  0.00    +0.000 A 
ATOM     21  C   UNL     1      48.977   5.893  17.373  0.00  0.00    +0.000 A 
ATOM     22  C   UNL     1      48.222   4.718  17.233  0.00  0.00    +0.000 A 
ATOM     23  C   UNL     1      48.840   3.457  17.221  0.00  0.00    +0.000 A 
BRANCH  18  25
ATOM     24  N   UNL     1      51.372   1.024  17.346  0.00  0.00    +0.000 NA
ATOM     25  C   UNL     1      50.859   2.066  17.353  0.00  0.00    +0.000 C 
ENDBRANCH  18  25
ENDBRANCH  16  21
ENDBRANCH   1  16
TORSDOF 5
ENDMDL
MODEL 9
REMARK VINA RESULT:    -5.820      2.288      7.967
REMARK INTER + INTRA:          -8.266
REMARK INTER:                  -7.521
REMARK INTRA:                  -0.745
REMARK UNBOUND:                -0.744
REMARK  Name = 
REMARK  5 active torsions:
REMARK  status: ('A' for Active; 'I' for Inactive)
REMARK    1  A    between atoms: C_2  and  C_3
REMARK    2  A    between atoms: C_6  and  N_7
REMARK    3  A    between atoms: N_7  and  C_8
REMARK    4  A    between atoms: C_8  and  C_9
REMARK    5  A    between atoms: C_13  and  C_14
REMARK                            x       y       z     vdW  Elec       q    Type
REMARK                         _______ _______ _______ _____ _____    ______ ____
ROOT
ATOM      1  C   UNL     1      48.654   7.988  12.775  0.00  0.00    +0.000 C 
ATOM      2  C   UNL     1      49.794   7.404  11.956  0.00  0.00    +0.000 C 
ATOM      3  C   UNL     1      49.264   8.747  11.595  0.00  0.00    +0.000 C 
ENDROOT
BRANCH   1   4
ATOM      4  C   UNL     1      47.194   7.636  12.498  0.00  0.00    +0.000 A 
ATOM      5  C   UNL     1      46.174   8.568  12.760  0.00  0.00    +0.000 A 
ATOM      6  C   UNL     1      44.894   8.404  12.238  0.00  0.00    +0.000 A 
ATOM      7  C   UNL     1      44.607   7.289  11.452  0.00  0.00    +0.000 A 
ATOM      8  C   UNL     1      45.573   6.294  11.227  0.00  0.00    +0.000 A 
ATOM      9  C   UNL     1      46.843   6.469  11.803  0.00  0.00    +0.000 A 
BRANCH   8  10
ATOM     10  C   UNL     1      45.316   5.160  10.330  0.00  0.00    +0.000 A 
ATOM     11  C   UNL     1      45.716   5.147   9.003  0.00  0.00    +0.000 A 
ATOM     12  N   UNL     1      45.540   4.111   8.154  0.00  0.00    +0.000 NA
ATOM     13  C   UNL     1      44.943   3.032   8.677  0.00  0.00    +0.000 A 
ATOM     14  N   UNL     1      44.516   2.905   9.941  0.00  0.00    +0.000 NA
ATOM     15  C   UNL     1      44.714   3.980  10.736  0.00  0.00    +0.000 A 
ENDBRANCH   8  10
ENDBRANCH   1   4
BRANCH   1  16
ATOM     16  N   UNL     1      48.939   8.401  14.155  0.00  0.00    +0.000 N 
ATOM     17  H   UNL     1      49.074   9.389  14.343  0.00  0.00    +0.000 HD
BRANCH  16  21
ATOM     18  C   UNL     1      50.506   5.678  16.997  0.00  0.00    +0.000 A 
ATOM     19  C   UNL     1      51.347   6.627  16.419  0.00  0.00    +0.000 A 
ATOM     20  C   UNL     1      50.839   7.535  15.480  0.00  0.00    +0.000 A 
ATOM     21  C   UNL     1      49.484   7.547  15.134  0.00  0.00    +0.000 A 
ATOM     22  C   UNL     1      48.653   6.576  15.713  0.00  0.00    +0.000 A 
ATOM     23  C   UNL     1      49.159   5.645  16.635  0.00  0.00    +0.000 A 
BRANCH  18  25
ATOM     24  N   UNL     1      51.450   3.965  18.704  0.00  0.00    +0.000 NA
ATOM     25  C   UNL     1      51.027   4.731  17.941  0.00  0.00    +0.000 C 
ENDBRANCH  18  25
ENDBRANCH  16  21
ENDBRANCH   1  16
TORSDOF 5
ENDMDL
