MODEL 1
REMARK VINA RESULT:    -8.947      0.000      0.000
REMARK INTER + INTRA:         -12.060
REMARK INTER:                 -11.562
REMARK INTRA:                  -0.499
REMARK UNBOUND:                -0.499
REMARK  Name = 
REMARK  5 active torsions:
REMARK  status: ('A' for Active; 'I' for Inactive)
REMARK    1  A    between atoms: C_8  and  C_9
REMARK    2  A    between atoms: N_11  and  C_12
REMARK    3  A    between atoms: C_12  and  C_13
REMARK    4  A    between atoms: C_16  and  O_17
REMARK    5  A    between atoms: O_17  and  C_18
REMARK                            x       y       z     vdW  Elec       q    Type
REMARK                         _______ _______ _______ _____ _____    ______ ____
ROOT
ATOM      1  C   UNL     1      47.805   6.788  13.735  0.00  0.00    +0.000 C 
ATOM      2  O   UNL     1      48.513   7.055  12.768  0.00  0.00    +0.000 OA
ATOM      3  N   UNL     1      46.440   6.882  13.661  0.00  0.00    +0.000 N 
ATOM      4  H   UNL     1      45.858   6.689  14.473  0.00  0.00    +0.000 HD
ENDROOT
BRANCH   1  12
ATOM      5  N   UNL     1      49.824   4.005  18.996  0.00  0.00    +0.000 N 
ATOM      6  C   UNL     1      48.954   4.103  17.946  0.00  0.00    +0.000 A 
ATOM      7  N   UNL     1      48.048   3.162  17.836  0.00  0.00    +0.000 NA
ATOM      8  N   UNL     1      47.174   3.206  16.773  0.00  0.00    +0.000 N 
ATOM      9  C   UNL     1      47.146   4.146  15.758  0.00  0.00    +0.000 A 
ATOM     10  O   UNL     1      46.332   4.066  14.842  0.00  0.00    +0.000 OA
ATOM     11  C   UNL     1      48.128   5.212  15.870  0.00  0.00    +0.000 A 
ATOM     12  C   UNL     1      48.403   6.350  15.014  0.00  0.00    +0.000 A 
ATOM     13  C   UNL     1      49.435   7.102  15.568  0.00  0.00    +0.000 A 
ATOM     14  S   UNL     1      50.058   6.463  17.023  0.00  0.00    +0.000 S 
ATOM     15  C   UNL     1      48.977   5.164  16.956  0.00  0.00    +0.000 A 
ATOM     16  H   UNL     1      49.524   3.379  19.733  0.00  0.00    +0.000 HD
ATOM     17  H   UNL     1      50.295   4.848  19.297  0.00  0.00    +0.000 HD
ATOM     18  H   UNL     1      46.507   2.444  16.710  0.00  0.00    +0.000 HD
ENDBRANCH   1  12
BRANCH   3  19
ATOM     19  C   UNL     1      45.773   7.291  12.443  0.00  0.00    +0.000 C 
BRANCH  19  20
ATOM     20  C   UNL     1      45.396   6.117  11.583  0.00  0.00    +0.000 A 
ATOM     21  C   UNL     1      44.517   5.137  12.071  0.00  0.00    +0.000 A 
ATOM     22  C   UNL     1      44.163   4.039  11.280  0.00  0.00    +0.000 A 
ATOM     23  C   UNL     1      44.650   3.920   9.978  0.00  0.00    +0.000 A 
ATOM     24  C   UNL     1      45.549   4.872   9.493  0.00  0.00    +0.000 A 
ATOM     25  C   UNL     1      45.920   5.963  10.290  0.00  0.00    +0.000 A 
BRANCH  23  26
ATOM     26  O   UNL     1      44.369   2.858   9.145  0.00  0.00    +0.000 OA
BRANCH  26  27
ATOM     27  C   UNL     1      45.360   2.418   8.273  0.00  0.00    +0.000 A 
ATOM     28  C   UNL     1      45.630   3.229   7.179  0.00  0.00    +0.000 A 
ATOM     29  C   UNL     1      46.627   2.830   6.291  0.00  0.00    +0.000 A 
ATOM     30  C   UNL     1      47.310   1.641   6.524  0.00  0.00    +0.000 A 
ATOM     31  C   UNL     1      46.953   0.886   7.627  0.00  0.00    +0.000 A 
ATOM     32  N   UNL     1      45.984   1.239   8.495  0.00  0.00    +0.000 NA
ENDBRANCH  26  27
ENDBRANCH  23  26
ENDBRANCH  19  20
ENDBRANCH   3  19
TORSDOF 5
ENDMDL
MODEL 2
REMARK VINA RESULT:    -8.319      3.450      4.370
REMARK INTER + INTRA:         -11.250
REMARK INTER:                 -10.257
REMARK INTRA:                  -0.993
REMARK UNBOUND:                -0.499
REMARK  Name = 
REMARK  5 active torsions:
REMARK  status: ('A' for Active; 'I' for Inactive)
REMARK    1  A    between atoms: C_8  and  C_9
REMARK    2  A    between atoms: N_11  and  C_12
REMARK    3  A    between atoms: C_12  and  C_13
REMARK    4  A    between atoms: C_16  and  O_17
REMARK    5  A    between atoms: O_17  and  C_18
REMARK                            x       y       z     vdW  Elec       q    Type
REMARK                         _______ _______ _______ _____ _____    ______ ____
ROOT
ATOM      1  C   UNL     1      45.844   8.335  12.221  0.00  0.00    +0.000 C 
ATOM      2  O   UNL     1      44.889   8.679  11.531  0.00  0.00    +0.000 OA
ATOM      3  N   UNL     1      45.766   7.243  13.043  0.00  0.00    +0.000 N 
ATOM      4  H   UNL     1      46.550   6.978  13.636  0.00  0.00    +0.000 HD
ENDROOT
BRANCH   1  12
ATOM      5  N   UNL     1      51.710  10.571  11.934  0.00  0.00    +0.000 N 
ATOM      6  C   UNL     1      50.821   9.550  12.124  0.00  0.00    +0.000 A 
ATOM      7  N   UNL     1      51.323   8.353  12.306  0.00  0.00    +0.000 NA
ATOM      8  N   UNL     1      50.460   7.291  12.468  0.00  0.00    +0.000 N 
ATOM      9  C   UNL     1      49.077   7.334  12.443  0.00  0.00    +0.000 A 
ATOM     10  O   UNL     1      48.409   6.311  12.573  0.00  0.00    +0.000 OA
ATOM     11  C   UNL     1      48.497   8.655  12.264  0.00  0.00    +0.000 A 
ATOM     12  C   UNL     1      47.116   9.088  12.182  0.00  0.00    +0.000 A 
ATOM     13  C   UNL     1      47.076  10.471  12.032  0.00  0.00    +0.000 A 
ATOM     14  S   UNL     1      48.615  11.208  11.965  0.00  0.00    +0.000 S 
ATOM     15  C   UNL     1      49.379   9.708  12.130  0.00  0.00    +0.000 A 
ATOM     16  H   UNL     1      52.659  10.360  12.217  0.00  0.00    +0.000 HD
ATOM     17  H   UNL     1      51.393  11.513  12.122  0.00  0.00    +0.000 HD
ATOM     18  H   UNL     1      50.889   6.379  12.578  0.00  0.00    +0.000 HD
ENDBRANCH   1  12
BRANCH   3  19
ATOM     19  C   UNL     1      44.562   6.444  13.131  0.00  0.00    +0.000 C 
BRANCH  19  20
ATOM     20  C   UNL     1      44.555   5.319  12.133  0.00  0.00    +0.000 A 
ATOM     21  C   UNL     1      43.752   5.400  10.983  0.00  0.00    +0.000 A 
ATOM     22  C   UNL     1      43.735   4.358  10.050  0.00  0.00    +0.000 A 
ATOM     23  C   UNL     1      44.546   3.237  10.230  0.00  0.00    +0.000 A 
ATOM     24  C   UNL     1      45.325   3.131  11.384  0.00  0.00    +0.000 A 
ATOM     25  C   UNL     1      45.330   4.165  12.330  0.00  0.00    +0.000 A 
BRANCH  23  26
ATOM     26  O   UNL     1      44.570   2.158   9.371  0.00  0.00    +0.000 OA
BRANCH  26  27
ATOM     27  C   UNL     1      45.568   2.102   8.403  0.00  0.00    +0.000 A 
ATOM     28  C   UNL     1      45.756   3.246   7.638  0.00  0.00    +0.000 A 
ATOM     29  C   UNL     1      46.758   3.234   6.669  0.00  0.00    +0.000 A 
ATOM     30  C   UNL     1      47.526   2.088   6.498  0.00  0.00    +0.000 A 
ATOM     31  C   UNL     1      47.248   0.988   7.290  0.00  0.00    +0.000 A 
ATOM     32  N   UNL     1      46.277   0.965   8.225  0.00  0.00    +0.000 NA
ENDBRANCH  26  27
ENDBRANCH  23  26
ENDBRANCH  19  20
ENDBRANCH   3  19
TORSDOF 5
ENDMDL
MODEL 3
REMARK VINA RESULT:    -8.186      1.476      2.106
REMARK INTER + INTRA:         -11.077
REMARK INTER:                 -10.273
REMARK INTRA:                  -0.804
REMARK UNBOUND:                -0.499
REMARK  Name = 
REMARK  5 active torsions:
REMARK  status: ('A' for Active; 'I' for Inactive)
REMARK    1  A    between atoms: C_8  and  C_9
REMARK    2  A    between atoms: N_11  and  C_12
REMARK    3  A    between atoms: C_12  and  C_13
REMARK    4  A    between atoms: C_16  and  O_17
REMARK    5  A    between atoms: O_17  and  C_18
REMARK                            x       y       z     vdW  Elec       q    Type
REMARK                         _______ _______ _______ _____ _____    ______ ____
ROOT
ATOM      1  C   UNL     1      48.785   7.261  15.059  0.00  0.00    +0.000 C 
ATOM      2  O   UNL     1      49.664   7.109  14.216  0.00  0.00    +0.000 OA
ATOM      3  N   UNL     1      47.616   7.906  14.754  0.00  0.00    +0.000 N 
ATOM      4  H   UNL     1      46.902   8.057  15.463  0.00  0.00    +0.000 HD
ENDROOT
BRANCH   1  12
ATOM      5  N   UNL     1      49.297   4.118  20.477  0.00  0.00    +0.000 N 
ATOM      6  C   UNL     1      48.865   4.222  19.183  0.00  0.00    +0.000 A 
ATOM      7  N   UNL     1      48.276   3.171  18.669  0.00  0.00    +0.000 NA
ATOM      8  N   UNL     1      47.856   3.223  17.358  0.00  0.00    +0.000 N 
ATOM      9  C   UNL     1      48.003   4.283  16.480  0.00  0.00    +0.000 A 
ATOM     10  O   UNL     1      47.610   4.203  15.319  0.00  0.00    +0.000 OA
ATOM     11  C   UNL     1      48.634   5.469  17.036  0.00  0.00    +0.000 A 
ATOM     12  C   UNL     1      48.958   6.748  16.434  0.00  0.00    +0.000 A 
ATOM     13  C   UNL     1      49.540   7.571  17.393  0.00  0.00    +0.000 A 
ATOM     14  S   UNL     1      49.714   6.840  18.926  0.00  0.00    +0.000 S 
ATOM     15  C   UNL     1      49.024   5.404  18.357  0.00  0.00    +0.000 A 
ATOM     16  H   UNL     1      48.888   3.351  20.996  0.00  0.00    +0.000 HD
ATOM     17  H   UNL     1      49.441   4.975  20.995  0.00  0.00    +0.000 HD
ATOM     18  H   UNL     1      47.430   2.379  16.990  0.00  0.00    +0.000 HD
ENDBRANCH   1  12
BRANCH   3  19
ATOM     19  C   UNL     1      47.361   8.429  13.428  0.00  0.00    +0.000 C 
BRANCH  19  20
ATOM     20  C   UNL     1      46.520   7.494  12.603  0.00  0.00    +0.000 A 
ATOM     21  C   UNL     1      45.413   7.982  11.891  0.00  0.00    +0.000 A 
ATOM     22  C   UNL     1      44.622   7.120  11.124  0.00  0.00    +0.000 A 
ATOM     23  C   UNL     1      44.944   5.766  11.026  0.00  0.00    +0.000 A 
ATOM     24  C   UNL     1      46.024   5.264  11.755  0.00  0.00    +0.000 A 
ATOM     25  C   UNL     1      46.807   6.121  12.539  0.00  0.00    +0.000 A 
BRANCH  23  26
ATOM     26  O   UNL     1      44.203   4.848  10.312  0.00  0.00    +0.000 OA
BRANCH  26  27
ATOM     27  C   UNL     1      44.866   4.008   9.422  0.00  0.00    +0.000 A 
ATOM     28  C   UNL     1      44.794   2.646   9.683  0.00  0.00    +0.000 A 
ATOM     29  C   UNL     1      45.432   1.772   8.805  0.00  0.00    +0.000 A 
ATOM     30  C   UNL     1      46.118   2.286   7.710  0.00  0.00    +0.000 A 
ATOM     31  C   UNL     1      46.157   3.659   7.547  0.00  0.00    +0.000 A 
ATOM     32  N   UNL     1      45.562   4.530   8.387  0.00  0.00    +0.000 NA
ENDBRANCH  26  27
ENDBRANCH  23  26
ENDBRANCH  19  20
ENDBRANCH   3  19
TORSDOF 5
ENDMDL
MODEL 4
REMARK VINA RESULT:    -8.113      3.972      8.554
REMARK INTER + INTRA:         -10.983
REMARK INTER:                 -10.235
REMARK INTRA:                  -0.748
REMARK UNBOUND:                -0.499
REMARK  Name = 
REMARK  5 active torsions:
REMARK  status: ('A' for Active; 'I' for Inactive)
REMARK    1  A    between atoms: C_8  and  C_9
REMARK    2  A    between atoms: N_11  and  C_12
REMARK    3  A    between atoms: C_12  and  C_13
REMARK    4  A    between atoms: C_16  and  O_17
REMARK    5  A    between atoms: O_17  and  C_18
REMARK                            x       y       z     vdW  Elec       q    Type
REMARK                         _______ _______ _______ _____ _____    ______ ____
ROOT
ATOM      1  C   UNL     1      48.234   6.275  14.662  0.00  0.00    +0.000 C 
ATOM      2  O   UNL     1      49.373   6.670  14.428  0.00  0.00    +0.000 OA
ATOM      3  N   UNL     1      47.873   5.859  15.916  0.00  0.00    +0.000 N 
ATOM      4  H   UNL     1      46.937   5.503  16.099  0.00  0.00    +0.000 HD
ENDROOT
BRANCH   1  12
ATOM      5  N   UNL     1      43.690   5.128  10.476  0.00  0.00    +0.000 N 
ATOM      6  C   UNL     1      44.626   4.707  11.379  0.00  0.00    +0.000 A 
ATOM      7  N   UNL     1      44.673   3.422  11.629  0.00  0.00    +0.000 NA
ATOM      8  N   UNL     1      45.580   2.961  12.558  0.00  0.00    +0.000 N 
ATOM      9  C   UNL     1      46.467   3.720  13.301  0.00  0.00    +0.000 A 
ATOM     10  O   UNL     1      47.213   3.198  14.125  0.00  0.00    +0.000 OA
ATOM     11  C   UNL     1      46.447   5.148  13.025  0.00  0.00    +0.000 A 
ATOM     12  C   UNL     1      47.211   6.240  13.596  0.00  0.00    +0.000 A 
ATOM     13  C   UNL     1      46.842   7.431  12.976  0.00  0.00    +0.000 A 
ATOM     14  S   UNL     1      45.625   7.251  11.792  0.00  0.00    +0.000 S 
ATOM     15  C   UNL     1      45.550   5.585  12.073  0.00  0.00    +0.000 A 
ATOM     16  H   UNL     1      43.311   4.393   9.890  0.00  0.00    +0.000 HD
ATOM     17  H   UNL     1      43.841   6.019  10.022  0.00  0.00    +0.000 HD
ATOM     18  H   UNL     1      45.565   1.963  12.742  0.00  0.00    +0.000 HD
ENDBRANCH   1  12
BRANCH   3  19
ATOM     19  C   UNL     1      48.811   5.872  17.019  0.00  0.00    +0.000 C 
BRANCH  19  20
ATOM     20  C   UNL     1      49.549   4.568  17.149  0.00  0.00    +0.000 A 
ATOM     21  C   UNL     1      50.927   4.560  17.419  0.00  0.00    +0.000 A 
ATOM     22  C   UNL     1      51.624   3.353  17.537  0.00  0.00    +0.000 A 
ATOM     23  C   UNL     1      50.952   2.136  17.425  0.00  0.00    +0.000 A 
ATOM     24  C   UNL     1      49.588   2.131  17.125  0.00  0.00    +0.000 A 
ATOM     25  C   UNL     1      48.891   3.339  16.988  0.00  0.00    +0.000 A 
BRANCH  23  26
ATOM     26  O   UNL     1      51.568   0.905  17.505  0.00  0.00    +0.000 OA
BRANCH  26  27
ATOM     27  C   UNL     1      52.946   0.864  17.696  0.00  0.00    +0.000 A 
ATOM     28  C   UNL     1      53.701   0.328  16.661  0.00  0.00    +0.000 A 
ATOM     29  C   UNL     1      55.085   0.284  16.808  0.00  0.00    +0.000 A 
ATOM     30  C   UNL     1      55.662   0.768  17.977  0.00  0.00    +0.000 A 
ATOM     31  C   UNL     1      54.826   1.260  18.965  0.00  0.00    +0.000 A 
ATOM     32  N   UNL     1      53.484   1.303  18.856  0.00  0.00    +0.000 NA
ENDBRANCH  26  27
ENDBRANCH  23  26
ENDBRANCH  19  20
ENDBRANCH   3  19
TORSDOF 5
ENDMDL
MODEL 5
REMARK VINA RESULT:    -7.836      2.148      2.850
REMARK INTER + INTRA:         -10.625
REMARK INTER:                  -9.688
REMARK INTRA:                  -0.937
REMARK UNBOUND:                -0.499
REMARK  Name = 
REMARK  5 active torsions:
REMARK  status: ('A' for Active; 'I' for Inactive)
REMARK    1  A    between atoms: C_8  and  C_9
REMARK    2  A    between atoms: N_11  and  C_12
REMARK    3  A    between atoms: C_12  and  C_13
REMARK    4  A    between atoms: C_16  and  O_17
REMARK    5  A    between atoms: O_17  and  C_18
REMARK                            x       y       z     vdW  Elec       q    Type
REMARK                         _______ _______ _______ _____ _____    ______ ____
ROOT
ATOM      1  C   UNL     1      49.020   6.497  16.413  0.00  0.00    +0.000 C 
ATOM      2  O   UNL     1      48.362   7.244  17.132  0.00  0.00    +0.000 OA
ATOM      3  N   UNL     1      48.897   6.538  15.049  0.00  0.00    +0.000 N 
ATOM      4  H   UNL     1      49.422   5.898  14.458  0.00  0.00    +0.000 HD
ENDROOT
BRANCH   1  12
ATOM      5  N   UNL     1      52.560   1.657  18.292  0.00  0.00    +0.000 N 
ATOM      6  C   UNL     1      51.426   2.168  17.723  0.00  0.00    +0.000 A 
ATOM      7  N   UNL     1      50.570   1.306  17.231  0.00  0.00    +0.000 NA
ATOM      8  N   UNL     1      49.430   1.781  16.620  0.00  0.00    +0.000 N 
ATOM      9  C   UNL     1      49.076   3.106  16.438  0.00  0.00    +0.000 A 
ATOM     10  O   UNL     1      48.042   3.410  15.850  0.00  0.00    +0.000 OA
ATOM     11  C   UNL     1      50.001   4.080  16.994  0.00  0.00    +0.000 A 
ATOM     12  C   UNL     1      49.973   5.530  16.997  0.00  0.00    +0.000 A 
ATOM     13  C   UNL     1      51.084   6.009  17.685  0.00  0.00    +0.000 A 
ATOM     14  S   UNL     1      52.119   4.786  18.273  0.00  0.00    +0.000 S 
ATOM     15  C   UNL     1      51.123   3.583  17.625  0.00  0.00    +0.000 A 
ATOM     16  H   UNL     1      52.508   0.672  18.521  0.00  0.00    +0.000 HD
ATOM     17  H   UNL     1      53.058   2.238  18.953  0.00  0.00    +0.000 HD
ATOM     18  H   UNL     1      48.808   1.082  16.228  0.00  0.00    +0.000 HD
ENDBRANCH   1  12
BRANCH   3  19
ATOM     19  C   UNL     1      47.996   7.464  14.397  0.00  0.00    +0.000 C 
BRANCH  19  20
ATOM     20  C   UNL     1      47.068   6.768  13.439  0.00  0.00    +0.000 A 
ATOM     21  C   UNL     1      46.850   5.385  13.545  0.00  0.00    +0.000 A 
ATOM     22  C   UNL     1      45.992   4.728  12.657  0.00  0.00    +0.000 A 
ATOM     23  C   UNL     1      45.310   5.445  11.673  0.00  0.00    +0.000 A 
ATOM     24  C   UNL     1      45.542   6.815  11.539  0.00  0.00    +0.000 A 
ATOM     25  C   UNL     1      46.415   7.473  12.415  0.00  0.00    +0.000 A 
BRANCH  23  26
ATOM     26  O   UNL     1      44.467   4.870  10.746  0.00  0.00    +0.000 OA
BRANCH  26  27
ATOM     27  C   UNL     1      45.026   4.120   9.715  0.00  0.00    +0.000 A 
ATOM     28  C   UNL     1      44.894   2.741   9.808  0.00  0.00    +0.000 A 
ATOM     29  C   UNL     1      45.427   1.957   8.787  0.00  0.00    +0.000 A 
ATOM     30  C   UNL     1      46.072   2.573   7.721  0.00  0.00    +0.000 A 
ATOM     31  C   UNL     1      46.177   3.953   7.728  0.00  0.00    +0.000 A 
ATOM     32  N   UNL     1      45.684   4.736   8.708  0.00  0.00    +0.000 NA
ENDBRANCH  26  27
ENDBRANCH  23  26
ENDBRANCH  19  20
ENDBRANCH   3  19
TORSDOF 5
ENDMDL
MODEL 6
REMARK VINA RESULT:    -7.618      3.723      8.183
REMARK INTER + INTRA:         -10.343
REMARK INTER:                  -9.405
REMARK INTRA:                  -0.938
REMARK UNBOUND:                -0.499
REMARK  Name = 
REMARK  5 active torsions:
REMARK  status: ('A' for Active; 'I' for Inactive)
REMARK    1  A    between atoms: C_8  and  C_9
REMARK    2  A    between atoms: N_11  and  C_12
REMARK    3  A    between atoms: C_12  and  C_13
REMARK    4  A    between atoms: C_16  and  O_17
REMARK    5  A    between atoms: O_17  and  C_18
REMARK                            x       y       z     vdW  Elec       q    Type
REMARK                         _______ _______ _______ _____ _____    ______ ____
ROOT
ATOM      1  C   UNL     1      47.955   6.932  13.347  0.00  0.00    +0.000 C 
ATOM      2  O   UNL     1      49.019   6.503  12.909  0.00  0.00    +0.000 OA
ATOM      3  N   UNL     1      47.926   7.845  14.367  0.00  0.00    +0.000 N 
ATOM      4  H   UNL     1      47.042   8.176  14.748  0.00  0.00    +0.000 HD
ENDROOT
BRANCH   1  12
ATOM      5  N   UNL     1      42.663   4.100  11.484  0.00  0.00    +0.000 N 
ATOM      6  C   UNL     1      43.927   4.064  12.005  0.00  0.00    +0.000 A 
ATOM      7  N   UNL     1      44.368   2.898  12.409  0.00  0.00    +0.000 NA
ATOM      8  N   UNL     1      45.624   2.824  12.971  0.00  0.00    +0.000 N 
ATOM      9  C   UNL     1      46.501   3.872  13.186  0.00  0.00    +0.000 A 
ATOM     10  O   UNL     1      47.589   3.688  13.723  0.00  0.00    +0.000 OA
ATOM     11  C   UNL     1      46.041   5.172  12.726  0.00  0.00    +0.000 A 
ATOM     12  C   UNL     1      46.666   6.480  12.781  0.00  0.00    +0.000 A 
ATOM     13  C   UNL     1      45.828   7.415  12.181  0.00  0.00    +0.000 A 
ATOM     14  S   UNL     1      44.359   6.764  11.605  0.00  0.00    +0.000 S 
ATOM     15  C   UNL     1      44.792   5.220  12.143  0.00  0.00    +0.000 A 
ATOM     16  H   UNL     1      42.295   3.197  11.211  0.00  0.00    +0.000 HD
ATOM     17  H   UNL     1      42.426   4.874  10.878  0.00  0.00    +0.000 HD
ATOM     18  H   UNL     1      45.915   1.908  13.296  0.00  0.00    +0.000 HD
ENDBRANCH   1  12
BRANCH   3  19
ATOM     19  C   UNL     1      49.142   8.348  14.969  0.00  0.00    +0.000 C 
BRANCH  19  20
ATOM     20  C   UNL     1      49.709   7.392  15.983  0.00  0.00    +0.000 A 
ATOM     21  C   UNL     1      51.057   7.004  15.911  0.00  0.00    +0.000 A 
ATOM     22  C   UNL     1      51.593   6.112  16.846  0.00  0.00    +0.000 A 
ATOM     23  C   UNL     1      50.804   5.622  17.888  0.00  0.00    +0.000 A 
ATOM     24  C   UNL     1      49.455   5.977  17.951  0.00  0.00    +0.000 A 
ATOM     25  C   UNL     1      48.910   6.856  17.005  0.00  0.00    +0.000 A 
BRANCH  23  26
ATOM     26  O   UNL     1      51.248   4.723  18.834  0.00  0.00    +0.000 OA
BRANCH  26  27
ATOM     27  C   UNL     1      51.689   3.474  18.408  0.00  0.00    +0.000 A 
ATOM     28  C   UNL     1      50.780   2.706  17.692  0.00  0.00    +0.000 A 
ATOM     29  C   UNL     1      51.189   1.456  17.234  0.00  0.00    +0.000 A 
ATOM     30  C   UNL     1      52.479   1.018  17.510  0.00  0.00    +0.000 A 
ATOM     31  C   UNL     1      53.306   1.842  18.252  0.00  0.00    +0.000 A 
ATOM     32  N   UNL     1      52.934   3.050  18.720  0.00  0.00    +0.000 NA
ENDBRANCH  26  27
ENDBRANCH  23  26
ENDBRANCH  19  20
ENDBRANCH   3  19
TORSDOF 5
ENDMDL
MODEL 7
REMARK VINA RESULT:    -7.285      2.248      3.216
REMARK INTER + INTRA:          -9.913
REMARK INTER:                  -9.264
REMARK INTRA:                  -0.649
REMARK UNBOUND:                -0.499
REMARK  Name = 
REMARK  5 active torsions:
REMARK  status: ('A' for Active; 'I' for Inactive)
REMARK    1  A    between atoms: C_8  and  C_9
REMARK    2  A    between atoms: N_11  and  C_12
REMARK    3  A    between atoms: C_12  and  C_13
REMARK    4  A    between atoms: C_16  and  O_17
REMARK    5  A    between atoms: O_17  and  C_18
REMARK                            x       y       z     vdW  Elec       q    Type
REMARK                         _______ _______ _______ _____ _____    ______ ____
ROOT
ATOM      1  C   UNL     1      48.679   6.639  15.814  0.00  0.00    +0.000 C 
ATOM      2  O   UNL     1      48.777   7.846  16.014  0.00  0.00    +0.000 OA
ATOM      3  N   UNL     1      47.903   6.151  14.796  0.00  0.00    +0.000 N 
ATOM      4  H   UNL     1      47.800   5.149  14.652  0.00  0.00    +0.000 HD
ENDROOT
BRANCH   1  12
ATOM      5  N   UNL     1      52.590   3.184  19.316  0.00  0.00    +0.000 N 
ATOM      6  C   UNL     1      52.351   4.155  18.383  0.00  0.00    +0.000 A 
ATOM      7  N   UNL     1      53.390   4.822  17.942  0.00  0.00    +0.000 NA
ATOM      8  N   UNL     1      53.188   5.832  17.027  0.00  0.00    +0.000 N 
ATOM      9  C   UNL     1      51.976   6.256  16.512  0.00  0.00    +0.000 A 
ATOM     10  O   UNL     1      51.918   7.191  15.718  0.00  0.00    +0.000 OA
ATOM     11  C   UNL     1      50.811   5.517  16.971  0.00  0.00    +0.000 A 
ATOM     12  C   UNL     1      49.402   5.670  16.664  0.00  0.00    +0.000 A 
ATOM     13  C   UNL     1      48.677   4.694  17.341  0.00  0.00    +0.000 A 
ATOM     14  S   UNL     1      49.632   3.666  18.314  0.00  0.00    +0.000 S 
ATOM     15  C   UNL     1      51.038   4.493  17.867  0.00  0.00    +0.000 A 
ATOM     16  H   UNL     1      53.557   2.888  19.376  0.00  0.00    +0.000 HD
ATOM     17  H   UNL     1      51.898   2.453  19.422  0.00  0.00    +0.000 HD
ATOM     18  H   UNL     1      54.015   6.341  16.733  0.00  0.00    +0.000 HD
ENDBRANCH   1  12
BRANCH   3  19
ATOM     19  C   UNL     1      47.171   7.032  13.911  0.00  0.00    +0.000 C 
BRANCH  19  20
ATOM     20  C   UNL     1      46.481   6.278  12.808  0.00  0.00    +0.000 A 
ATOM     21  C   UNL     1      46.239   6.900  11.571  0.00  0.00    +0.000 A 
ATOM     22  C   UNL     1      45.595   6.209  10.540  0.00  0.00    +0.000 A 
ATOM     23  C   UNL     1      45.213   4.878  10.712  0.00  0.00    +0.000 A 
ATOM     24  C   UNL     1      45.419   4.260  11.948  0.00  0.00    +0.000 A 
ATOM     25  C   UNL     1      46.049   4.955  12.989  0.00  0.00    +0.000 A 
BRANCH  23  26
ATOM     26  O   UNL     1      44.552   4.136   9.756  0.00  0.00    +0.000 OA
BRANCH  26  27
ATOM     27  C   UNL     1      45.307   3.466   8.797  0.00  0.00    +0.000 A 
ATOM     28  C   UNL     1      45.482   2.102   8.987  0.00  0.00    +0.000 A 
ATOM     29  C   UNL     1      46.218   1.394   8.040  0.00  0.00    +0.000 A 
ATOM     30  C   UNL     1      46.753   2.069   6.949  0.00  0.00    +0.000 A 
ATOM     31  C   UNL     1      46.547   3.434   6.858  0.00  0.00    +0.000 A 
ATOM     32  N   UNL     1      45.852   4.148   7.765  0.00  0.00    +0.000 NA
ENDBRANCH  26  27
ENDBRANCH  23  26
ENDBRANCH  19  20
ENDBRANCH   3  19
TORSDOF 5
ENDMDL
MODEL 8
REMARK VINA RESULT:    -7.129      3.019      3.764
REMARK INTER + INTRA:          -9.711
REMARK INTER:                  -8.944
REMARK INTRA:                  -0.768
REMARK UNBOUND:                -0.499
REMARK  Name = 
REMARK  5 active torsions:
REMARK  status: ('A' for Active; 'I' for Inactive)
REMARK    1  A    between atoms: C_8  and  C_9
REMARK    2  A    between atoms: N_11  and  C_12
REMARK    3  A    between atoms: C_12  and  C_13
REMARK    4  A    between atoms: C_16  and  O_17
REMARK    5  A    between atoms: O_17  and  C_18
REMARK                            x       y       z     vdW  Elec       q    Type
REMARK                         _______ _______ _______ _____ _____    ______ ____
ROOT
ATOM      1  C   UNL     1      47.176   7.893  13.271  0.00  0.00    +0.000 C 
ATOM      2  O   UNL     1      46.260   8.708  13.199  0.00  0.00    +0.000 OA
ATOM      3  N   UNL     1      46.926   6.547  13.303  0.00  0.00    +0.000 N 
ATOM      4  H   UNL     1      47.686   5.876  13.393  0.00  0.00    +0.000 HD
ENDROOT
BRANCH   1  12
ATOM      5  N   UNL     1      53.012   9.844  14.546  0.00  0.00    +0.000 N 
ATOM      6  C   UNL     1      51.699   9.679  14.887  0.00  0.00    +0.000 A 
ATOM      7  N   UNL     1      51.354  10.026  16.103  0.00  0.00    +0.000 NA
ATOM      8  N   UNL     1      50.046   9.844  16.497  0.00  0.00    +0.000 N 
ATOM      9  C   UNL     1      49.019   9.303  15.745  0.00  0.00    +0.000 A 
ATOM     10  O   UNL     1      47.894   9.165  16.216  0.00  0.00    +0.000 OA
ATOM     11  C   UNL     1      49.373   8.931  14.385  0.00  0.00    +0.000 A 
ATOM     12  C   UNL     1      48.584   8.341  13.321  0.00  0.00    +0.000 A 
ATOM     13  C   UNL     1      49.377   8.198  12.186  0.00  0.00    +0.000 A 
ATOM     14  S   UNL     1      50.990   8.719  12.394  0.00  0.00    +0.000 S 
ATOM     15  C   UNL     1      50.681   9.145  14.001  0.00  0.00    +0.000 A 
ATOM     16  H   UNL     1      53.532  10.461  15.159  0.00  0.00    +0.000 HD
ATOM     17  H   UNL     1      53.239   9.908  13.562  0.00  0.00    +0.000 HD
ATOM     18  H   UNL     1      49.828  10.099  17.455  0.00  0.00    +0.000 HD
ENDBRANCH   1  12
BRANCH   3  19
ATOM     19  C   UNL     1      45.577   6.025  13.246  0.00  0.00    +0.000 C 
BRANCH  19  20
ATOM     20  C   UNL     1      45.298   5.317  11.949  0.00  0.00    +0.000 A 
ATOM     21  C   UNL     1      44.598   4.100  11.944  0.00  0.00    +0.000 A 
ATOM     22  C   UNL     1      44.337   3.432  10.743  0.00  0.00    +0.000 A 
ATOM     23  C   UNL     1      44.738   3.984   9.526  0.00  0.00    +0.000 A 
ATOM     24  C   UNL     1      45.462   5.178   9.521  0.00  0.00    +0.000 A 
ATOM     25  C   UNL     1      45.741   5.841  10.724  0.00  0.00    +0.000 A 
BRANCH  23  26
ATOM     26  O   UNL     1      44.541   3.379   8.303  0.00  0.00    +0.000 OA
BRANCH  26  27
ATOM     27  C   UNL     1      45.622   2.752   7.691  0.00  0.00    +0.000 A 
ATOM     28  C   UNL     1      46.150   3.381   6.571  0.00  0.00    +0.000 A 
ATOM     29  C   UNL     1      47.244   2.792   5.939  0.00  0.00    +0.000 A 
ATOM     30  C   UNL     1      47.763   1.604   6.441  0.00  0.00    +0.000 A 
ATOM     31  C   UNL     1      47.153   1.039   7.547  0.00  0.00    +0.000 A 
ATOM     32  N   UNL     1      46.087   1.577   8.170  0.00  0.00    +0.000 NA
ENDBRANCH  26  27
ENDBRANCH  23  26
ENDBRANCH  19  20
ENDBRANCH   3  19
TORSDOF 5
ENDMDL
MODEL 9
REMARK VINA RESULT:    -6.832      5.048      6.988
REMARK INTER + INTRA:          -9.328
REMARK INTER:                  -8.400
REMARK INTRA:                  -0.928
REMARK UNBOUND:                -0.499
REMARK  Name = 
REMARK  5 active torsions:
REMARK  status: ('A' for Active; 'I' for Inactive)
REMARK    1  A    between atoms: C_8  and  C_9
REMARK    2  A    between atoms: N_11  and  C_12
REMARK    3  A    between atoms: C_12  and  C_13
REMARK    4  A    between atoms: C_16  and  O_17
REMARK    5  A    between atoms: O_17  and  C_18
REMARK                            x       y       z     vdW  Elec       q    Type
REMARK                         _______ _______ _______ _____ _____    ______ ____
ROOT
ATOM      1  C   UNL     1      45.834   8.167  12.342  0.00  0.00    +0.000 C 
ATOM      2  O   UNL     1      45.266   9.132  12.845  0.00  0.00    +0.000 OA
ATOM      3  N   UNL     1      47.165   8.215  12.026  0.00  0.00    +0.000 N 
ATOM      4  H   UNL     1      47.626   7.423  11.581  0.00  0.00    +0.000 HD
ENDROOT
BRANCH   1  12
ATOM      5  N   UNL     1      43.371   2.403  11.883  0.00  0.00    +0.000 N 
ATOM      6  C   UNL     1      44.381   3.254  12.237  0.00  0.00    +0.000 A 
ATOM      7  N   UNL     1      45.411   2.728  12.852  0.00  0.00    +0.000 NA
ATOM      8  N   UNL     1      46.435   3.556  13.256  0.00  0.00    +0.000 N 
ATOM      9  C   UNL     1      46.502   4.930  13.103  0.00  0.00    +0.000 A 
ATOM     10  O   UNL     1      47.459   5.569  13.531  0.00  0.00    +0.000 OA
ATOM     11  C   UNL     1      45.379   5.534  12.404  0.00  0.00    +0.000 A 
ATOM     12  C   UNL     1      45.098   6.915  12.065  0.00  0.00    +0.000 A 
ATOM     13  C   UNL     1      43.896   6.980  11.365  0.00  0.00    +0.000 A 
ATOM     14  S   UNL     1      43.134   5.468  11.149  0.00  0.00    +0.000 S 
ATOM     15  C   UNL     1      44.377   4.683  11.985  0.00  0.00    +0.000 A 
ATOM     16  H   UNL     1      43.627   1.423  11.883  0.00  0.00    +0.000 HD
ATOM     17  H   UNL     1      42.747   2.696  11.142  0.00  0.00    +0.000 HD
ATOM     18  H   UNL     1      47.200   3.112  13.754  0.00  0.00    +0.000 HD
ENDBRANCH   1  12
BRANCH   3  19
ATOM     19  C   UNL     1      47.962   9.397  12.275  0.00  0.00    +0.000 C 
BRANCH  19  20
ATOM     20  C   UNL     1      49.351   9.272  11.711  0.00  0.00    +0.000 A 
ATOM     21  C   UNL     1      49.976  10.382  11.119  0.00  0.00    +0.000 A 
ATOM     22  C   UNL     1      51.266  10.275  10.589  0.00  0.00    +0.000 A 
ATOM     23  C   UNL     1      51.966   9.071  10.672  0.00  0.00    +0.000 A 
ATOM     24  C   UNL     1      51.344   7.953  11.231  0.00  0.00    +0.000 A 
ATOM     25  C   UNL     1      50.045   8.052  11.747  0.00  0.00    +0.000 A 
BRANCH  23  26
ATOM     26  O   UNL     1      53.229   8.878  10.154  0.00  0.00    +0.000 OA
BRANCH  26  27
ATOM     27  C   UNL     1      53.444   7.785   9.319  0.00  0.00    +0.000 A 
ATOM     28  C   UNL     1      52.783   7.799   8.097  0.00  0.00    +0.000 A 
ATOM     29  C   UNL     1      52.985   6.731   7.226  0.00  0.00    +0.000 A 
ATOM     30  C   UNL     1      53.828   5.692   7.605  0.00  0.00    +0.000 A 
ATOM     31  C   UNL     1      54.422   5.754   8.854  0.00  0.00    +0.000 A 
ATOM     32  N   UNL     1      54.235   6.767   9.723  0.00  0.00    +0.000 NA
ENDBRANCH  26  27
ENDBRANCH  23  26
ENDBRANCH  19  20
ENDBRANCH   3  19
TORSDOF 5
ENDMDL
