MODEL 1
REMARK VINA RESULT:    -8.224      0.000      0.000
REMARK INTER + INTRA:         -12.469
REMARK INTER:                 -11.590
REMARK INTRA:                  -0.879
REMARK UNBOUND:                -0.879
REMARK  Name = 
REMARK  8 active torsions:
REMARK  status: ('A' for Active; 'I' for Inactive)
REMARK    1  A    between atoms: C_1  and  C_2
REMARK    2  A    between atoms: C_4  and  C_5
REMARK    3  A    between atoms: C_5  and  N_6
REMARK    4  A    between atoms: N_6  and  C_7
REMARK    5  A    between atoms: C_7  and  C_8
REMARK    6  A    between atoms: C_11  and  C_12
REMARK    7  A    between atoms: C_12  and  N_13
REMARK    8  A    between atoms: C_14  and  C_16
REMARK                            x       y       z     vdW  Elec       q    Type
REMARK                         _______ _______ _______ _____ _____    ______ ____
ROOT
ATOM      1  C   UNL     1      44.682   5.346  11.711  0.00  0.00    +0.000 A 
ATOM      2  C   UNL     1      44.971   4.845  12.988  0.00  0.00    +0.000 A 
ATOM      3  C   UNL     1      46.130   5.226  13.675  0.00  0.00    +0.000 A 
ATOM      4  C   UNL     1      47.044   6.123  13.110  0.00  0.00    +0.000 A 
ATOM      5  C   UNL     1      46.766   6.613  11.826  0.00  0.00    +0.000 A 
ATOM      6  C   UNL     1      45.601   6.234  11.137  0.00  0.00    +0.000 A 
ENDROOT
BRANCH   1   7
ATOM      7  C   UNL     1      43.427   4.919  10.968  0.00  0.00    +0.000 C 
BRANCH   7   8
ATOM      8  N   UNL     1      43.739   4.500   9.604  0.00  0.00    +0.000 NA
ATOM      9  H   UNL     1      42.865   4.431   9.083  0.00  0.00    +0.000 HD
BRANCH   8  10
ATOM     10  C   UNL     1      44.360   3.175   9.517  0.00  0.00    +0.000 C 
BRANCH  10  14
ATOM     11  C   UNL     1      47.959   2.129   5.999  0.00  0.00    +0.000 C 
ATOM     12  C   UNL     1      46.977   2.721   6.936  0.00  0.00    +0.000 A 
ATOM     13  C   UNL     1      46.069   2.146   7.798  0.00  0.00    +0.000 A 
ATOM     14  C   UNL     1      45.424   3.229   8.449  0.00  0.00    +0.000 A 
ATOM     15  N   UNL     1      45.898   4.406   8.012  0.00  0.00    +0.000 NA
ATOM     16  N   UNL     1      46.819   4.071   7.091  0.00  0.00    +0.000 N 
ATOM     17  H   UNL     1      47.303   4.817   6.605  0.00  0.00    +0.000 HD
ENDBRANCH  10  14
ENDBRANCH   8  10
ENDBRANCH   7   8
ENDBRANCH   1   7
BRANCH   4  18
ATOM     18  C   UNL     1      48.289   6.570  13.846  0.00  0.00    +0.000 C 
BRANCH  18  19
ATOM     19  N   UNL     1      48.082   6.730  15.264  0.00  0.00    +0.000 N 
ATOM     20  C   UNL     1      49.065   6.495  16.189  0.00  0.00    +0.000 C 
ATOM     21  O   UNL     1      50.201   6.137  15.890  0.00  0.00    +0.000 OA
ATOM     22  H   UNL     1      47.126   6.639  15.589  0.00  0.00    +0.000 HD
BRANCH  20  23
ATOM     23  C   UNL     1      48.681   6.762  17.583  0.00  0.00    +0.000 A 
ATOM     24  C   UNL     1      48.342   8.047  17.984  0.00  0.00    +0.000 A 
ATOM     25  S   UNL     1      47.904   8.152  19.630  0.00  0.00    +0.000 S 
ATOM     26  C   UNL     1      48.183   6.490  19.873  0.00  0.00    +0.000 A 
ATOM     27  N   UNL     1      48.024   5.924  21.095  0.00  0.00    +0.000 NA
ATOM     28  C   UNL     1      48.302   4.651  21.138  0.00  0.00    +0.000 A 
ATOM     29  N   UNL     1      48.708   3.914  20.065  0.00  0.00    +0.000 N 
ATOM     30  C   UNL     1      48.820   4.429  18.795  0.00  0.00    +0.000 A 
ATOM     31  O   UNL     1      49.081   3.717  17.837  0.00  0.00    +0.000 OA
ATOM     32  C   UNL     1      48.571   5.859  18.705  0.00  0.00    +0.000 A 
ATOM     33  H   UNL     1      48.875   2.919  20.155  0.00  0.00    +0.000 HD
ENDBRANCH  20  23
ENDBRANCH  18  19
ENDBRANCH   4  18
TORSDOF 7
ENDMDL
MODEL 2
REMARK VINA RESULT:    -8.043      1.448      2.420
REMARK INTER + INTRA:         -12.213
REMARK INTER:                 -11.136
REMARK INTRA:                  -1.077
REMARK UNBOUND:                -0.879
REMARK  Name = 
REMARK  8 active torsions:
REMARK  status: ('A' for Active; 'I' for Inactive)
REMARK    1  A    between atoms: C_1  and  C_2
REMARK    2  A    between atoms: C_4  and  C_5
REMARK    3  A    between atoms: C_5  and  N_6
REMARK    4  A    between atoms: N_6  and  C_7
REMARK    5  A    between atoms: C_7  and  C_8
REMARK    6  A    between atoms: C_11  and  C_12
REMARK    7  A    between atoms: C_12  and  N_13
REMARK    8  A    between atoms: C_14  and  C_16
REMARK                            x       y       z     vdW  Elec       q    Type
REMARK                         _______ _______ _______ _____ _____    ______ ____
ROOT
ATOM      1  C   UNL     1      44.594   5.535  11.627  0.00  0.00    +0.000 A 
ATOM      2  C   UNL     1      45.451   6.543  11.164  0.00  0.00    +0.000 A 
ATOM      3  C   UNL     1      46.610   6.893  11.866  0.00  0.00    +0.000 A 
ATOM      4  C   UNL     1      46.956   6.247  13.059  0.00  0.00    +0.000 A 
ATOM      5  C   UNL     1      46.092   5.250  13.534  0.00  0.00    +0.000 A 
ATOM      6  C   UNL     1      44.930   4.895  12.827  0.00  0.00    +0.000 A 
ENDROOT
BRANCH   1   7
ATOM      7  C   UNL     1      43.332   5.168  10.864  0.00  0.00    +0.000 C 
BRANCH   7   8
ATOM      8  N   UNL     1      43.650   4.678   9.525  0.00  0.00    +0.000 NA
ATOM      9  H   UNL     1      42.778   4.588   9.003  0.00  0.00    +0.000 HD
BRANCH   8  10
ATOM     10  C   UNL     1      44.263   3.347   9.510  0.00  0.00    +0.000 C 
BRANCH  10  14
ATOM     11  C   UNL     1      48.082   2.193   6.269  0.00  0.00    +0.000 C 
ATOM     12  C   UNL     1      47.044   2.814   7.123  0.00  0.00    +0.000 A 
ATOM     13  C   UNL     1      46.077   2.265   7.936  0.00  0.00    +0.000 A 
ATOM     14  C   UNL     1      45.396   3.368   8.514  0.00  0.00    +0.000 A 
ATOM     15  N   UNL     1      45.905   4.531   8.078  0.00  0.00    +0.000 NA
ATOM     16  N   UNL     1      46.883   4.167   7.230  0.00  0.00    +0.000 N 
ATOM     17  H   UNL     1      47.403   4.899   6.758  0.00  0.00    +0.000 HD
ENDBRANCH  10  14
ENDBRANCH   8  10
ENDBRANCH   7   8
ENDBRANCH   1   7
BRANCH   4  18
ATOM     18  C   UNL     1      48.219   6.590  13.821  0.00  0.00    +0.000 C 
BRANCH  18  19
ATOM     19  N   UNL     1      48.029   6.611  15.251  0.00  0.00    +0.000 N 
ATOM     20  C   UNL     1      49.065   6.481  16.138  0.00  0.00    +0.000 C 
ATOM     21  O   UNL     1      50.236   6.343  15.794  0.00  0.00    +0.000 OA
ATOM     22  H   UNL     1      47.112   6.335  15.584  0.00  0.00    +0.000 HD
BRANCH  20  23
ATOM     23  C   UNL     1      48.683   6.578  17.555  0.00  0.00    +0.000 A 
ATOM     24  C   UNL     1      48.786   5.472  18.387  0.00  0.00    +0.000 A 
ATOM     25  S   UNL     1      48.319   5.788  19.998  0.00  0.00    +0.000 S 
ATOM     26  C   UNL     1      47.930   7.404  19.632  0.00  0.00    +0.000 A 
ATOM     27  N   UNL     1      47.431   8.236  20.580  0.00  0.00    +0.000 NA
ATOM     28  C   UNL     1      47.151   9.434  20.150  0.00  0.00    +0.000 A 
ATOM     29  N   UNL     1      47.343   9.858  18.867  0.00  0.00    +0.000 N 
ATOM     30  C   UNL     1      47.907   9.071  17.891  0.00  0.00    +0.000 A 
ATOM     31  O   UNL     1      48.164   9.516  16.781  0.00  0.00    +0.000 OA
ATOM     32  C   UNL     1      48.188   7.707  18.307  0.00  0.00    +0.000 A 
ATOM     33  H   UNL     1      47.139  10.814  18.603  0.00  0.00    +0.000 HD
ENDBRANCH  20  23
ENDBRANCH  18  19
ENDBRANCH   4  18
TORSDOF 7
ENDMDL
MODEL 3
REMARK VINA RESULT:    -7.868      1.632      1.846
REMARK INTER + INTRA:         -11.966
REMARK INTER:                 -11.089
REMARK INTRA:                  -0.877
REMARK UNBOUND:                -0.879
REMARK  Name = 
REMARK  8 active torsions:
REMARK  status: ('A' for Active; 'I' for Inactive)
REMARK    1  A    between atoms: C_1  and  C_2
REMARK    2  A    between atoms: C_4  and  C_5
REMARK    3  A    between atoms: C_5  and  N_6
REMARK    4  A    between atoms: N_6  and  C_7
REMARK    5  A    between atoms: C_7  and  C_8
REMARK    6  A    between atoms: C_11  and  C_12
REMARK    7  A    between atoms: C_12  and  N_13
REMARK    8  A    between atoms: C_14  and  C_16
REMARK                            x       y       z     vdW  Elec       q    Type
REMARK                         _______ _______ _______ _____ _____    ______ ____
ROOT
ATOM      1  C   UNL     1      44.435   5.338  11.449  0.00  0.00    +0.000 A 
ATOM      2  C   UNL     1      45.502   4.794  12.177  0.00  0.00    +0.000 A 
ATOM      3  C   UNL     1      46.433   5.613  12.826  0.00  0.00    +0.000 A 
ATOM      4  C   UNL     1      46.332   7.008  12.773  0.00  0.00    +0.000 A 
ATOM      5  C   UNL     1      45.274   7.556  12.032  0.00  0.00    +0.000 A 
ATOM      6  C   UNL     1      44.337   6.734  11.383  0.00  0.00    +0.000 A 
ENDROOT
BRANCH   1   7
ATOM      7  C   UNL     1      43.434   4.442  10.738  0.00  0.00    +0.000 C 
BRANCH   7   8
ATOM      8  N   UNL     1      44.008   3.874   9.521  0.00  0.00    +0.000 NA
ATOM      9  H   UNL     1      43.269   3.804   8.822  0.00  0.00    +0.000 HD
BRANCH   8  10
ATOM     10  C   UNL     1      44.529   2.514   9.688  0.00  0.00    +0.000 C 
BRANCH  10  14
ATOM     11  C   UNL     1      47.529   2.750   5.520  0.00  0.00    +0.000 C 
ATOM     12  C   UNL     1      46.775   2.398   6.745  0.00  0.00    +0.000 A 
ATOM     13  C   UNL     1      45.928   3.134   7.545  0.00  0.00    +0.000 A 
ATOM     14  C   UNL     1      45.493   2.243   8.560  0.00  0.00    +0.000 A 
ATOM     15  N   UNL     1      46.044   1.030   8.404  0.00  0.00    +0.000 NA
ATOM     16  N   UNL     1      46.823   1.156   7.316  0.00  0.00    +0.000 N 
ATOM     17  H   UNL     1      47.361   0.351   7.017  0.00  0.00    +0.000 HD
ENDBRANCH  10  14
ENDBRANCH   8  10
ENDBRANCH   7   8
ENDBRANCH   1   7
BRANCH   4  18
ATOM     18  C   UNL     1      47.310   7.913  13.491  0.00  0.00    +0.000 C 
BRANCH  18  19
ATOM     19  N   UNL     1      47.720   7.398  14.775  0.00  0.00    +0.000 N 
ATOM     20  C   UNL     1      49.003   6.997  15.039  0.00  0.00    +0.000 C 
ATOM     21  O   UNL     1      49.909   7.045  14.212  0.00  0.00    +0.000 OA
ATOM     22  H   UNL     1      46.990   6.980  15.342  0.00  0.00    +0.000 HD
BRANCH  20  23
ATOM     23  C   UNL     1      49.241   6.550  16.420  0.00  0.00    +0.000 A 
ATOM     24  C   UNL     1      49.913   7.369  17.316  0.00  0.00    +0.000 A 
ATOM     25  S   UNL     1      50.071   6.687  18.873  0.00  0.00    +0.000 S 
ATOM     26  C   UNL     1      49.275   5.260  18.394  0.00  0.00    +0.000 A 
ATOM     27  N   UNL     1      49.104   4.230  19.259  0.00  0.00    +0.000 NA
ATOM     28  C   UNL     1      48.506   3.191  18.747  0.00  0.00    +0.000 A 
ATOM     29  N   UNL     1      48.064   3.113  17.459  0.00  0.00    +0.000 N 
ATOM     30  C   UNL     1      48.157   4.155  16.566  0.00  0.00    +0.000 A 
ATOM     31  O   UNL     1      47.654   4.090  15.454  0.00  0.00    +0.000 OA
ATOM     32  C   UNL     1      48.864   5.319  17.075  0.00  0.00    +0.000 A 
ATOM     33  H   UNL     1      47.573   2.291  17.129  0.00  0.00    +0.000 HD
ENDBRANCH  20  23
ENDBRANCH  18  19
ENDBRANCH   4  18
TORSDOF 7
ENDMDL
MODEL 4
REMARK VINA RESULT:    -7.128      1.872      2.345
REMARK INTER + INTRA:         -10.923
REMARK INTER:                 -10.068
REMARK INTRA:                  -0.855
REMARK UNBOUND:                -0.879
REMARK  Name = 
REMARK  8 active torsions:
REMARK  status: ('A' for Active; 'I' for Inactive)
REMARK    1  A    between atoms: C_1  and  C_2
REMARK    2  A    between atoms: C_4  and  C_5
REMARK    3  A    between atoms: C_5  and  N_6
REMARK    4  A    between atoms: N_6  and  C_7
REMARK    5  A    between atoms: C_7  and  C_8
REMARK    6  A    between atoms: C_11  and  C_12
REMARK    7  A    between atoms: C_12  and  N_13
REMARK    8  A    between atoms: C_14  and  C_16
REMARK                            x       y       z     vdW  Elec       q    Type
REMARK                         _______ _______ _______ _____ _____    ______ ____
ROOT
ATOM      1  C   UNL     1      45.226   4.749  11.801  0.00  0.00    +0.000 A 
ATOM      2  C   UNL     1      44.777   5.916  11.168  0.00  0.00    +0.000 A 
ATOM      3  C   UNL     1      45.218   7.181  11.575  0.00  0.00    +0.000 A 
ATOM      4  C   UNL     1      46.126   7.326  12.631  0.00  0.00    +0.000 A 
ATOM      5  C   UNL     1      46.564   6.161  13.277  0.00  0.00    +0.000 A 
ATOM      6  C   UNL     1      46.125   4.891  12.866  0.00  0.00    +0.000 A 
ENDROOT
BRANCH   1   7
ATOM      7  C   UNL     1      44.734   3.380  11.360  0.00  0.00    +0.000 C 
BRANCH   7   8
ATOM      8  N   UNL     1      44.502   3.344   9.919  0.00  0.00    +0.000 NA
ATOM      9  H   UNL     1      43.595   3.772   9.730  0.00  0.00    +0.000 HD
BRANCH   8  10
ATOM     10  C   UNL     1      44.426   1.989   9.363  0.00  0.00    +0.000 C 
BRANCH  10  14
ATOM     11  C   UNL     1      48.131   2.546   5.844  0.00  0.00    +0.000 C 
ATOM     12  C   UNL     1      47.175   2.102   6.884  0.00  0.00    +0.000 A 
ATOM     13  C   UNL     1      46.177   2.772   7.559  0.00  0.00    +0.000 A 
ATOM     14  C   UNL     1      45.587   1.808   8.418  0.00  0.00    +0.000 A 
ATOM     15  N   UNL     1      46.189   0.616   8.290  0.00  0.00    +0.000 NA
ATOM     16  N   UNL     1      47.150   0.826   7.374  0.00  0.00    +0.000 N 
ATOM     17  H   UNL     1      47.755   0.050   7.129  0.00  0.00    +0.000 HD
ENDBRANCH  10  14
ENDBRANCH   8  10
ENDBRANCH   7   8
ENDBRANCH   1   7
BRANCH   4  18
ATOM     18  C   UNL     1      46.638   8.682  13.069  0.00  0.00    +0.000 C 
BRANCH  18  19
ATOM     19  N   UNL     1      47.026   8.718  14.458  0.00  0.00    +0.000 N 
ATOM     20  C   UNL     1      48.333   8.795  14.861  0.00  0.00    +0.000 C 
ATOM     21  O   UNL     1      49.279   8.845  14.080  0.00  0.00    +0.000 OA
ATOM     22  H   UNL     1      46.375   8.303  15.115  0.00  0.00    +0.000 HD
BRANCH  20  23
ATOM     23  C   UNL     1      48.529   8.874  16.317  0.00  0.00    +0.000 A 
ATOM     24  C   UNL     1      48.295  10.063  16.992  0.00  0.00    +0.000 A 
ATOM     25  S   UNL     1      48.554   9.950  18.676  0.00  0.00    +0.000 S 
ATOM     26  C   UNL     1      49.019   8.317  18.556  0.00  0.00    +0.000 A 
ATOM     27  N   UNL     1      49.407   7.617  19.651  0.00  0.00    +0.000 NA
ATOM     28  C   UNL     1      49.764   6.388  19.404  0.00  0.00    +0.000 A 
ATOM     29  N   UNL     1      49.750   5.815  18.167  0.00  0.00    +0.000 N 
ATOM     30  C   UNL     1      49.304   6.464  17.040  0.00  0.00    +0.000 A 
ATOM     31  O   UNL     1      49.203   5.887  15.967  0.00  0.00    +0.000 OA
ATOM     32  C   UNL     1      48.943   7.856  17.254  0.00  0.00    +0.000 A 
ATOM     33  H   UNL     1      50.007   4.842  18.045  0.00  0.00    +0.000 HD
ENDBRANCH  20  23
ENDBRANCH  18  19
ENDBRANCH   4  18
TORSDOF 7
ENDMDL
MODEL 5
REMARK VINA RESULT:    -7.003      3.304      9.125
REMARK INTER + INTRA:         -10.748
REMARK INTER:                  -9.377
REMARK INTRA:                  -1.371
REMARK UNBOUND:                -0.879
REMARK  Name = 
REMARK  8 active torsions:
REMARK  status: ('A' for Active; 'I' for Inactive)
REMARK    1  A    between atoms: C_1  and  C_2
REMARK    2  A    between atoms: C_4  and  C_5
REMARK    3  A    between atoms: C_5  and  N_6
REMARK    4  A    between atoms: N_6  and  C_7
REMARK    5  A    between atoms: C_7  and  C_8
REMARK    6  A    between atoms: C_11  and  C_12
REMARK    7  A    between atoms: C_12  and  N_13
REMARK    8  A    between atoms: C_14  and  C_16
REMARK                            x       y       z     vdW  Elec       q    Type
REMARK                         _______ _______ _______ _____ _____    ______ ____
ROOT
ATOM      1  C   UNL     1      49.648   8.630  15.584  0.00  0.00    +0.000 A 
ATOM      2  C   UNL     1      50.022   7.507  14.833  0.00  0.00    +0.000 A 
ATOM      3  C   UNL     1      49.443   7.239  13.587  0.00  0.00    +0.000 A 
ATOM      4  C   UNL     1      48.467   8.084  13.045  0.00  0.00    +0.000 A 
ATOM      5  C   UNL     1      48.078   9.198  13.802  0.00  0.00    +0.000 A 
ATOM      6  C   UNL     1      48.662   9.471  15.052  0.00  0.00    +0.000 A 
ENDROOT
BRANCH   1   7
ATOM      7  C   UNL     1      50.274   8.908  16.941  0.00  0.00    +0.000 C 
BRANCH   7   8
ATOM      8  N   UNL     1      50.362   7.689  17.740  0.00  0.00    +0.000 NA
ATOM      9  H   UNL     1      50.143   6.895  17.137  0.00  0.00    +0.000 HD
BRANCH   8  10
ATOM     10  C   UNL     1      49.397   7.630  18.842  0.00  0.00    +0.000 C 
BRANCH  10  14
ATOM     11  C   UNL     1      47.121   3.323  17.201  0.00  0.00    +0.000 C 
ATOM     12  C   UNL     1      47.521   4.599  17.837  0.00  0.00    +0.000 A 
ATOM     13  C   UNL     1      48.687   5.330  17.772  0.00  0.00    +0.000 A 
ATOM     14  C   UNL     1      48.462   6.475  18.581  0.00  0.00    +0.000 A 
ATOM     15  N   UNL     1      47.234   6.450  19.121  0.00  0.00    +0.000 NA
ATOM     16  N   UNL     1      46.697   5.303  18.671  0.00  0.00    +0.000 N 
ATOM     17  H   UNL     1      45.760   5.063  18.974  0.00  0.00    +0.000 HD
ENDBRANCH  10  14
ENDBRANCH   8  10
ENDBRANCH   7   8
ENDBRANCH   1   7
BRANCH   4  18
ATOM     18  C   UNL     1      47.848   7.828  11.688  0.00  0.00    +0.000 C 
BRANCH  18  19
ATOM     19  N   UNL     1      47.026   6.643  11.654  0.00  0.00    +0.000 N 
ATOM     20  C   UNL     1      45.659   6.686  11.737  0.00  0.00    +0.000 C 
ATOM     21  O   UNL     1      45.021   7.730  11.840  0.00  0.00    +0.000 OA
ATOM     22  H   UNL     1      47.470   5.783  11.957  0.00  0.00    +0.000 HD
BRANCH  20  23
ATOM     23  C   UNL     1      44.991   5.379  11.634  0.00  0.00    +0.000 A 
ATOM     24  C   UNL     1      44.272   4.873  12.708  0.00  0.00    +0.000 A 
ATOM     25  S   UNL     1      43.552   3.358  12.389  0.00  0.00    +0.000 S 
ATOM     26  C   UNL     1      44.204   3.311  10.817  0.00  0.00    +0.000 A 
ATOM     27  N   UNL     1      43.994   2.247  10.003  0.00  0.00    +0.000 NA
ATOM     28  C   UNL     1      44.578   2.335   8.842  0.00  0.00    +0.000 A 
ATOM     29  N   UNL     1      45.334   3.396   8.437  0.00  0.00    +0.000 N 
ATOM     30  C   UNL     1      45.520   4.524   9.202  0.00  0.00    +0.000 A 
ATOM     31  O   UNL     1      46.113   5.501   8.766  0.00  0.00    +0.000 OA
ATOM     32  C   UNL     1      44.931   4.452  10.529  0.00  0.00    +0.000 A 
ATOM     33  H   UNL     1      45.734   3.421   7.507  0.00  0.00    +0.000 HD
ENDBRANCH  20  23
ENDBRANCH  18  19
ENDBRANCH   4  18
TORSDOF 7
ENDMDL
MODEL 6
REMARK VINA RESULT:    -6.767      3.190      4.187
REMARK INTER + INTRA:         -10.415
REMARK INTER:                  -9.440
REMARK INTRA:                  -0.975
REMARK UNBOUND:                -0.879
REMARK  Name = 
REMARK  8 active torsions:
REMARK  status: ('A' for Active; 'I' for Inactive)
REMARK    1  A    between atoms: C_1  and  C_2
REMARK    2  A    between atoms: C_4  and  C_5
REMARK    3  A    between atoms: C_5  and  N_6
REMARK    4  A    between atoms: N_6  and  C_7
REMARK    5  A    between atoms: C_7  and  C_8
REMARK    6  A    between atoms: C_11  and  C_12
REMARK    7  A    between atoms: C_12  and  N_13
REMARK    8  A    between atoms: C_14  and  C_16
REMARK                            x       y       z     vdW  Elec       q    Type
REMARK                         _______ _______ _______ _____ _____    ______ ____
ROOT
ATOM      1  C   UNL     1      47.224   5.685  13.547  0.00  0.00    +0.000 A 
ATOM      2  C   UNL     1      47.978   6.839  13.802  0.00  0.00    +0.000 A 
ATOM      3  C   UNL     1      48.548   7.074  15.058  0.00  0.00    +0.000 A 
ATOM      4  C   UNL     1      48.387   6.161  16.108  0.00  0.00    +0.000 A 
ATOM      5  C   UNL     1      47.619   5.014  15.861  0.00  0.00    +0.000 A 
ATOM      6  C   UNL     1      47.050   4.776  14.598  0.00  0.00    +0.000 A 
ENDROOT
BRANCH   1   7
ATOM      7  C   UNL     1      46.599   5.443  12.182  0.00  0.00    +0.000 C 
BRANCH   7   8
ATOM      8  N   UNL     1      45.434   4.569  12.284  0.00  0.00    +0.000 NA
ATOM      9  H   UNL     1      45.753   3.603  12.210  0.00  0.00    +0.000 HD
BRANCH   8  10
ATOM     10  C   UNL     1      44.458   4.751  11.206  0.00  0.00    +0.000 C 
BRANCH  10  14
ATOM     11  C   UNL     1      46.332   3.299   6.645  0.00  0.00    +0.000 C 
ATOM     12  C   UNL     1      45.769   3.417   8.009  0.00  0.00    +0.000 A 
ATOM     13  C   UNL     1      45.516   4.512   8.806  0.00  0.00    +0.000 A 
ATOM     14  C   UNL     1      44.952   3.992   9.999  0.00  0.00    +0.000 A 
ATOM     15  N   UNL     1      44.867   2.653   9.949  0.00  0.00    +0.000 NA
ATOM     16  N   UNL     1      45.381   2.333   8.748  0.00  0.00    +0.000 N 
ATOM     17  H   UNL     1      45.436   1.353   8.498  0.00  0.00    +0.000 HD
ENDBRANCH  10  14
ENDBRANCH   8  10
ENDBRANCH   7   8
ENDBRANCH   1   7
BRANCH   4  18
ATOM     18  C   UNL     1      49.017   6.381  17.467  0.00  0.00    +0.000 C 
BRANCH  18  19
ATOM     19  N   UNL     1      50.052   5.422  17.772  0.00  0.00    +0.000 N 
ATOM     20  C   UNL     1      51.320   5.510  17.261  0.00  0.00    +0.000 C 
ATOM     21  O   UNL     1      51.683   6.411  16.510  0.00  0.00    +0.000 OA
ATOM     22  H   UNL     1      49.737   4.497  18.042  0.00  0.00    +0.000 HD
BRANCH  20  23
ATOM     23  C   UNL     1      52.249   4.470  17.727  0.00  0.00    +0.000 A 
ATOM     24  C   UNL     1      53.474   4.820  18.277  0.00  0.00    +0.000 A 
ATOM     25  S   UNL     1      54.401   3.477  18.779  0.00  0.00    +0.000 S 
ATOM     26  C   UNL     1      53.212   2.381  18.248  0.00  0.00    +0.000 A 
ATOM     27  N   UNL     1      53.397   1.042  18.354  0.00  0.00    +0.000 NA
ATOM     28  C   UNL     1      52.417   0.325  17.880  0.00  0.00    +0.000 A 
ATOM     29  N   UNL     1      51.281   0.840  17.328  0.00  0.00    +0.000 N 
ATOM     30  C   UNL     1      51.022   2.189  17.259  0.00  0.00    +0.000 A 
ATOM     31  O   UNL     1      49.948   2.613  16.858  0.00  0.00    +0.000 OA
ATOM     32  C   UNL     1      52.109   3.033  17.728  0.00  0.00    +0.000 A 
ATOM     33  H   UNL     1      50.539   0.230  17.008  0.00  0.00    +0.000 HD
ENDBRANCH  20  23
ENDBRANCH  18  19
ENDBRANCH   4  18
TORSDOF 7
ENDMDL
MODEL 7
REMARK VINA RESULT:    -6.690      4.561      5.863
REMARK INTER + INTRA:         -10.306
REMARK INTER:                  -9.334
REMARK INTRA:                  -0.972
REMARK UNBOUND:                -0.879
REMARK  Name = 
REMARK  8 active torsions:
REMARK  status: ('A' for Active; 'I' for Inactive)
REMARK    1  A    between atoms: C_1  and  C_2
REMARK    2  A    between atoms: C_4  and  C_5
REMARK    3  A    between atoms: C_5  and  N_6
REMARK    4  A    between atoms: N_6  and  C_7
REMARK    5  A    between atoms: C_7  and  C_8
REMARK    6  A    between atoms: C_11  and  C_12
REMARK    7  A    between atoms: C_12  and  N_13
REMARK    8  A    between atoms: C_14  and  C_16
REMARK                            x       y       z     vdW  Elec       q    Type
REMARK                         _______ _______ _______ _____ _____    ______ ____
ROOT
ATOM      1  C   UNL     1      44.488   5.417  11.102  0.00  0.00    +0.000 A 
ATOM      2  C   UNL     1      44.167   5.834  12.402  0.00  0.00    +0.000 A 
ATOM      3  C   UNL     1      45.055   6.607  13.159  0.00  0.00    +0.000 A 
ATOM      4  C   UNL     1      46.299   6.993  12.645  0.00  0.00    +0.000 A 
ATOM      5  C   UNL     1      46.630   6.563  11.351  0.00  0.00    +0.000 A 
ATOM      6  C   UNL     1      45.737   5.791  10.589  0.00  0.00    +0.000 A 
ENDROOT
BRANCH   1   7
ATOM      7  C   UNL     1      43.522   4.570  10.291  0.00  0.00    +0.000 C 
BRANCH   7   8
ATOM      8  N   UNL     1      44.204   3.915   9.177  0.00  0.00    +0.000 NA
ATOM      9  H   UNL     1      43.558   3.870   8.389  0.00  0.00    +0.000 HD
BRANCH   8  10
ATOM     10  C   UNL     1      44.595   2.529   9.452  0.00  0.00    +0.000 C 
BRANCH  10  14
ATOM     11  C   UNL     1      47.979   2.325   5.588  0.00  0.00    +0.000 C 
ATOM     12  C   UNL     1      47.088   2.094   6.748  0.00  0.00    +0.000 A 
ATOM     13  C   UNL     1      46.234   2.932   7.430  0.00  0.00    +0.000 A 
ATOM     14  C   UNL     1      45.635   2.129   8.435  0.00  0.00    +0.000 A 
ATOM     15  N   UNL     1      46.096   0.870   8.383  0.00  0.00    +0.000 NA
ATOM     16  N   UNL     1      46.980   0.881   7.371  0.00  0.00    +0.000 N 
ATOM     17  H   UNL     1      47.476   0.023   7.159  0.00  0.00    +0.000 HD
ENDBRANCH  10  14
ENDBRANCH   8  10
ENDBRANCH   7   8
ENDBRANCH   1   7
BRANCH   4  18
ATOM     18  C   UNL     1      47.263   7.852  13.435  0.00  0.00    +0.000 C 
BRANCH  18  19
ATOM     19  N   UNL     1      48.357   8.355  12.639  0.00  0.00    +0.000 N 
ATOM     20  C   UNL     1      48.649   9.690  12.540  0.00  0.00    +0.000 C 
ATOM     21  O   UNL     1      48.014  10.565  13.121  0.00  0.00    +0.000 OA
ATOM     22  H   UNL     1      48.653   7.769  11.866  0.00  0.00    +0.000 HD
BRANCH  20  23
ATOM     23  C   UNL     1      49.831  10.006  11.723  0.00  0.00    +0.000 A 
ATOM     24  C   UNL     1      49.747  10.939  10.700  0.00  0.00    +0.000 A 
ATOM     25  S   UNL     1      51.225  11.187   9.883  0.00  0.00    +0.000 S 
ATOM     26  C   UNL     1      52.020  10.030  10.847  0.00  0.00    +0.000 A 
ATOM     27  N   UNL     1      53.326   9.727  10.642  0.00  0.00    +0.000 NA
ATOM     28  C   UNL     1      53.794   8.804  11.434  0.00  0.00    +0.000 A 
ATOM     29  N   UNL     1      53.067   8.181  12.406  0.00  0.00    +0.000 N 
ATOM     30  C   UNL     1      51.761   8.501  12.692  0.00  0.00    +0.000 A 
ATOM     31  O   UNL     1      51.173   8.000  13.640  0.00  0.00    +0.000 OA
ATOM     32  C   UNL     1      51.177   9.490  11.801  0.00  0.00    +0.000 A 
ATOM     33  H   UNL     1      53.498   7.494  13.014  0.00  0.00    +0.000 HD
ENDBRANCH  20  23
ENDBRANCH  18  19
ENDBRANCH   4  18
TORSDOF 7
ENDMDL
MODEL 8
REMARK VINA RESULT:    -6.543      3.881      9.074
REMARK INTER + INTRA:         -10.099
REMARK INTER:                  -9.465
REMARK INTRA:                  -0.635
REMARK UNBOUND:                -0.879
REMARK  Name = 
REMARK  8 active torsions:
REMARK  status: ('A' for Active; 'I' for Inactive)
REMARK    1  A    between atoms: C_1  and  C_2
REMARK    2  A    between atoms: C_4  and  C_5
REMARK    3  A    between atoms: C_5  and  N_6
REMARK    4  A    between atoms: N_6  and  C_7
REMARK    5  A    between atoms: C_7  and  C_8
REMARK    6  A    between atoms: C_11  and  C_12
REMARK    7  A    between atoms: C_12  and  N_13
REMARK    8  A    between atoms: C_14  and  C_16
REMARK                            x       y       z     vdW  Elec       q    Type
REMARK                         _______ _______ _______ _____ _____    ______ ____
ROOT
ATOM      1  C   UNL     1      49.827   5.597  17.197  0.00  0.00    +0.000 A 
ATOM      2  C   UNL     1      50.649   6.475  16.476  0.00  0.00    +0.000 A 
ATOM      3  C   UNL     1      50.216   7.063  15.282  0.00  0.00    +0.000 A 
ATOM      4  C   UNL     1      48.943   6.796  14.764  0.00  0.00    +0.000 A 
ATOM      5  C   UNL     1      48.125   5.905  15.473  0.00  0.00    +0.000 A 
ATOM      6  C   UNL     1      48.558   5.317  16.674  0.00  0.00    +0.000 A 
ENDROOT
BRANCH   1   7
ATOM      7  C   UNL     1      50.309   4.954  18.487  0.00  0.00    +0.000 C 
BRANCH   7   8
ATOM      8  N   UNL     1      49.963   3.535  18.530  0.00  0.00    +0.000 NA
ATOM      9  H   UNL     1      50.458   3.110  19.313  0.00  0.00    +0.000 HD
BRANCH   8  10
ATOM     10  C   UNL     1      50.379   2.786  17.340  0.00  0.00    +0.000 C 
BRANCH  10  14
ATOM     11  C   UNL     1      55.055   1.092  18.642  0.00  0.00    +0.000 C 
ATOM     12  C   UNL     1      53.634   1.284  18.272  0.00  0.00    +0.000 A 
ATOM     13  C   UNL     1      52.887   2.422  18.059  0.00  0.00    +0.000 A 
ATOM     14  C   UNL     1      51.590   1.965  17.709  0.00  0.00    +0.000 A 
ATOM     15  N   UNL     1      51.534   0.624  17.712  0.00  0.00    +0.000 NA
ATOM     16  N   UNL     1      52.772   0.241  18.071  0.00  0.00    +0.000 N 
ATOM     17  H   UNL     1      52.959  -0.751  18.158  0.00  0.00    +0.000 HD
ENDBRANCH  10  14
ENDBRANCH   8  10
ENDBRANCH   7   8
ENDBRANCH   1   7
BRANCH   4  18
ATOM     18  C   UNL     1      48.444   7.443  13.489  0.00  0.00    +0.000 C 
BRANCH  18  19
ATOM     19  N   UNL     1      47.667   6.547  12.667  0.00  0.00    +0.000 N 
ATOM     20  C   UNL     1      46.408   6.854  12.220  0.00  0.00    +0.000 C 
ATOM     21  O   UNL     1      45.841   7.913  12.474  0.00  0.00    +0.000 OA
ATOM     22  H   UNL     1      47.889   5.561  12.747  0.00  0.00    +0.000 HD
BRANCH  20  23
ATOM     23  C   UNL     1      45.795   5.838  11.351  0.00  0.00    +0.000 A 
ATOM     24  C   UNL     1      45.976   5.889   9.977  0.00  0.00    +0.000 A 
ATOM     25  S   UNL     1      45.207   4.613   9.143  0.00  0.00    +0.000 S 
ATOM     26  C   UNL     1      44.577   3.968  10.587  0.00  0.00    +0.000 A 
ATOM     27  N   UNL     1      43.783   2.870  10.576  0.00  0.00    +0.000 NA
ATOM     28  C   UNL     1      43.349   2.507  11.750  0.00  0.00    +0.000 A 
ATOM     29  N   UNL     1      43.656   3.145  12.916  0.00  0.00    +0.000 N 
ATOM     30  C   UNL     1      44.509   4.222  12.983  0.00  0.00    +0.000 A 
ATOM     31  O   UNL     1      44.849   4.702  14.055  0.00  0.00    +0.000 OA
ATOM     32  C   UNL     1      44.978   4.697  11.692  0.00  0.00    +0.000 A 
ATOM     33  H   UNL     1      43.316   2.793  13.803  0.00  0.00    +0.000 HD
ENDBRANCH  20  23
ENDBRANCH  18  19
ENDBRANCH   4  18
TORSDOF 7
ENDMDL
MODEL 9
REMARK VINA RESULT:    -6.299      3.930      9.545
REMARK INTER + INTRA:          -9.755
REMARK INTER:                  -8.872
REMARK INTRA:                  -0.883
REMARK UNBOUND:                -0.879
REMARK  Name = 
REMARK  8 active torsions:
REMARK  status: ('A' for Active; 'I' for Inactive)
REMARK    1  A    between atoms: C_1  and  C_2
REMARK    2  A    between atoms: C_4  and  C_5
REMARK    3  A    between atoms: C_5  and  N_6
REMARK    4  A    between atoms: N_6  and  C_7
REMARK    5  A    between atoms: C_7  and  C_8
REMARK    6  A    between atoms: C_11  and  C_12
REMARK    7  A    between atoms: C_12  and  N_13
REMARK    8  A    between atoms: C_14  and  C_16
REMARK                            x       y       z     vdW  Elec       q    Type
REMARK                         _______ _______ _______ _____ _____    ______ ____
ROOT
ATOM      1  C   UNL     1      50.040   7.011  15.642  0.00  0.00    +0.000 A 
ATOM      2  C   UNL     1      48.767   6.430  15.558  0.00  0.00    +0.000 A 
ATOM      3  C   UNL     1      47.977   6.568  14.412  0.00  0.00    +0.000 A 
ATOM      4  C   UNL     1      48.431   7.292  13.302  0.00  0.00    +0.000 A 
ATOM      5  C   UNL     1      49.698   7.889  13.389  0.00  0.00    +0.000 A 
ATOM      6  C   UNL     1      50.493   7.747  14.539  0.00  0.00    +0.000 A 
ENDROOT
BRANCH   1   7
ATOM      7  C   UNL     1      50.887   6.866  16.895  0.00  0.00    +0.000 C 
BRANCH   7   8
ATOM      8  N   UNL     1      51.016   5.463  17.283  0.00  0.00    +0.000 NA
ATOM      9  H   UNL     1      50.424   5.302  18.098  0.00  0.00    +0.000 HD
BRANCH   8  10
ATOM     10  C   UNL     1      52.371   5.083  17.693  0.00  0.00    +0.000 C 
BRANCH  10  14
ATOM     11  C   UNL     1      53.774   0.149  18.024  0.00  0.00    +0.000 C 
ATOM     12  C   UNL     1      53.086   1.456  17.924  0.00  0.00    +0.000 A 
ATOM     13  C   UNL     1      53.566   2.748  17.931  0.00  0.00    +0.000 A 
ATOM     14  C   UNL     1      52.425   3.577  17.781  0.00  0.00    +0.000 A 
ATOM     15  N   UNL     1      51.304   2.844  17.694  0.00  0.00    +0.000 NA
ATOM     16  N   UNL     1      51.730   1.573  17.800  0.00  0.00    +0.000 N 
ATOM     17  H   UNL     1      51.037   0.834  17.779  0.00  0.00    +0.000 HD
ENDBRANCH  10  14
ENDBRANCH   8  10
ENDBRANCH   7   8
ENDBRANCH   1   7
BRANCH   4  18
ATOM     18  C   UNL     1      47.606   7.431  12.041  0.00  0.00    +0.000 C 
BRANCH  18  19
ATOM     19  N   UNL     1      46.826   6.255  11.743  0.00  0.00    +0.000 N 
ATOM     20  C   UNL     1      45.456   6.258  11.728  0.00  0.00    +0.000 C 
ATOM     21  O   UNL     1      44.780   7.256  11.960  0.00  0.00    +0.000 OA
ATOM     22  H   UNL     1      47.273   5.364  11.926  0.00  0.00    +0.000 HD
BRANCH  20  23
ATOM     23  C   UNL     1      44.837   4.977  11.353  0.00  0.00    +0.000 A 
ATOM     24  C   UNL     1      44.006   4.312  12.243  0.00  0.00    +0.000 A 
ATOM     25  S   UNL     1      43.367   2.857  11.618  0.00  0.00    +0.000 S 
ATOM     26  C   UNL     1      44.206   3.049  10.149  0.00  0.00    +0.000 A 
ATOM     27  N   UNL     1      44.123   2.117   9.168  0.00  0.00    +0.000 NA
ATOM     28  C   UNL     1      44.841   2.380   8.113  0.00  0.00    +0.000 A 
ATOM     29  N   UNL     1      45.614   3.495   7.966  0.00  0.00    +0.000 N 
ATOM     30  C   UNL     1      45.679   4.497   8.905  0.00  0.00    +0.000 A 
ATOM     31  O   UNL     1      46.295   5.531   8.695  0.00  0.00    +0.000 OA
ATOM     32  C   UNL     1      44.935   4.225  10.124  0.00  0.00    +0.000 A 
ATOM     33  H   UNL     1      46.123   3.661   7.106  0.00  0.00    +0.000 HD
ENDBRANCH  20  23
ENDBRANCH  18  19
ENDBRANCH   4  18
TORSDOF 7
ENDMDL
