MODEL 1
REMARK VINA RESULT:    -8.587      0.000      0.000
REMARK INTER + INTRA:         -13.245
REMARK INTER:                 -12.602
REMARK INTRA:                  -0.642
REMARK UNBOUND:                -0.642
REMARK  Name = 
REMARK  8 active torsions:
REMARK  status: ('A' for Active; 'I' for Inactive)
REMARK    1  A    between atoms: C_2  and  C_3
REMARK    2  A    between atoms: C_7  and  C_8
REMARK    3  A    between atoms: C_8  and  O_9
REMARK    4  A    between atoms: O_9  and  C_10
REMARK    5  A    between atoms: C_10  and  C_11
REMARK    6  A    between atoms: C_14  and  C_15
REMARK    7  A    between atoms: C_15  and  N_16
REMARK    8  A    between atoms: C_17  and  C_19
REMARK                            x       y       z     vdW  Elec       q    Type
REMARK                         _______ _______ _______ _____ _____    ______ ____
ROOT
ATOM      1  C   UNL     1      44.575   3.888  12.628  0.00  0.00    +0.000 A 
ATOM      2  C   UNL     1      44.449   5.274  12.651  0.00  0.00    +0.000 A 
ATOM      3  C   UNL     1      45.541   6.039  13.047  0.00  0.00    +0.000 A 
ATOM      4  C   UNL     1      46.727   5.410  13.431  0.00  0.00    +0.000 A 
ATOM      5  C   UNL     1      46.764   4.022  13.360  0.00  0.00    +0.000 A 
ATOM      6  N   UNL     1      45.723   3.251  12.966  0.00  0.00    +0.000 NA
ENDROOT
BRANCH   1   7
ATOM      7  C   UNL     1      43.437   3.036  12.106  0.00  0.00    +0.000 C 
BRANCH   7   8
ATOM      8  O   UNL     1      43.543   2.809  10.696  0.00  0.00    +0.000 OA
BRANCH   8   9
ATOM      9  C   UNL     1      44.005   3.967  10.000  0.00  0.00    +0.000 C 
BRANCH   9  14
ATOM     10  C   UNL     1      46.297   1.770   7.886  0.00  0.00    +0.000 A 
ATOM     11  C   UNL     1      46.969   2.729   7.124  0.00  0.00    +0.000 A 
ATOM     12  C   UNL     1      46.692   4.084   7.300  0.00  0.00    +0.000 A 
ATOM     13  C   UNL     1      45.740   4.488   8.238  0.00  0.00    +0.000 A 
ATOM     14  C   UNL     1      45.057   3.540   9.011  0.00  0.00    +0.000 A 
ATOM     15  C   UNL     1      45.341   2.177   8.825  0.00  0.00    +0.000 A 
BRANCH  10  17
ATOM     16  N   UNL     1      46.819  -0.751   7.554  0.00  0.00    +0.000 NA
ATOM     17  C   UNL     1      46.575   0.377   7.705  0.00  0.00    +0.000 C 
ENDBRANCH  10  17
ENDBRANCH   9  14
ENDBRANCH   8   9
ENDBRANCH   7   8
ENDBRANCH   1   7
BRANCH   4  18
ATOM     18  C   UNL     1      47.927   6.197  13.859  0.00  0.00    +0.000 C 
BRANCH  18  19
ATOM     19  N   UNL     1      48.023   6.272  15.294  0.00  0.00    +0.000 N 
ATOM     20  C   UNL     1      49.221   6.544  15.908  0.00  0.00    +0.000 C 
ATOM     21  O   UNL     1      50.233   6.805  15.265  0.00  0.00    +0.000 OA
ATOM     22  H   UNL     1      47.278   5.842  15.835  0.00  0.00    +0.000 HD
BRANCH  20  23
ATOM     23  C   UNL     1      49.215   6.572  17.376  0.00  0.00    +0.000 A 
ATOM     24  C   UNL     1      49.505   7.756  18.042  0.00  0.00    +0.000 A 
ATOM     25  S   UNL     1      49.420   7.623  19.740  0.00  0.00    +0.000 S 
ATOM     26  C   UNL     1      49.037   5.968  19.647  0.00  0.00    +0.000 A 
ATOM     27  N   UNL     1      48.850   5.228  20.774  0.00  0.00    +0.000 NA
ATOM     28  C   UNL     1      48.594   3.980  20.557  0.00  0.00    +0.000 A 
ATOM     29  N   UNL     1      48.500   3.410  19.316  0.00  0.00    +0.000 N 
ATOM     30  C   UNL     1      48.641   4.123  18.151  0.00  0.00    +0.000 A 
ATOM     31  O   UNL     1      48.492   3.592  17.054  0.00  0.00    +0.000 OA
ATOM     32  C   UNL     1      48.953   5.529  18.339  0.00  0.00    +0.000 A 
ATOM     33  H   UNL     1      48.283   2.428  19.215  0.00  0.00    +0.000 HD
ENDBRANCH  20  23
ENDBRANCH  18  19
ENDBRANCH   4  18
TORSDOF 8
ENDMDL
MODEL 2
REMARK VINA RESULT:    -7.801      3.209      8.935
REMARK INTER + INTRA:         -12.092
REMARK INTER:                 -10.459
REMARK INTRA:                  -1.634
REMARK UNBOUND:                -0.642
REMARK  Name = 
REMARK  8 active torsions:
REMARK  status: ('A' for Active; 'I' for Inactive)
REMARK    1  A    between atoms: C_2  and  C_3
REMARK    2  A    between atoms: C_7  and  C_8
REMARK    3  A    between atoms: C_8  and  O_9
REMARK    4  A    between atoms: O_9  and  C_10
REMARK    5  A    between atoms: C_10  and  C_11
REMARK    6  A    between atoms: C_14  and  C_15
REMARK    7  A    between atoms: C_15  and  N_16
REMARK    8  A    between atoms: C_17  and  C_19
REMARK                            x       y       z     vdW  Elec       q    Type
REMARK                         _______ _______ _______ _____ _____    ______ ____
ROOT
ATOM      1  C   UNL     1      48.983   8.088  16.027  0.00  0.00    +0.000 A 
ATOM      2  C   UNL     1      49.341   6.960  15.293  0.00  0.00    +0.000 A 
ATOM      3  C   UNL     1      48.919   6.860  13.971  0.00  0.00    +0.000 A 
ATOM      4  C   UNL     1      48.135   7.872  13.414  0.00  0.00    +0.000 A 
ATOM      5  C   UNL     1      47.841   8.967  14.218  0.00  0.00    +0.000 A 
ATOM      6  N   UNL     1      48.247   9.099  15.502  0.00  0.00    +0.000 NA
ENDROOT
BRANCH   1   7
ATOM      7  C   UNL     1      49.509   8.270  17.435  0.00  0.00    +0.000 C 
BRANCH   7   8
ATOM      8  O   UNL     1      48.663   7.645  18.406  0.00  0.00    +0.000 OA
BRANCH   8   9
ATOM      9  C   UNL     1      49.309   6.549  19.055  0.00  0.00    +0.000 C 
BRANCH   9  14
ATOM     10  C   UNL     1      49.466   3.068  17.505  0.00  0.00    +0.000 A 
ATOM     11  C   UNL     1      48.134   2.873  17.131  0.00  0.00    +0.000 A 
ATOM     12  C   UNL     1      47.187   3.870  17.367  0.00  0.00    +0.000 A 
ATOM     13  C   UNL     1      47.567   5.065  17.981  0.00  0.00    +0.000 A 
ATOM     14  C   UNL     1      48.899   5.276  18.362  0.00  0.00    +0.000 A 
ATOM     15  C   UNL     1      49.845   4.266  18.121  0.00  0.00    +0.000 A 
BRANCH  10  17
ATOM     16  N   UNL     1      51.236   1.222  17.058  0.00  0.00    +0.000 NA
ATOM     17  C   UNL     1      50.440   2.044  17.267  0.00  0.00    +0.000 C 
ENDBRANCH  10  17
ENDBRANCH   9  14
ENDBRANCH   8   9
ENDBRANCH   7   8
ENDBRANCH   1   7
BRANCH   4  18
ATOM     18  C   UNL     1      47.665   7.804  11.992  0.00  0.00    +0.000 C 
BRANCH  18  19
ATOM     19  N   UNL     1      46.958   6.579  11.731  0.00  0.00    +0.000 N 
ATOM     20  C   UNL     1      45.593   6.508  11.871  0.00  0.00    +0.000 C 
ATOM     21  O   UNL     1      44.920   7.494  12.152  0.00  0.00    +0.000 OA
ATOM     22  H   UNL     1      47.498   5.718  11.727  0.00  0.00    +0.000 HD
BRANCH  20  23
ATOM     23  C   UNL     1      44.972   5.204  11.605  0.00  0.00    +0.000 A 
ATOM     24  C   UNL     1      44.256   4.566  12.610  0.00  0.00    +0.000 A 
ATOM     25  S   UNL     1      43.572   3.082  12.123  0.00  0.00    +0.000 S 
ATOM     26  C   UNL     1      44.244   3.218  10.567  0.00  0.00    +0.000 A 
ATOM     27  N   UNL     1      44.054   2.245   9.634  0.00  0.00    +0.000 NA
ATOM     28  C   UNL     1      44.644   2.463   8.506  0.00  0.00    +0.000 A 
ATOM     29  N   UNL     1      45.400   3.570   8.225  0.00  0.00    +0.000 N 
ATOM     30  C   UNL     1      45.588   4.596   9.119  0.00  0.00    +0.000 A 
ATOM     31  O   UNL     1      46.221   5.602   8.814  0.00  0.00    +0.000 OA
ATOM     32  C   UNL     1      44.962   4.389  10.413  0.00  0.00    +0.000 A 
ATOM     33  H   UNL     1      45.825   3.687   7.316  0.00  0.00    +0.000 HD
ENDBRANCH  20  23
ENDBRANCH  18  19
ENDBRANCH   4  18
TORSDOF 8
ENDMDL
MODEL 3
REMARK VINA RESULT:    -7.747      2.167      2.525
REMARK INTER + INTRA:         -12.012
REMARK INTER:                 -10.846
REMARK INTRA:                  -1.166
REMARK UNBOUND:                -0.642
REMARK  Name = 
REMARK  8 active torsions:
REMARK  status: ('A' for Active; 'I' for Inactive)
REMARK    1  A    between atoms: C_2  and  C_3
REMARK    2  A    between atoms: C_7  and  C_8
REMARK    3  A    between atoms: C_8  and  O_9
REMARK    4  A    between atoms: O_9  and  C_10
REMARK    5  A    between atoms: C_10  and  C_11
REMARK    6  A    between atoms: C_14  and  C_15
REMARK    7  A    between atoms: C_15  and  N_16
REMARK    8  A    between atoms: C_17  and  C_19
REMARK                            x       y       z     vdW  Elec       q    Type
REMARK                         _______ _______ _______ _____ _____    ______ ____
ROOT
ATOM      1  C   UNL     1      45.102   5.475  12.963  0.00  0.00    +0.000 A 
ATOM      2  C   UNL     1      46.339   4.907  13.254  0.00  0.00    +0.000 A 
ATOM      3  C   UNL     1      47.450   5.738  13.357  0.00  0.00    +0.000 A 
ATOM      4  C   UNL     1      47.312   7.112  13.148  0.00  0.00    +0.000 A 
ATOM      5  C   UNL     1      46.034   7.590  12.878  0.00  0.00    +0.000 A 
ATOM      6  N   UNL     1      44.933   6.809  12.785  0.00  0.00    +0.000 NA
ENDROOT
BRANCH   1   7
ATOM      7  C   UNL     1      43.860   4.610  12.943  0.00  0.00    +0.000 C 
BRANCH   7   8
ATOM      8  O   UNL     1      44.091   3.361  12.281  0.00  0.00    +0.000 OA
BRANCH   8   9
ATOM      9  C   UNL     1      43.381   3.269  11.045  0.00  0.00    +0.000 C 
BRANCH   9  14
ATOM     10  C   UNL     1      45.847   2.036   8.411  0.00  0.00    +0.000 A 
ATOM     11  C   UNL     1      46.195   3.232   7.779  0.00  0.00    +0.000 A 
ATOM     12  C   UNL     1      45.643   4.438   8.210  0.00  0.00    +0.000 A 
ATOM     13  C   UNL     1      44.739   4.454   9.275  0.00  0.00    +0.000 A 
ATOM     14  C   UNL     1      44.381   3.263   9.919  0.00  0.00    +0.000 A 
ATOM     15  C   UNL     1      44.939   2.053   9.477  0.00  0.00    +0.000 A 
BRANCH  10  17
ATOM     16  N   UNL     1      46.879  -0.205   7.602  0.00  0.00    +0.000 NA
ATOM     17  C   UNL     1      46.408   0.794   7.968  0.00  0.00    +0.000 C 
ENDBRANCH  10  17
ENDBRANCH   9  14
ENDBRANCH   8   9
ENDBRANCH   7   8
ENDBRANCH   1   7
BRANCH   4  18
ATOM     18  C   UNL     1      48.482   8.041  13.255  0.00  0.00    +0.000 C 
BRANCH  18  19
ATOM     19  N   UNL     1      49.582   7.422  13.946  0.00  0.00    +0.000 N 
ATOM     20  C   UNL     1      49.829   7.698  15.269  0.00  0.00    +0.000 C 
ATOM     21  O   UNL     1      49.087   8.419  15.929  0.00  0.00    +0.000 OA
ATOM     22  H   UNL     1      50.324   7.021  13.380  0.00  0.00    +0.000 HD
BRANCH  20  23
ATOM     23  C   UNL     1      50.991   7.035  15.874  0.00  0.00    +0.000 A 
ATOM     24  C   UNL     1      52.271   7.479  15.567  0.00  0.00    +0.000 A 
ATOM     25  S   UNL     1      53.503   6.624  16.381  0.00  0.00    +0.000 S 
ATOM     26  C   UNL     1      52.372   5.602  17.137  0.00  0.00    +0.000 A 
ATOM     27  N   UNL     1      52.776   4.606  17.972  0.00  0.00    +0.000 NA
ATOM     28  C   UNL     1      51.814   3.889  18.452  0.00  0.00    +0.000 A 
ATOM     29  N   UNL     1      50.487   4.085  18.180  0.00  0.00    +0.000 N 
ATOM     30  C   UNL     1      50.028   5.100  17.376  0.00  0.00    +0.000 A 
ATOM     31  O   UNL     1      48.827   5.283  17.200  0.00  0.00    +0.000 OA
ATOM     32  C   UNL     1      51.072   5.923  16.791  0.00  0.00    +0.000 A 
ATOM     33  H   UNL     1      49.782   3.496  18.599  0.00  0.00    +0.000 HD
ENDBRANCH  20  23
ENDBRANCH  18  19
ENDBRANCH   4  18
TORSDOF 8
ENDMDL
MODEL 4
REMARK VINA RESULT:    -7.715      3.252      9.042
REMARK INTER + INTRA:         -11.965
REMARK INTER:                 -10.778
REMARK INTRA:                  -1.187
REMARK UNBOUND:                -0.642
REMARK  Name = 
REMARK  8 active torsions:
REMARK  status: ('A' for Active; 'I' for Inactive)
REMARK    1  A    between atoms: C_2  and  C_3
REMARK    2  A    between atoms: C_7  and  C_8
REMARK    3  A    between atoms: C_8  and  O_9
REMARK    4  A    between atoms: O_9  and  C_10
REMARK    5  A    between atoms: C_10  and  C_11
REMARK    6  A    between atoms: C_14  and  C_15
REMARK    7  A    between atoms: C_15  and  N_16
REMARK    8  A    between atoms: C_17  and  C_19
REMARK                            x       y       z     vdW  Elec       q    Type
REMARK                         _______ _______ _______ _____ _____    ______ ____
ROOT
ATOM      1  C   UNL     1      50.798   7.606  15.029  0.00  0.00    +0.000 A 
ATOM      2  C   UNL     1      51.084   8.516  14.014  0.00  0.00    +0.000 A 
ATOM      3  C   UNL     1      50.195   8.633  12.950  0.00  0.00    +0.000 A 
ATOM      4  C   UNL     1      49.053   7.831  12.908  0.00  0.00    +0.000 A 
ATOM      5  C   UNL     1      48.843   6.964  13.974  0.00  0.00    +0.000 A 
ATOM      6  N   UNL     1      49.682   6.837  15.029  0.00  0.00    +0.000 NA
ENDROOT
BRANCH   1   7
ATOM      7  C   UNL     1      51.695   7.529  16.246  0.00  0.00    +0.000 C 
BRANCH   7   8
ATOM      8  O   UNL     1      52.318   6.245  16.368  0.00  0.00    +0.000 OA
BRANCH   8   9
ATOM      9  C   UNL     1      52.174   5.702  17.681  0.00  0.00    +0.000 C 
BRANCH   9  14
ATOM     10  C   UNL     1      49.304   3.210  17.371  0.00  0.00    +0.000 A 
ATOM     11  C   UNL     1      49.996   1.997  17.325  0.00  0.00    +0.000 A 
ATOM     12  C   UNL     1      51.388   1.983  17.408  0.00  0.00    +0.000 A 
ATOM     13  C   UNL     1      52.095   3.180  17.533  0.00  0.00    +0.000 A 
ATOM     14  C   UNL     1      51.416   4.404  17.580  0.00  0.00    +0.000 A 
ATOM     15  C   UNL     1      50.014   4.410  17.495  0.00  0.00    +0.000 A 
BRANCH  10  17
ATOM     16  N   UNL     1      46.713   3.265  17.204  0.00  0.00    +0.000 NA
ATOM     17  C   UNL     1      47.874   3.230  17.282  0.00  0.00    +0.000 C 
ENDBRANCH  10  17
ENDBRANCH   9  14
ENDBRANCH   8   9
ENDBRANCH   7   8
ENDBRANCH   1   7
BRANCH   4  18
ATOM     18  C   UNL     1      48.068   7.931  11.783  0.00  0.00    +0.000 C 
BRANCH  18  19
ATOM     19  N   UNL     1      47.262   6.743  11.684  0.00  0.00    +0.000 N 
ATOM     20  C   UNL     1      45.891   6.814  11.735  0.00  0.00    +0.000 C 
ATOM     21  O   UNL     1      45.301   7.888  11.794  0.00  0.00    +0.000 OA
ATOM     22  H   UNL     1      47.716   5.853  11.866  0.00  0.00    +0.000 HD
BRANCH  20  23
ATOM     23  C   UNL     1      45.163   5.542  11.651  0.00  0.00    +0.000 A 
ATOM     24  C   UNL     1      44.463   5.076  12.757  0.00  0.00    +0.000 A 
ATOM     25  S   UNL     1      43.646   3.605  12.478  0.00  0.00    +0.000 S 
ATOM     26  C   UNL     1      44.234   3.516  10.885  0.00  0.00    +0.000 A 
ATOM     27  N   UNL     1      43.921   2.464  10.080  0.00  0.00    +0.000 NA
ATOM     28  C   UNL     1      44.459   2.510   8.906  0.00  0.00    +0.000 A 
ATOM     29  N   UNL     1      45.274   3.516   8.463  0.00  0.00    +0.000 N 
ATOM     30  C   UNL     1      45.587   4.616   9.223  0.00  0.00    +0.000 A 
ATOM     31  O   UNL     1      46.273   5.530   8.774  0.00  0.00    +0.000 OA
ATOM     32  C   UNL     1      45.025   4.604  10.562  0.00  0.00    +0.000 A 
ATOM     33  H   UNL     1      45.653   3.499   7.527  0.00  0.00    +0.000 HD
ENDBRANCH  20  23
ENDBRANCH  18  19
ENDBRANCH   4  18
TORSDOF 8
ENDMDL
MODEL 5
REMARK VINA RESULT:    -7.650      3.310      4.741
REMARK INTER + INTRA:         -11.870
REMARK INTER:                 -10.528
REMARK INTRA:                  -1.341
REMARK UNBOUND:                -0.642
REMARK  Name = 
REMARK  8 active torsions:
REMARK  status: ('A' for Active; 'I' for Inactive)
REMARK    1  A    between atoms: C_2  and  C_3
REMARK    2  A    between atoms: C_7  and  C_8
REMARK    3  A    between atoms: C_8  and  O_9
REMARK    4  A    between atoms: O_9  and  C_10
REMARK    5  A    between atoms: C_10  and  C_11
REMARK    6  A    between atoms: C_14  and  C_15
REMARK    7  A    between atoms: C_15  and  N_16
REMARK    8  A    between atoms: C_17  and  C_19
REMARK                            x       y       z     vdW  Elec       q    Type
REMARK                         _______ _______ _______ _____ _____    ______ ____
ROOT
ATOM      1  C   UNL     1      47.442   5.763  13.795  0.00  0.00    +0.000 A 
ATOM      2  C   UNL     1      46.824   4.515  13.821  0.00  0.00    +0.000 A 
ATOM      3  C   UNL     1      46.944   3.732  14.965  0.00  0.00    +0.000 A 
ATOM      4  C   UNL     1      47.690   4.198  16.050  0.00  0.00    +0.000 A 
ATOM      5  C   UNL     1      48.256   5.463  15.939  0.00  0.00    +0.000 A 
ATOM      6  N   UNL     1      48.147   6.252  14.845  0.00  0.00    +0.000 NA
ENDROOT
BRANCH   1   7
ATOM      7  C   UNL     1      47.246   6.676  12.604  0.00  0.00    +0.000 C 
BRANCH   7   8
ATOM      8  O   UNL     1      45.952   7.289  12.608  0.00  0.00    +0.000 OA
BRANCH   8   9
ATOM      9  C   UNL     1      45.270   7.112  11.366  0.00  0.00    +0.000 C 
BRANCH   9  14
ATOM     10  C   UNL     1      44.578   3.483  10.419  0.00  0.00    +0.000 A 
ATOM     11  C   UNL     1      43.591   3.140  11.346  0.00  0.00    +0.000 A 
ATOM     12  C   UNL     1      43.139   4.084  12.269  0.00  0.00    +0.000 A 
ATOM     13  C   UNL     1      43.675   5.374  12.271  0.00  0.00    +0.000 A 
ATOM     14  C   UNL     1      44.664   5.733  11.348  0.00  0.00    +0.000 A 
ATOM     15  C   UNL     1      45.115   4.776  10.423  0.00  0.00    +0.000 A 
BRANCH  10  17
ATOM     16  N   UNL     1      45.447   1.733   8.709  0.00  0.00    +0.000 NA
ATOM     17  C   UNL     1      45.048   2.515   9.472  0.00  0.00    +0.000 C 
ENDBRANCH  10  17
ENDBRANCH   9  14
ENDBRANCH   8   9
ENDBRANCH   7   8
ENDBRANCH   1   7
BRANCH   4  18
ATOM     18  C   UNL     1      47.838   3.388  17.302  0.00  0.00    +0.000 C 
BRANCH  18  19
ATOM     19  N   UNL     1      49.223   3.201  17.646  0.00  0.00    +0.000 N 
ATOM     20  C   UNL     1      50.001   2.293  16.970  0.00  0.00    +0.000 C 
ATOM     21  O   UNL     1      49.572   1.663  16.008  0.00  0.00    +0.000 OA
ATOM     22  H   UNL     1      49.526   3.526  18.559  0.00  0.00    +0.000 HD
BRANCH  20  23
ATOM     23  C   UNL     1      51.394   2.160  17.416  0.00  0.00    +0.000 A 
ATOM     24  C   UNL     1      51.936   0.896  17.607  0.00  0.00    +0.000 A 
ATOM     25  S   UNL     1      53.572   0.920  18.090  0.00  0.00    +0.000 S 
ATOM     26  C   UNL     1      53.600   2.621  18.104  0.00  0.00    +0.000 A 
ATOM     27  N   UNL     1      54.725   3.300  18.460  0.00  0.00    +0.000 NA
ATOM     28  C   UNL     1      54.597   4.586  18.455  0.00  0.00    +0.000 A 
ATOM     29  N   UNL     1      53.449   5.252  18.118  0.00  0.00    +0.000 N 
ATOM     30  C   UNL     1      52.302   4.612  17.715  0.00  0.00    +0.000 A 
ATOM     31  O   UNL     1      51.309   5.242  17.362  0.00  0.00    +0.000 OA
ATOM     32  C   UNL     1      52.386   3.163  17.724  0.00  0.00    +0.000 A 
ATOM     33  H   UNL     1      53.418   6.262  18.122  0.00  0.00    +0.000 HD
ENDBRANCH  20  23
ENDBRANCH  18  19
ENDBRANCH   4  18
TORSDOF 8
ENDMDL
MODEL 6
REMARK VINA RESULT:    -7.640      2.185      2.865
REMARK INTER + INTRA:         -11.855
REMARK INTER:                 -10.751
REMARK INTRA:                  -1.104
REMARK UNBOUND:                -0.642
REMARK  Name = 
REMARK  8 active torsions:
REMARK  status: ('A' for Active; 'I' for Inactive)
REMARK    1  A    between atoms: C_2  and  C_3
REMARK    2  A    between atoms: C_7  and  C_8
REMARK    3  A    between atoms: C_8  and  O_9
REMARK    4  A    between atoms: O_9  and  C_10
REMARK    5  A    between atoms: C_10  and  C_11
REMARK    6  A    between atoms: C_14  and  C_15
REMARK    7  A    between atoms: C_15  and  N_16
REMARK    8  A    between atoms: C_17  and  C_19
REMARK                            x       y       z     vdW  Elec       q    Type
REMARK                         _______ _______ _______ _____ _____    ______ ____
ROOT
ATOM      1  C   UNL     1      44.569   4.140  12.689  0.00  0.00    +0.000 A 
ATOM      2  C   UNL     1      44.302   5.504  12.607  0.00  0.00    +0.000 A 
ATOM      3  C   UNL     1      45.311   6.405  12.933  0.00  0.00    +0.000 A 
ATOM      4  C   UNL     1      46.555   5.931  13.353  0.00  0.00    +0.000 A 
ATOM      5  C   UNL     1      46.734   4.553  13.389  0.00  0.00    +0.000 A 
ATOM      6  N   UNL     1      45.778   3.652  13.065  0.00  0.00    +0.000 NA
ENDROOT
BRANCH   1   7
ATOM      7  C   UNL     1      43.524   3.138  12.246  0.00  0.00    +0.000 C 
BRANCH   7   8
ATOM      8  O   UNL     1      43.328   3.164  10.827  0.00  0.00    +0.000 OA
BRANCH   8   9
ATOM      9  C   UNL     1      44.140   2.198  10.157  0.00  0.00    +0.000 C 
BRANCH   9  14
ATOM     10  C   UNL     1      46.764   2.873   7.473  0.00  0.00    +0.000 A 
ATOM     11  C   UNL     1      46.792   4.270   7.461  0.00  0.00    +0.000 A 
ATOM     12  C   UNL     1      45.973   4.994   8.328  0.00  0.00    +0.000 A 
ATOM     13  C   UNL     1      45.121   4.325   9.209  0.00  0.00    +0.000 A 
ATOM     14  C   UNL     1      45.081   2.925   9.233  0.00  0.00    +0.000 A 
ATOM     15  C   UNL     1      45.907   2.204   8.356  0.00  0.00    +0.000 A 
BRANCH  10  17
ATOM     16  N   UNL     1      48.275   1.502   5.867  0.00  0.00    +0.000 NA
ATOM     17  C   UNL     1      47.600   2.125   6.582  0.00  0.00    +0.000 C 
ENDBRANCH  10  17
ENDBRANCH   9  14
ENDBRANCH   8   9
ENDBRANCH   7   8
ENDBRANCH   1   7
BRANCH   4  18
ATOM     18  C   UNL     1      47.669   6.868  13.708  0.00  0.00    +0.000 C 
BRANCH  18  19
ATOM     19  N   UNL     1      48.598   6.258  14.623  0.00  0.00    +0.000 N 
ATOM     20  C   UNL     1      48.892   6.849  15.829  0.00  0.00    +0.000 C 
ATOM     21  O   UNL     1      48.326   7.871  16.202  0.00  0.00    +0.000 OA
ATOM     22  H   UNL     1      49.233   5.560  14.249  0.00  0.00    +0.000 HD
BRANCH  20  23
ATOM     23  C   UNL     1      49.871   6.158  16.677  0.00  0.00    +0.000 A 
ATOM     24  C   UNL     1      49.429   5.309  17.684  0.00  0.00    +0.000 A 
ATOM     25  S   UNL     1      50.695   4.563  18.550  0.00  0.00    +0.000 S 
ATOM     26  C   UNL     1      51.876   5.380  17.640  0.00  0.00    +0.000 A 
ATOM     27  N   UNL     1      53.202   5.203  17.893  0.00  0.00    +0.000 NA
ATOM     28  C   UNL     1      53.987   5.908  17.146  0.00  0.00    +0.000 A 
ATOM     29  N   UNL     1      53.565   6.766  16.166  0.00  0.00    +0.000 N 
ATOM     30  C   UNL     1      52.241   6.949  15.849  0.00  0.00    +0.000 A 
ATOM     31  O   UNL     1      51.900   7.681  14.924  0.00  0.00    +0.000 OA
ATOM     32  C   UNL     1      51.314   6.195  16.674  0.00  0.00    +0.000 A 
ATOM     33  H   UNL     1      54.232   7.280  15.608  0.00  0.00    +0.000 HD
ENDBRANCH  20  23
ENDBRANCH  18  19
ENDBRANCH   4  18
TORSDOF 8
ENDMDL
MODEL 7
REMARK VINA RESULT:    -7.152      1.812      2.492
REMARK INTER + INTRA:         -11.139
REMARK INTER:                 -10.708
REMARK INTRA:                  -0.431
REMARK UNBOUND:                -0.642
REMARK  Name = 
REMARK  8 active torsions:
REMARK  status: ('A' for Active; 'I' for Inactive)
REMARK    1  A    between atoms: C_2  and  C_3
REMARK    2  A    between atoms: C_7  and  C_8
REMARK    3  A    between atoms: C_8  and  O_9
REMARK    4  A    between atoms: O_9  and  C_10
REMARK    5  A    between atoms: C_10  and  C_11
REMARK    6  A    between atoms: C_14  and  C_15
REMARK    7  A    between atoms: C_15  and  N_16
REMARK    8  A    between atoms: C_17  and  C_19
REMARK                            x       y       z     vdW  Elec       q    Type
REMARK                         _______ _______ _______ _____ _____    ______ ____
ROOT
ATOM      1  C   UNL     1      44.587   4.104  12.767  0.00  0.00    +0.000 A 
ATOM      2  C   UNL     1      44.448   5.481  12.610  0.00  0.00    +0.000 A 
ATOM      3  C   UNL     1      45.512   6.306  12.958  0.00  0.00    +0.000 A 
ATOM      4  C   UNL     1      46.684   5.748  13.473  0.00  0.00    +0.000 A 
ATOM      5  C   UNL     1      46.737   4.362  13.578  0.00  0.00    +0.000 A 
ATOM      6  N   UNL     1      45.724   3.533  13.236  0.00  0.00    +0.000 NA
ENDROOT
BRANCH   1   7
ATOM      7  C   UNL     1      43.484   3.177  12.305  0.00  0.00    +0.000 C 
BRANCH   7   8
ATOM      8  O   UNL     1      43.301   3.231  10.885  0.00  0.00    +0.000 OA
BRANCH   8   9
ATOM      9  C   UNL     1      44.086   2.250  10.206  0.00  0.00    +0.000 C 
BRANCH   9  14
ATOM     10  C   UNL     1      46.724   2.873   7.523  0.00  0.00    +0.000 A 
ATOM     11  C   UNL     1      46.754   4.270   7.486  0.00  0.00    +0.000 A 
ATOM     12  C   UNL     1      45.932   5.010   8.335  0.00  0.00    +0.000 A 
ATOM     13  C   UNL     1      45.075   4.358   9.224  0.00  0.00    +0.000 A 
ATOM     14  C   UNL     1      45.033   2.959   9.274  0.00  0.00    +0.000 A 
ATOM     15  C   UNL     1      45.863   2.222   8.414  0.00  0.00    +0.000 A 
BRANCH  10  17
ATOM     16  N   UNL     1      48.260   1.500   5.943  0.00  0.00    +0.000 NA
ATOM     17  C   UNL     1      47.564   2.109   6.649  0.00  0.00    +0.000 C 
ENDBRANCH  10  17
ENDBRANCH   9  14
ENDBRANCH   8   9
ENDBRANCH   7   8
ENDBRANCH   1   7
BRANCH   4  18
ATOM     18  C   UNL     1      47.855   6.601  13.854  0.00  0.00    +0.000 C 
BRANCH  18  19
ATOM     19  N   UNL     1      48.329   6.283  15.175  0.00  0.00    +0.000 N 
ATOM     20  C   UNL     1      48.651   7.276  16.068  0.00  0.00    +0.000 C 
ATOM     21  O   UNL     1      48.481   8.462  15.804  0.00  0.00    +0.000 OA
ATOM     22  H   UNL     1      48.691   5.346  15.329  0.00  0.00    +0.000 HD
BRANCH  20  23
ATOM     23  C   UNL     1      49.150   6.844  17.379  0.00  0.00    +0.000 A 
ATOM     24  C   UNL     1      49.146   5.494  17.706  0.00  0.00    +0.000 A 
ATOM     25  S   UNL     1      49.791   5.164  19.250  0.00  0.00    +0.000 S 
ATOM     26  C   UNL     1      50.058   6.816  19.554  0.00  0.00    +0.000 A 
ATOM     27  N   UNL     1      50.584   7.234  20.738  0.00  0.00    +0.000 NA
ATOM     28  C   UNL     1      50.704   8.516  20.846  0.00  0.00    +0.000 A 
ATOM     29  N   UNL     1      50.355   9.415  19.874  0.00  0.00    +0.000 N 
ATOM     30  C   UNL     1      49.857   9.039  18.650  0.00  0.00    +0.000 A 
ATOM     31  O   UNL     1      49.610   9.868  17.778  0.00  0.00    +0.000 OA
ATOM     32  C   UNL     1      49.680   7.607  18.485  0.00  0.00    +0.000 A 
ATOM     33  H   UNL     1      50.487  10.406  20.016  0.00  0.00    +0.000 HD
ENDBRANCH  20  23
ENDBRANCH  18  19
ENDBRANCH   4  18
TORSDOF 8
ENDMDL
MODEL 8
REMARK VINA RESULT:    -6.737      3.945      8.428
REMARK INTER + INTRA:         -10.530
REMARK INTER:                  -8.624
REMARK INTRA:                  -1.906
REMARK UNBOUND:                -0.642
REMARK  Name = 
REMARK  8 active torsions:
REMARK  status: ('A' for Active; 'I' for Inactive)
REMARK    1  A    between atoms: C_2  and  C_3
REMARK    2  A    between atoms: C_7  and  C_8
REMARK    3  A    between atoms: C_8  and  O_9
REMARK    4  A    between atoms: O_9  and  C_10
REMARK    5  A    between atoms: C_10  and  C_11
REMARK    6  A    between atoms: C_14  and  C_15
REMARK    7  A    between atoms: C_15  and  N_16
REMARK    8  A    between atoms: C_17  and  C_19
REMARK                            x       y       z     vdW  Elec       q    Type
REMARK                         _______ _______ _______ _____ _____    ______ ____
ROOT
ATOM      1  C   UNL     1      51.605   7.878  15.428  0.00  0.00    +0.000 A 
ATOM      2  C   UNL     1      52.100   8.158  14.157  0.00  0.00    +0.000 A 
ATOM      3  C   UNL     1      51.213   8.574  13.169  0.00  0.00    +0.000 A 
ATOM      4  C   UNL     1      49.851   8.682  13.460  0.00  0.00    +0.000 A 
ATOM      5  C   UNL     1      49.453   8.397  14.761  0.00  0.00    +0.000 A 
ATOM      6  N   UNL     1      50.293   8.003  15.746  0.00  0.00    +0.000 NA
ENDROOT
BRANCH   1   7
ATOM      7  C   UNL     1      52.560   7.519  16.547  0.00  0.00    +0.000 C 
BRANCH   7   8
ATOM      8  O   UNL     1      52.721   6.102  16.677  0.00  0.00    +0.000 OA
BRANCH   8   9
ATOM      9  C   UNL     1      52.243   5.621  17.933  0.00  0.00    +0.000 C 
BRANCH   9  14
ATOM     10  C   UNL     1      49.242   3.397  17.167  0.00  0.00    +0.000 A 
ATOM     11  C   UNL     1      49.832   2.131  17.158  0.00  0.00    +0.000 A 
ATOM     12  C   UNL     1      51.197   1.994  17.412  0.00  0.00    +0.000 A 
ATOM     13  C   UNL     1      51.978   3.122  17.673  0.00  0.00    +0.000 A 
ATOM     14  C   UNL     1      51.401   4.397  17.686  0.00  0.00    +0.000 A 
ATOM     15  C   UNL     1      50.026   4.526  17.427  0.00  0.00    +0.000 A 
BRANCH  10  17
ATOM     16  N   UNL     1      46.702   3.670  16.703  0.00  0.00    +0.000 NA
ATOM     17  C   UNL     1      47.841   3.542  16.902  0.00  0.00    +0.000 C 
ENDBRANCH  10  17
ENDBRANCH   9  14
ENDBRANCH   8   9
ENDBRANCH   7   8
ENDBRANCH   1   7
BRANCH   4  18
ATOM     18  C   UNL     1      48.865   9.132  12.426  0.00  0.00    +0.000 C 
BRANCH  18  19
ATOM     19  N   UNL     1      47.906   8.100  12.131  0.00  0.00    +0.000 N 
ATOM     20  C   UNL     1      46.613   8.186  12.589  0.00  0.00    +0.000 C 
ATOM     21  O   UNL     1      46.207   9.170  13.199  0.00  0.00    +0.000 OA
ATOM     22  H   UNL     1      48.266   7.195  11.841  0.00  0.00    +0.000 HD
BRANCH  20  23
ATOM     23  C   UNL     1      45.722   7.068  12.255  0.00  0.00    +0.000 A 
ATOM     24  C   UNL     1      44.551   7.311  11.549  0.00  0.00    +0.000 A 
ATOM     25  S   UNL     1      43.651   5.901  11.214  0.00  0.00    +0.000 S 
ATOM     26  C   UNL     1      44.771   4.922  12.039  0.00  0.00    +0.000 A 
ATOM     27  N   UNL     1      44.581   3.579  12.149  0.00  0.00    +0.000 NA
ATOM     28  C   UNL     1      45.493   2.964  12.826  0.00  0.00    +0.000 A 
ATOM     29  N   UNL     1      46.581   3.570  13.395  0.00  0.00    +0.000 N 
ATOM     30  C   UNL     1      46.837   4.914  13.278  0.00  0.00    +0.000 A 
ATOM     31  O   UNL     1      47.854   5.415  13.750  0.00  0.00    +0.000 OA
ATOM     32  C   UNL     1      45.828   5.657  12.544  0.00  0.00    +0.000 A 
ATOM     33  H   UNL     1      47.267   3.028  13.902  0.00  0.00    +0.000 HD
ENDBRANCH  20  23
ENDBRANCH  18  19
ENDBRANCH   4  18
TORSDOF 8
ENDMDL
MODEL 9
REMARK VINA RESULT:    -6.605      2.982      4.741
REMARK INTER + INTRA:         -10.337
REMARK INTER:                  -9.432
REMARK INTRA:                  -0.905
REMARK UNBOUND:                -0.642
REMARK  Name = 
REMARK  8 active torsions:
REMARK  status: ('A' for Active; 'I' for Inactive)
REMARK    1  A    between atoms: C_2  and  C_3
REMARK    2  A    between atoms: C_7  and  C_8
REMARK    3  A    between atoms: C_8  and  O_9
REMARK    4  A    between atoms: O_9  and  C_10
REMARK    5  A    between atoms: C_10  and  C_11
REMARK    6  A    between atoms: C_14  and  C_15
REMARK    7  A    between atoms: C_15  and  N_16
REMARK    8  A    between atoms: C_17  and  C_19
REMARK                            x       y       z     vdW  Elec       q    Type
REMARK                         _______ _______ _______ _____ _____    ______ ____
ROOT
ATOM      1  C   UNL     1      48.400   7.172  14.292  0.00  0.00    +0.000 A 
ATOM      2  C   UNL     1      48.724   8.269  15.087  0.00  0.00    +0.000 A 
ATOM      3  C   UNL     1      48.925   8.074  16.449  0.00  0.00    +0.000 A 
ATOM      4  C   UNL     1      48.778   6.797  16.997  0.00  0.00    +0.000 A 
ATOM      5  C   UNL     1      48.469   5.761  16.123  0.00  0.00    +0.000 A 
ATOM      6  N   UNL     1      48.281   5.917  14.792  0.00  0.00    +0.000 NA
ENDROOT
BRANCH   1   7
ATOM      7  C   UNL     1      48.274   7.338  12.793  0.00  0.00    +0.000 C 
BRANCH   7   8
ATOM      8  O   UNL     1      47.385   6.371  12.222  0.00  0.00    +0.000 OA
BRANCH   8   9
ATOM      9  C   UNL     1      46.055   6.876  12.093  0.00  0.00    +0.000 C 
BRANCH   9  14
ATOM     10  C   UNL     1      44.393   3.671  10.866  0.00  0.00    +0.000 A 
ATOM     11  C   UNL     1      43.396   3.492  11.828  0.00  0.00    +0.000 A 
ATOM     12  C   UNL     1      43.251   4.413  12.866  0.00  0.00    +0.000 A 
ATOM     13  C   UNL     1      44.105   5.516  12.948  0.00  0.00    +0.000 A 
ATOM     14  C   UNL     1      45.110   5.709  11.991  0.00  0.00    +0.000 A 
ATOM     15  C   UNL     1      45.249   4.775  10.951  0.00  0.00    +0.000 A 
BRANCH  10  17
ATOM     16  N   UNL     1      44.669   1.970   8.924  0.00  0.00    +0.000 NA
ATOM     17  C   UNL     1      44.548   2.725   9.801  0.00  0.00    +0.000 C 
ENDBRANCH  10  17
ENDBRANCH   9  14
ENDBRANCH   8   9
ENDBRANCH   7   8
ENDBRANCH   1   7
BRANCH   4  18
ATOM     18  C   UNL     1      48.990   6.544  18.458  0.00  0.00    +0.000 C 
BRANCH  18  19
ATOM     19  N   UNL     1      49.956   5.499  18.675  0.00  0.00    +0.000 N 
ATOM     20  C   UNL     1      51.297   5.726  18.483  0.00  0.00    +0.000 C 
ATOM     21  O   UNL     1      51.729   6.837  18.193  0.00  0.00    +0.000 OA
ATOM     22  H   UNL     1      49.616   4.542  18.685  0.00  0.00    +0.000 HD
BRANCH  20  23
ATOM     23  C   UNL     1      52.196   4.587  18.706  0.00  0.00    +0.000 A 
ATOM     24  C   UNL     1      53.350   4.760  19.460  0.00  0.00    +0.000 A 
ATOM     25  S   UNL     1      54.261   3.331  19.651  0.00  0.00    +0.000 S 
ATOM     26  C   UNL     1      53.169   2.440  18.698  0.00  0.00    +0.000 A 
ATOM     27  N   UNL     1      53.378   1.120  18.441  0.00  0.00    +0.000 NA
ATOM     28  C   UNL     1      52.487   0.577  17.679  0.00  0.00    +0.000 A 
ATOM     29  N   UNL     1      51.402   1.232  17.161  0.00  0.00    +0.000 N 
ATOM     30  C   UNL     1      51.128   2.552  17.423  0.00  0.00    +0.000 A 
ATOM     31  O   UNL     1      50.114   3.093  16.991  0.00  0.00    +0.000 OA
ATOM     32  C   UNL     1      52.113   3.217  18.258  0.00  0.00    +0.000 A 
ATOM     33  H   UNL     1      50.733   0.745  16.581  0.00  0.00    +0.000 HD
ENDBRANCH  20  23
ENDBRANCH  18  19
ENDBRANCH   4  18
TORSDOF 8
ENDMDL
