MODEL 1
REMARK VINA RESULT:    -7.475      0.000      0.000
REMARK INTER + INTRA:         -10.066
REMARK INTER:                  -9.441
REMARK INTRA:                  -0.625
REMARK UNBOUND:                -0.625
REMARK  Name = 
REMARK  5 active torsions:
REMARK  status: ('A' for Active; 'I' for Inactive)
REMARK    1  A    between atoms: N_1  and  C_2
REMARK    2  A    between atoms: C_2  and  C_3
REMARK    3  A    between atoms: C_3  and  C_4
REMARK    4  A    between atoms: C_7  and  C_8
REMARK    5  A    between atoms: C_8  and  N_9
REMARK                            x       y       z     vdW  Elec       q    Type
REMARK                         _______ _______ _______ _____ _____    ______ ____
ROOT
ATOM      1  C   UNL     1      46.097   2.365   7.806  0.00  0.00    +0.000 A 
ATOM      2  C   UNL     1      45.294   1.755   8.777  0.00  0.00    +0.000 A 
ATOM      3  C   UNL     1      44.603   2.526   9.715  0.00  0.00    +0.000 A 
ATOM      4  C   UNL     1      44.708   3.924   9.705  0.00  0.00    +0.000 A 
ATOM      5  C   UNL     1      45.493   4.531   8.715  0.00  0.00    +0.000 A 
ATOM      6  C   UNL     1      46.175   3.760   7.770  0.00  0.00    +0.000 A 
ENDROOT
BRANCH   1   7
ATOM      7  C   UNL     1      46.852   1.525   6.804  0.00  0.00    +0.000 C 
BRANCH   7   8
ATOM      8  C   UNL     1      48.206   2.146   6.447  0.00  0.00    +0.000 C 
BRANCH   8   9
ATOM      9  N   UNL     1      48.274   2.478   5.024  0.00  0.00    +0.000 NA
ATOM     10  H   UNL     1      48.907   1.829   4.559  0.00  0.00    +0.000 HD
ATOM     11  H   UNL     1      48.682   3.405   4.909  0.00  0.00    +0.000 HD
ENDBRANCH   8   9
ENDBRANCH   7   8
ENDBRANCH   1   7
BRANCH   4  12
ATOM     12  C   UNL     1      43.999   4.768  10.734  0.00  0.00    +0.000 C 
BRANCH  12  13
ATOM     13  N   UNL     1      44.917   5.574  11.534  0.00  0.00    +0.000 N 
ATOM     14  C   UNL     1      44.927   6.950  11.552  0.00  0.00    +0.000 A 
ATOM     15  C   UNL     1      45.798   7.362  12.535  0.00  0.00    +0.000 A 
ATOM     16  C   UNL     1      46.335   6.199  13.154  0.00  0.00    +0.000 A 
ATOM     17  C   UNL     1      47.223   5.985  14.214  0.00  0.00    +0.000 A 
ATOM     18  N   UNL     1      47.544   4.728  14.608  0.00  0.00    +0.000 NA
ATOM     19  C   UNL     1      46.999   3.685  13.947  0.00  0.00    +0.000 A 
ATOM     20  C   UNL     1      46.119   3.791  12.881  0.00  0.00    +0.000 A 
ATOM     21  C   UNL     1      45.781   5.091  12.501  0.00  0.00    +0.000 A 
ENDBRANCH  12  13
ENDBRANCH   4  12
TORSDOF 5
ENDMDL
MODEL 2
REMARK VINA RESULT:    -7.381      1.190      2.351
REMARK INTER + INTRA:          -9.948
REMARK INTER:                  -9.343
REMARK INTRA:                  -0.605
REMARK UNBOUND:                -0.625
REMARK  Name = 
REMARK  5 active torsions:
REMARK  status: ('A' for Active; 'I' for Inactive)
REMARK    1  A    between atoms: N_1  and  C_2
REMARK    2  A    between atoms: C_2  and  C_3
REMARK    3  A    between atoms: C_3  and  C_4
REMARK    4  A    between atoms: C_7  and  C_8
REMARK    5  A    between atoms: C_8  and  N_9
REMARK                            x       y       z     vdW  Elec       q    Type
REMARK                         _______ _______ _______ _____ _____    ______ ____
ROOT
ATOM      1  C   UNL     1      46.119   2.354   7.852  0.00  0.00    +0.000 A 
ATOM      2  C   UNL     1      45.299   1.723   8.795  0.00  0.00    +0.000 A 
ATOM      3  C   UNL     1      44.533   2.476   9.689  0.00  0.00    +0.000 A 
ATOM      4  C   UNL     1      44.577   3.877   9.662  0.00  0.00    +0.000 A 
ATOM      5  C   UNL     1      45.381   4.504   8.699  0.00  0.00    +0.000 A 
ATOM      6  C   UNL     1      46.138   3.751   7.798  0.00  0.00    +0.000 A 
ENDROOT
BRANCH   1   7
ATOM      7  C   UNL     1      46.955   1.534   6.900  0.00  0.00    +0.000 C 
BRANCH   7   8
ATOM      8  C   UNL     1      48.236   2.268   6.490  0.00  0.00    +0.000 C 
BRANCH   8   9
ATOM      9  N   UNL     1      48.271   2.502   5.047  0.00  0.00    +0.000 NA
ATOM     10  H   UNL     1      48.438   1.617   4.569  0.00  0.00    +0.000 HD
ATOM     11  H   UNL     1      49.061   3.103   4.817  0.00  0.00    +0.000 HD
ENDBRANCH   8   9
ENDBRANCH   7   8
ENDBRANCH   1   7
BRANCH   4  12
ATOM     12  C   UNL     1      43.786   4.703  10.644  0.00  0.00    +0.000 C 
BRANCH  12  13
ATOM     13  N   UNL     1      44.614   5.256  11.713  0.00  0.00    +0.000 N 
ATOM     14  C   UNL     1      45.365   4.500  12.583  0.00  0.00    +0.000 A 
ATOM     15  C   UNL     1      46.140   5.351  13.337  0.00  0.00    +0.000 A 
ATOM     16  C   UNL     1      45.867   6.680  12.908  0.00  0.00    +0.000 A 
ATOM     17  C   UNL     1      46.363   7.938  13.268  0.00  0.00    +0.000 A 
ATOM     18  N   UNL     1      45.917   9.062  12.653  0.00  0.00    +0.000 NA
ATOM     19  C   UNL     1      44.974   8.943  11.696  0.00  0.00    +0.000 A 
ATOM     20  C   UNL     1      44.412   7.747  11.275  0.00  0.00    +0.000 A 
ATOM     21  C   UNL     1      44.897   6.597  11.901  0.00  0.00    +0.000 A 
ENDBRANCH  12  13
ENDBRANCH   4  12
TORSDOF 5
ENDMDL
MODEL 3
REMARK VINA RESULT:    -5.831      1.909      3.268
REMARK INTER + INTRA:          -7.990
REMARK INTER:                  -7.402
REMARK INTRA:                  -0.588
REMARK UNBOUND:                -0.625
REMARK  Name = 
REMARK  5 active torsions:
REMARK  status: ('A' for Active; 'I' for Inactive)
REMARK    1  A    between atoms: N_1  and  C_2
REMARK    2  A    between atoms: C_2  and  C_3
REMARK    3  A    between atoms: C_3  and  C_4
REMARK    4  A    between atoms: C_7  and  C_8
REMARK    5  A    between atoms: C_8  and  N_9
REMARK                            x       y       z     vdW  Elec       q    Type
REMARK                         _______ _______ _______ _____ _____    ______ ____
ROOT
ATOM      1  C   UNL     1      45.314   3.490   8.859  0.00  0.00    +0.000 A 
ATOM      2  C   UNL     1      45.682   4.835   8.995  0.00  0.00    +0.000 A 
ATOM      3  C   UNL     1      45.521   5.496  10.216  0.00  0.00    +0.000 A 
ATOM      4  C   UNL     1      44.982   4.827  11.324  0.00  0.00    +0.000 A 
ATOM      5  C   UNL     1      44.638   3.475  11.190  0.00  0.00    +0.000 A 
ATOM      6  C   UNL     1      44.810   2.811   9.972  0.00  0.00    +0.000 A 
ENDROOT
BRANCH   1   7
ATOM      7  C   UNL     1      45.476   2.786   7.535  0.00  0.00    +0.000 C 
BRANCH   7   8
ATOM      8  C   UNL     1      46.503   3.487   6.639  0.00  0.00    +0.000 C 
BRANCH   8   9
ATOM      9  N   UNL     1      47.839   2.927   6.831  0.00  0.00    +0.000 NA
ATOM     10  H   UNL     1      47.904   2.530   7.768  0.00  0.00    +0.000 HD
ATOM     11  H   UNL     1      48.533   3.673   6.790  0.00  0.00    +0.000 HD
ENDBRANCH   8   9
ENDBRANCH   7   8
ENDBRANCH   1   7
BRANCH   4  12
ATOM     12  C   UNL     1      44.767   5.538  12.636  0.00  0.00    +0.000 C 
BRANCH  12  13
ATOM     13  N   UNL     1      45.950   6.267  13.085  0.00  0.00    +0.000 N 
ATOM     14  C   UNL     1      47.053   5.678  13.661  0.00  0.00    +0.000 A 
ATOM     15  C   UNL     1      48.031   6.636  13.799  0.00  0.00    +0.000 A 
ATOM     16  C   UNL     1      47.519   7.856  13.277  0.00  0.00    +0.000 A 
ATOM     17  C   UNL     1      48.050   9.141  13.114  0.00  0.00    +0.000 A 
ATOM     18  N   UNL     1      47.313  10.130  12.550  0.00  0.00    +0.000 NA
ATOM     19  C   UNL     1      46.050   9.853  12.162  0.00  0.00    +0.000 A 
ATOM     20  C   UNL     1      45.430   8.619  12.289  0.00  0.00    +0.000 A 
ATOM     21  C   UNL     1      46.209   7.606  12.850  0.00  0.00    +0.000 A 
ENDBRANCH  12  13
ENDBRANCH   4  12
TORSDOF 5
ENDMDL
MODEL 4
REMARK VINA RESULT:    -5.807      1.926      6.558
REMARK INTER + INTRA:          -7.959
REMARK INTER:                  -7.472
REMARK INTRA:                  -0.487
REMARK UNBOUND:                -0.625
REMARK  Name = 
REMARK  5 active torsions:
REMARK  status: ('A' for Active; 'I' for Inactive)
REMARK    1  A    between atoms: N_1  and  C_2
REMARK    2  A    between atoms: C_2  and  C_3
REMARK    3  A    between atoms: C_3  and  C_4
REMARK    4  A    between atoms: C_7  and  C_8
REMARK    5  A    between atoms: C_8  and  N_9
REMARK                            x       y       z     vdW  Elec       q    Type
REMARK                         _______ _______ _______ _____ _____    ______ ____
ROOT
ATOM      1  C   UNL     1      47.835   7.352  13.617  0.00  0.00    +0.000 A 
ATOM      2  C   UNL     1      46.960   8.322  13.112  0.00  0.00    +0.000 A 
ATOM      3  C   UNL     1      45.741   7.951  12.538  0.00  0.00    +0.000 A 
ATOM      4  C   UNL     1      45.376   6.600  12.451  0.00  0.00    +0.000 A 
ATOM      5  C   UNL     1      46.244   5.634  12.980  0.00  0.00    +0.000 A 
ATOM      6  C   UNL     1      47.457   6.007  13.565  0.00  0.00    +0.000 A 
ENDROOT
BRANCH   1   7
ATOM      7  C   UNL     1      49.156   7.758  14.223  0.00  0.00    +0.000 C 
BRANCH   7   8
ATOM      8  C   UNL     1      49.231   7.407  15.712  0.00  0.00    +0.000 C 
BRANCH   8   9
ATOM      9  N   UNL     1      50.151   6.295  15.945  0.00  0.00    +0.000 NA
ATOM     10  H   UNL     1      51.092   6.577  15.674  0.00  0.00    +0.000 HD
ATOM     11  H   UNL     1      49.903   5.513  15.340  0.00  0.00    +0.000 HD
ENDBRANCH   8   9
ENDBRANCH   7   8
ENDBRANCH   1   7
BRANCH   4  12
ATOM     12  C   UNL     1      44.082   6.182  11.800  0.00  0.00    +0.000 C 
BRANCH  12  13
ATOM     13  N   UNL     1      44.062   4.766  11.442  0.00  0.00    +0.000 N 
ATOM     14  C   UNL     1      43.353   3.803  12.123  0.00  0.00    +0.000 A 
ATOM     15  C   UNL     1      43.429   2.627  11.413  0.00  0.00    +0.000 A 
ATOM     16  C   UNL     1      44.201   2.876  10.244  0.00  0.00    +0.000 A 
ATOM     17  C   UNL     1      44.583   2.094   9.148  0.00  0.00    +0.000 A 
ATOM     18  N   UNL     1      45.324   2.623   8.143  0.00  0.00    +0.000 NA
ATOM     19  C   UNL     1      45.699   3.916   8.229  0.00  0.00    +0.000 A 
ATOM     20  C   UNL     1      45.382   4.770   9.275  0.00  0.00    +0.000 A 
ATOM     21  C   UNL     1      44.600   4.218  10.291  0.00  0.00    +0.000 A 
ENDBRANCH  12  13
ENDBRANCH   4  12
TORSDOF 5
ENDMDL
MODEL 5
REMARK VINA RESULT:    -5.710      1.505      6.485
REMARK INTER + INTRA:          -7.837
REMARK INTER:                  -7.250
REMARK INTRA:                  -0.587
REMARK UNBOUND:                -0.625
REMARK  Name = 
REMARK  5 active torsions:
REMARK  status: ('A' for Active; 'I' for Inactive)
REMARK    1  A    between atoms: N_1  and  C_2
REMARK    2  A    between atoms: C_2  and  C_3
REMARK    3  A    between atoms: C_3  and  C_4
REMARK    4  A    between atoms: C_7  and  C_8
REMARK    5  A    between atoms: C_8  and  N_9
REMARK                            x       y       z     vdW  Elec       q    Type
REMARK                         _______ _______ _______ _____ _____    ______ ____
ROOT
ATOM      1  C   UNL     1      46.491   6.477  12.599  0.00  0.00    +0.000 A 
ATOM      2  C   UNL     1      45.496   5.510  12.788  0.00  0.00    +0.000 A 
ATOM      3  C   UNL     1      44.893   4.887  11.692  0.00  0.00    +0.000 A 
ATOM      4  C   UNL     1      45.267   5.225  10.384  0.00  0.00    +0.000 A 
ATOM      5  C   UNL     1      46.281   6.176  10.200  0.00  0.00    +0.000 A 
ATOM      6  C   UNL     1      46.893   6.790  11.297  0.00  0.00    +0.000 A 
ENDROOT
BRANCH   1   7
ATOM      7  C   UNL     1      47.129   7.156  13.786  0.00  0.00    +0.000 C 
BRANCH   7   8
ATOM      8  C   UNL     1      48.590   6.734  13.967  0.00  0.00    +0.000 C 
BRANCH   8   9
ATOM      9  N   UNL     1      48.782   6.030  15.234  0.00  0.00    +0.000 NA
ATOM     10  H   UNL     1      47.872   5.779  15.619  0.00  0.00    +0.000 HD
ATOM     11  H   UNL     1      49.214   6.656  15.912  0.00  0.00    +0.000 HD
ENDBRANCH   8   9
ENDBRANCH   7   8
ENDBRANCH   1   7
BRANCH   4  12
ATOM     12  C   UNL     1      44.599   4.591   9.191  0.00  0.00    +0.000 C 
BRANCH  12  13
ATOM     13  N   UNL     1      45.088   3.241   8.920  0.00  0.00    +0.000 N 
ATOM     14  C   UNL     1      44.476   2.091   9.360  0.00  0.00    +0.000 A 
ATOM     15  C   UNL     1      45.109   1.015   8.781  0.00  0.00    +0.000 A 
ATOM     16  C   UNL     1      46.141   1.521   7.941  0.00  0.00    +0.000 A 
ATOM     17  C   UNL     1      47.076   0.926   7.086  0.00  0.00    +0.000 A 
ATOM     18  N   UNL     1      47.947   1.685   6.375  0.00  0.00    +0.000 NA
ATOM     19  C   UNL     1      47.904   3.026   6.521  0.00  0.00    +0.000 A 
ATOM     20  C   UNL     1      47.025   3.709   7.348  0.00  0.00    +0.000 A 
ATOM     21  C   UNL     1      46.119   2.917   8.056  0.00  0.00    +0.000 A 
ENDBRANCH  12  13
ENDBRANCH   4  12
TORSDOF 5
ENDMDL
MODEL 6
REMARK VINA RESULT:    -5.588      2.388      3.338
REMARK INTER + INTRA:          -7.683
REMARK INTER:                  -7.210
REMARK INTRA:                  -0.473
REMARK UNBOUND:                -0.625
REMARK  Name = 
REMARK  5 active torsions:
REMARK  status: ('A' for Active; 'I' for Inactive)
REMARK    1  A    between atoms: N_1  and  C_2
REMARK    2  A    between atoms: C_2  and  C_3
REMARK    3  A    between atoms: C_3  and  C_4
REMARK    4  A    between atoms: C_7  and  C_8
REMARK    5  A    between atoms: C_8  and  N_9
REMARK                            x       y       z     vdW  Elec       q    Type
REMARK                         _______ _______ _______ _____ _____    ______ ____
ROOT
ATOM      1  C   UNL     1      44.900   3.226  10.126  0.00  0.00    +0.000 A 
ATOM      2  C   UNL     1      44.831   2.908  11.488  0.00  0.00    +0.000 A 
ATOM      3  C   UNL     1      44.960   3.906  12.458  0.00  0.00    +0.000 A 
ATOM      4  C   UNL     1      45.168   5.241  12.085  0.00  0.00    +0.000 A 
ATOM      5  C   UNL     1      45.212   5.557  10.720  0.00  0.00    +0.000 A 
ATOM      6  C   UNL     1      45.071   4.561   9.750  0.00  0.00    +0.000 A 
ENDROOT
BRANCH   1   7
ATOM      7  C   UNL     1      44.775   2.142   9.083  0.00  0.00    +0.000 C 
BRANCH   7   8
ATOM      8  C   UNL     1      46.031   2.040   8.214  0.00  0.00    +0.000 C 
BRANCH   8   9
ATOM      9  N   UNL     1      46.436   0.646   8.033  0.00  0.00    +0.000 NA
ATOM     10  H   UNL     1      45.741   0.168   7.461  0.00  0.00    +0.000 HD
ATOM     11  H   UNL     1      46.438   0.171   8.935  0.00  0.00    +0.000 HD
ENDBRANCH   8   9
ENDBRANCH   7   8
ENDBRANCH   1   7
BRANCH   4  12
ATOM     12  C   UNL     1      45.347   6.322  13.120  0.00  0.00    +0.000 C 
BRANCH  12  13
ATOM     13  N   UNL     1      45.966   7.529  12.576  0.00  0.00    +0.000 N 
ATOM     14  C   UNL     1      45.294   8.706  12.339  0.00  0.00    +0.000 A 
ATOM     15  C   UNL     1      46.216   9.667  11.992  0.00  0.00    +0.000 A 
ATOM     16  C   UNL     1      47.504   9.064  12.029  0.00  0.00    +0.000 A 
ATOM     17  C   UNL     1      48.804   9.537  11.813  0.00  0.00    +0.000 A 
ATOM     18  N   UNL     1      49.873   8.713  11.944  0.00  0.00    +0.000 NA
ATOM     19  C   UNL     1      49.657   7.422  12.274  0.00  0.00    +0.000 A 
ATOM     20  C   UNL     1      48.411   6.855  12.499  0.00  0.00    +0.000 A 
ATOM     21  C   UNL     1      47.322   7.721  12.382  0.00  0.00    +0.000 A 
ENDBRANCH  12  13
ENDBRANCH   4  12
TORSDOF 5
ENDMDL
MODEL 7
REMARK VINA RESULT:    -5.582      2.653      3.959
REMARK INTER + INTRA:          -7.676
REMARK INTER:                  -7.107
REMARK INTRA:                  -0.569
REMARK UNBOUND:                -0.625
REMARK  Name = 
REMARK  5 active torsions:
REMARK  status: ('A' for Active; 'I' for Inactive)
REMARK    1  A    between atoms: N_1  and  C_2
REMARK    2  A    between atoms: C_2  and  C_3
REMARK    3  A    between atoms: C_3  and  C_4
REMARK    4  A    between atoms: C_7  and  C_8
REMARK    5  A    between atoms: C_8  and  N_9
REMARK                            x       y       z     vdW  Elec       q    Type
REMARK                         _______ _______ _______ _____ _____    ______ ____
ROOT
ATOM      1  C   UNL     1      44.944   3.629   9.730  0.00  0.00    +0.000 A 
ATOM      2  C   UNL     1      44.675   3.301  11.064  0.00  0.00    +0.000 A 
ATOM      3  C   UNL     1      44.893   4.232  12.084  0.00  0.00    +0.000 A 
ATOM      4  C   UNL     1      45.391   5.508  11.789  0.00  0.00    +0.000 A 
ATOM      5  C   UNL     1      45.636   5.841  10.449  0.00  0.00    +0.000 A 
ATOM      6  C   UNL     1      45.407   4.913   9.429  0.00  0.00    +0.000 A 
ENDROOT
BRANCH   1   7
ATOM      7  C   UNL     1      44.720   2.614   8.636  0.00  0.00    +0.000 C 
BRANCH   7   8
ATOM      8  C   UNL     1      46.026   2.245   7.926  0.00  0.00    +0.000 C 
BRANCH   8   9
ATOM      9  N   UNL     1      46.385   0.849   8.173  0.00  0.00    +0.000 NA
ATOM     10  H   UNL     1      46.333   0.663   9.174  0.00  0.00    +0.000 HD
ATOM     11  H   UNL     1      47.355   0.692   7.904  0.00  0.00    +0.000 HD
ENDBRANCH   8   9
ENDBRANCH   7   8
ENDBRANCH   1   7
BRANCH   4  12
ATOM     12  C   UNL     1      45.668   6.511  12.881  0.00  0.00    +0.000 C 
BRANCH  12  13
ATOM     13  N   UNL     1      46.994   7.113  12.773  0.00  0.00    +0.000 N 
ATOM     14  C   UNL     1      48.175   6.416  12.890  0.00  0.00    +0.000 A 
ATOM     15  C   UNL     1      49.210   7.263  12.567  0.00  0.00    +0.000 A 
ATOM     16  C   UNL     1      48.647   8.524  12.224  0.00  0.00    +0.000 A 
ATOM     17  C   UNL     1      49.183   9.740  11.786  0.00  0.00    +0.000 A 
ATOM     18  N   UNL     1      48.377  10.795  11.508  0.00  0.00    +0.000 NA
ATOM     19  C   UNL     1      47.046  10.652  11.677  0.00  0.00    +0.000 A 
ATOM     20  C   UNL     1      46.418   9.495  12.115  0.00  0.00    +0.000 A 
ATOM     21  C   UNL     1      47.259   8.412  12.375  0.00  0.00    +0.000 A 
ENDBRANCH  12  13
ENDBRANCH   4  12
TORSDOF 5
ENDMDL
MODEL 8
REMARK VINA RESULT:    -5.099      3.781      5.649
REMARK INTER + INTRA:          -7.065
REMARK INTER:                  -6.446
REMARK INTRA:                  -0.619
REMARK UNBOUND:                -0.625
REMARK  Name = 
REMARK  5 active torsions:
REMARK  status: ('A' for Active; 'I' for Inactive)
REMARK    1  A    between atoms: N_1  and  C_2
REMARK    2  A    between atoms: C_2  and  C_3
REMARK    3  A    between atoms: C_3  and  C_4
REMARK    4  A    between atoms: C_7  and  C_8
REMARK    5  A    between atoms: C_8  and  N_9
REMARK                            x       y       z     vdW  Elec       q    Type
REMARK                         _______ _______ _______ _____ _____    ______ ____
ROOT
ATOM      1  C   UNL     1      44.671   5.076  12.880  0.00  0.00    +0.000 A 
ATOM      2  C   UNL     1      45.743   4.295  13.326  0.00  0.00    +0.000 A 
ATOM      3  C   UNL     1      46.992   4.873  13.568  0.00  0.00    +0.000 A 
ATOM      4  C   UNL     1      47.195   6.245  13.362  0.00  0.00    +0.000 A 
ATOM      5  C   UNL     1      46.111   7.028  12.939  0.00  0.00    +0.000 A 
ATOM      6  C   UNL     1      44.860   6.451  12.708  0.00  0.00    +0.000 A 
ENDROOT
BRANCH   1   7
ATOM      7  C   UNL     1      43.328   4.443  12.606  0.00  0.00    +0.000 C 
BRANCH   7   8
ATOM      8  C   UNL     1      43.364   3.548  11.364  0.00  0.00    +0.000 C 
BRANCH   8   9
ATOM      9  N   UNL     1      43.009   2.169  11.696  0.00  0.00    +0.000 NA
ATOM     10  H   UNL     1      42.172   2.171  12.278  0.00  0.00    +0.000 HD
ATOM     11  H   UNL     1      43.747   1.753  12.261  0.00  0.00    +0.000 HD
ENDBRANCH   8   9
ENDBRANCH   7   8
ENDBRANCH   1   7
BRANCH   4  12
ATOM     12  C   UNL     1      48.546   6.877  13.582  0.00  0.00    +0.000 C 
BRANCH  12  13
ATOM     13  N   UNL     1      48.625   7.622  14.836  0.00  0.00    +0.000 N 
ATOM     14  C   UNL     1      48.377   8.970  14.953  0.00  0.00    +0.000 A 
ATOM     15  C   UNL     1      48.377   9.294  16.291  0.00  0.00    +0.000 A 
ATOM     16  C   UNL     1      48.620   8.100  17.026  0.00  0.00    +0.000 A 
ATOM     17  C   UNL     1      48.697   7.798  18.390  0.00  0.00    +0.000 A 
ATOM     18  N   UNL     1      48.926   6.528  18.808  0.00  0.00    +0.000 NA
ATOM     19  C   UNL     1      49.094   5.563  17.880  0.00  0.00    +0.000 A 
ATOM     20  C   UNL     1      49.047   5.761  16.508  0.00  0.00    +0.000 A 
ATOM     21  C   UNL     1      48.787   7.068  16.093  0.00  0.00    +0.000 A 
ENDBRANCH  12  13
ENDBRANCH   4  12
TORSDOF 5
ENDMDL
MODEL 9
REMARK VINA RESULT:    -4.887      3.867      5.806
REMARK INTER + INTRA:          -6.798
REMARK INTER:                  -6.391
REMARK INTRA:                  -0.407
REMARK UNBOUND:                -0.625
REMARK  Name = 
REMARK  5 active torsions:
REMARK  status: ('A' for Active; 'I' for Inactive)
REMARK    1  A    between atoms: N_1  and  C_2
REMARK    2  A    between atoms: C_2  and  C_3
REMARK    3  A    between atoms: C_3  and  C_4
REMARK    4  A    between atoms: C_7  and  C_8
REMARK    5  A    between atoms: C_8  and  N_9
REMARK                            x       y       z     vdW  Elec       q    Type
REMARK                         _______ _______ _______ _____ _____    ______ ____
ROOT
ATOM      1  C   UNL     1      45.158   4.810  11.402  0.00  0.00    +0.000 A 
ATOM      2  C   UNL     1      45.739   5.867  10.690  0.00  0.00    +0.000 A 
ATOM      3  C   UNL     1      46.736   6.654  11.273  0.00  0.00    +0.000 A 
ATOM      4  C   UNL     1      47.167   6.404  12.583  0.00  0.00    +0.000 A 
ATOM      5  C   UNL     1      46.600   5.330  13.283  0.00  0.00    +0.000 A 
ATOM      6  C   UNL     1      45.611   4.536  12.696  0.00  0.00    +0.000 A 
ENDROOT
BRANCH   1   7
ATOM      7  C   UNL     1      44.072   3.973  10.773  0.00  0.00    +0.000 C 
BRANCH   7   8
ATOM      8  C   UNL     1      43.147   3.355  11.825  0.00  0.00    +0.000 C 
BRANCH   8   9
ATOM      9  N   UNL     1      43.038   1.908  11.646  0.00  0.00    +0.000 NA
ATOM     10  H   UNL     1      43.899   1.465  11.965  0.00  0.00    +0.000 HD
ATOM     11  H   UNL     1      42.957   1.691  10.653  0.00  0.00    +0.000 HD
ENDBRANCH   8   9
ENDBRANCH   7   8
ENDBRANCH   1   7
BRANCH   4  12
ATOM     12  C   UNL     1      48.214   7.268  13.239  0.00  0.00    +0.000 C 
BRANCH  12  13
ATOM     13  N   UNL     1      48.472   8.503  12.502  0.00  0.00    +0.000 N 
ATOM     14  C   UNL     1      47.669   9.619  12.554  0.00  0.00    +0.000 A 
ATOM     15  C   UNL     1      48.301  10.638  11.877  0.00  0.00    +0.000 A 
ATOM     16  C   UNL     1      49.545  10.135  11.402  0.00  0.00    +0.000 A 
ATOM     17  C   UNL     1      50.613  10.698  10.695  0.00  0.00    +0.000 A 
ATOM     18  N   UNL     1      51.710   9.961  10.392  0.00  0.00    +0.000 NA
ATOM     19  C   UNL     1      51.744   8.667  10.774  0.00  0.00    +0.000 A 
ATOM     20  C   UNL     1      50.736   8.014  11.467  0.00  0.00    +0.000 A 
ATOM     21  C   UNL     1      49.623   8.792  11.792  0.00  0.00    +0.000 A 
ENDBRANCH  12  13
ENDBRANCH   4  12
TORSDOF 5
ENDMDL
