MODEL 1
REMARK VINA RESULT:    -7.664      0.000      0.000
REMARK INTER + INTRA:          -9.954
REMARK INTER:                  -9.456
REMARK INTRA:                  -0.498
REMARK UNBOUND:                -0.498
REMARK  Name = 
REMARK  4 active torsions:
REMARK  status: ('A' for Active; 'I' for Inactive)
REMARK    1  A    between atoms: C_2  and  C_4
REMARK    2  A    between atoms: C_7  and  O_8
REMARK    3  A    between atoms: O_8  and  C_9
REMARK    4  A    between atoms: C_9  and  C_10
REMARK                            x       y       z     vdW  Elec       q    Type
REMARK                         _______ _______ _______ _____ _____    ______ ____
ROOT
ATOM      1  C   UNL     1      46.412   2.466   7.723  0.00  0.00    +0.000 A 
ATOM      2  C   UNL     1      45.573   1.810   8.629  0.00  0.00    +0.000 A 
ATOM      3  C   UNL     1      44.666   2.558   9.380  0.00  0.00    +0.000 A 
ATOM      4  C   UNL     1      44.611   3.930   9.177  0.00  0.00    +0.000 A 
ATOM      5  N   UNL     1      45.421   4.590   8.325  0.00  0.00    +0.000 NA
ATOM      6  C   UNL     1      46.317   3.846   7.629  0.00  0.00    +0.000 A 
ENDROOT
BRANCH   1   8
ATOM      7  N   UNL     1      48.480   2.491   6.451  0.00  0.00    +0.000 N 
ATOM      8  C   UNL     1      47.401   1.769   6.878  0.00  0.00    +0.000 C 
ATOM      9  O   UNL     1      47.287   0.579   6.611  0.00  0.00    +0.000 OA
ATOM     10  H   UNL     1      49.206   1.969   5.975  0.00  0.00    +0.000 HD
ATOM     11  H   UNL     1      48.738   3.376   6.865  0.00  0.00    +0.000 HD
ENDBRANCH   1   8
BRANCH   4  12
ATOM     12  O   UNL     1      43.697   4.644   9.926  0.00  0.00    +0.000 OA
BRANCH  12  13
ATOM     13  C   UNL     1      43.645   4.180  11.278  0.00  0.00    +0.000 C 
BRANCH  13  14
ATOM     14  C   UNL     1      44.810   4.754  12.051  0.00  0.00    +0.000 A 
ATOM     15  C   UNL     1      45.620   3.915  12.829  0.00  0.00    +0.000 A 
ATOM     16  C   UNL     1      46.715   4.431  13.523  0.00  0.00    +0.000 A 
ATOM     17  C   UNL     1      47.014   5.790  13.445  0.00  0.00    +0.000 A 
ATOM     18  C   UNL     1      46.218   6.633  12.671  0.00  0.00    +0.000 A 
ATOM     19  C   UNL     1      45.122   6.119  11.975  0.00  0.00    +0.000 A 
ENDBRANCH  13  14
ENDBRANCH  12  13
ENDBRANCH   4  12
TORSDOF 4
ENDMDL
MODEL 2
REMARK VINA RESULT:    -7.403      2.682      6.049
REMARK INTER + INTRA:          -9.633
REMARK INTER:                  -9.168
REMARK INTRA:                  -0.464
REMARK UNBOUND:                -0.498
REMARK  Name = 
REMARK  4 active torsions:
REMARK  status: ('A' for Active; 'I' for Inactive)
REMARK    1  A    between atoms: C_2  and  C_4
REMARK    2  A    between atoms: C_7  and  O_8
REMARK    3  A    between atoms: O_8  and  C_9
REMARK    4  A    between atoms: C_9  and  C_10
REMARK                            x       y       z     vdW  Elec       q    Type
REMARK                         _______ _______ _______ _____ _____    ______ ____
ROOT
ATOM      1  C   UNL     1      46.511   4.989  13.201  0.00  0.00    +0.000 A 
ATOM      2  C   UNL     1      46.454   5.988  12.224  0.00  0.00    +0.000 A 
ATOM      3  C   UNL     1      45.754   5.744  11.041  0.00  0.00    +0.000 A 
ATOM      4  C   UNL     1      45.111   4.522  10.893  0.00  0.00    +0.000 A 
ATOM      5  N   UNL     1      45.165   3.535  11.811  0.00  0.00    +0.000 NA
ATOM      6  C   UNL     1      45.878   3.783  12.937  0.00  0.00    +0.000 A 
ENDROOT
BRANCH   1   8
ATOM      7  N   UNL     1      46.754   4.426  15.549  0.00  0.00    +0.000 N 
ATOM      8  C   UNL     1      47.218   5.147  14.487  0.00  0.00    +0.000 C 
ATOM      9  O   UNL     1      48.213   5.856  14.585  0.00  0.00    +0.000 OA
ATOM     10  H   UNL     1      47.320   4.453  16.389  0.00  0.00    +0.000 HD
ATOM     11  H   UNL     1      46.120   3.646  15.440  0.00  0.00    +0.000 HD
ENDBRANCH   1   8
BRANCH   4  12
ATOM     12  O   UNL     1      44.417   4.311   9.718  0.00  0.00    +0.000 OA
BRANCH  12  13
ATOM     13  C   UNL     1      44.378   2.925   9.370  0.00  0.00    +0.000 C 
BRANCH  13  14
ATOM     14  C   UNL     1      45.442   2.637   8.336  0.00  0.00    +0.000 A 
ATOM     15  C   UNL     1      46.083   1.390   8.314  0.00  0.00    +0.000 A 
ATOM     16  C   UNL     1      47.046   1.105   7.346  0.00  0.00    +0.000 A 
ATOM     17  C   UNL     1      47.377   2.060   6.387  0.00  0.00    +0.000 A 
ATOM     18  C   UNL     1      46.743   3.302   6.395  0.00  0.00    +0.000 A 
ATOM     19  C   UNL     1      45.778   3.590   7.364  0.00  0.00    +0.000 A 
ENDBRANCH  13  14
ENDBRANCH  12  13
ENDBRANCH   4  12
TORSDOF 4
ENDMDL
MODEL 3
REMARK VINA RESULT:    -6.763      2.519      6.062
REMARK INTER + INTRA:          -8.843
REMARK INTER:                  -8.409
REMARK INTRA:                  -0.434
REMARK UNBOUND:                -0.498
REMARK  Name = 
REMARK  4 active torsions:
REMARK  status: ('A' for Active; 'I' for Inactive)
REMARK    1  A    between atoms: C_2  and  C_4
REMARK    2  A    between atoms: C_7  and  O_8
REMARK    3  A    between atoms: O_8  and  C_9
REMARK    4  A    between atoms: C_9  and  C_10
REMARK                            x       y       z     vdW  Elec       q    Type
REMARK                         _______ _______ _______ _____ _____    ______ ____
ROOT
ATOM      1  C   UNL     1      44.537   7.037  11.397  0.00  0.00    +0.000 A 
ATOM      2  C   UNL     1      43.405   6.227  11.265  0.00  0.00    +0.000 A 
ATOM      3  C   UNL     1      43.569   4.857  11.056  0.00  0.00    +0.000 A 
ATOM      4  C   UNL     1      44.859   4.344  11.019  0.00  0.00    +0.000 A 
ATOM      5  N   UNL     1      45.967   5.104  11.125  0.00  0.00    +0.000 NA
ATOM      6  C   UNL     1      45.783   6.437  11.294  0.00  0.00    +0.000 A 
ENDROOT
BRANCH   1   8
ATOM      7  N   UNL     1      43.560   9.203  10.898  0.00  0.00    +0.000 N 
ATOM      8  C   UNL     1      44.473   8.494  11.626  0.00  0.00    +0.000 C 
ATOM      9  O   UNL     1      45.174   9.040  12.470  0.00  0.00    +0.000 OA
ATOM     10  H   UNL     1      43.446  10.177  11.151  0.00  0.00    +0.000 HD
ATOM     11  H   UNL     1      42.800   8.759  10.401  0.00  0.00    +0.000 HD
ENDBRANCH   1   8
BRANCH   4  12
ATOM     12  O   UNL     1      44.992   2.984  10.822  0.00  0.00    +0.000 OA
BRANCH  12  13
ATOM     13  C   UNL     1      44.384   2.565   9.597  0.00  0.00    +0.000 C 
BRANCH  13  14
ATOM     14  C   UNL     1      45.435   2.493   8.514  0.00  0.00    +0.000 A 
ATOM     15  C   UNL     1      46.136   1.298   8.292  0.00  0.00    +0.000 A 
ATOM     16  C   UNL     1      47.088   1.213   7.276  0.00  0.00    +0.000 A 
ATOM     17  C   UNL     1      47.349   2.319   6.469  0.00  0.00    +0.000 A 
ATOM     18  C   UNL     1      46.656   3.510   6.677  0.00  0.00    +0.000 A 
ATOM     19  C   UNL     1      45.702   3.598   7.694  0.00  0.00    +0.000 A 
ENDBRANCH  13  14
ENDBRANCH  12  13
ENDBRANCH   4  12
TORSDOF 4
ENDMDL
MODEL 4
REMARK VINA RESULT:    -6.198      2.640      5.972
REMARK INTER + INTRA:          -8.145
REMARK INTER:                  -7.941
REMARK INTRA:                  -0.205
REMARK UNBOUND:                -0.498
REMARK  Name = 
REMARK  4 active torsions:
REMARK  status: ('A' for Active; 'I' for Inactive)
REMARK    1  A    between atoms: C_2  and  C_4
REMARK    2  A    between atoms: C_7  and  O_8
REMARK    3  A    between atoms: O_8  and  C_9
REMARK    4  A    between atoms: C_9  and  C_10
REMARK                            x       y       z     vdW  Elec       q    Type
REMARK                         _______ _______ _______ _____ _____    ______ ____
ROOT
ATOM      1  C   UNL     1      46.536   6.492  12.799  0.00  0.00    +0.000 A 
ATOM      2  C   UNL     1      46.246   5.130  12.918  0.00  0.00    +0.000 A 
ATOM      3  C   UNL     1      45.315   4.554  12.052  0.00  0.00    +0.000 A 
ATOM      4  C   UNL     1      44.731   5.356  11.081  0.00  0.00    +0.000 A 
ATOM      5  N   UNL     1      44.978   6.676  10.957  0.00  0.00    +0.000 NA
ATOM      6  C   UNL     1      45.862   7.220  11.830  0.00  0.00    +0.000 A 
ENDROOT
BRANCH   1   8
ATOM      7  N   UNL     1      47.899   6.567  14.807  0.00  0.00    +0.000 N 
ATOM      8  C   UNL     1      47.507   7.196  13.660  0.00  0.00    +0.000 C 
ATOM      9  O   UNL     1      47.983   8.277  13.334  0.00  0.00    +0.000 OA
ATOM     10  H   UNL     1      48.652   7.006  15.323  0.00  0.00    +0.000 HD
ATOM     11  H   UNL     1      47.737   5.582  14.968  0.00  0.00    +0.000 HD
ENDBRANCH   1   8
BRANCH   4  12
ATOM     12  O   UNL     1      43.821   4.759  10.232  0.00  0.00    +0.000 OA
BRANCH  12  13
ATOM     13  C   UNL     1      44.017   3.344  10.159  0.00  0.00    +0.000 C 
BRANCH  13  14
ATOM     14  C   UNL     1      44.980   3.028   9.037  0.00  0.00    +0.000 A 
ATOM     15  C   UNL     1      45.371   4.033   8.141  0.00  0.00    +0.000 A 
ATOM     16  C   UNL     1      46.281   3.758   7.120  0.00  0.00    +0.000 A 
ATOM     17  C   UNL     1      46.812   2.476   6.985  0.00  0.00    +0.000 A 
ATOM     18  C   UNL     1      46.434   1.470   7.872  0.00  0.00    +0.000 A 
ATOM     19  C   UNL     1      45.523   1.743   8.895  0.00  0.00    +0.000 A 
ENDBRANCH  13  14
ENDBRANCH  12  13
ENDBRANCH   4  12
TORSDOF 4
ENDMDL
MODEL 5
REMARK VINA RESULT:    -5.900      3.760      6.029
REMARK INTER + INTRA:          -7.778
REMARK INTER:                  -7.437
REMARK INTRA:                  -0.340
REMARK UNBOUND:                -0.498
REMARK  Name = 
REMARK  4 active torsions:
REMARK  status: ('A' for Active; 'I' for Inactive)
REMARK    1  A    between atoms: C_2  and  C_4
REMARK    2  A    between atoms: C_7  and  O_8
REMARK    3  A    between atoms: O_8  and  C_9
REMARK    4  A    between atoms: C_9  and  C_10
REMARK                            x       y       z     vdW  Elec       q    Type
REMARK                         _______ _______ _______ _____ _____    ______ ____
ROOT
ATOM      1  C   UNL     1      44.690   4.849  11.953  0.00  0.00    +0.000 A 
ATOM      2  C   UNL     1      45.442   5.690  12.778  0.00  0.00    +0.000 A 
ATOM      3  C   UNL     1      46.374   5.129  13.653  0.00  0.00    +0.000 A 
ATOM      4  C   UNL     1      46.539   3.751  13.649  0.00  0.00    +0.000 A 
ATOM      5  N   UNL     1      45.813   2.915  12.877  0.00  0.00    +0.000 NA
ATOM      6  C   UNL     1      44.892   3.481  12.059  0.00  0.00    +0.000 A 
ENDROOT
BRANCH   1   8
ATOM      7  N   UNL     1      43.794   4.911   9.697  0.00  0.00    +0.000 N 
ATOM      8  C   UNL     1      43.685   5.340  10.989  0.00  0.00    +0.000 C 
ATOM      9  O   UNL     1      42.760   6.061  11.343  0.00  0.00    +0.000 OA
ATOM     10  H   UNL     1      43.032   5.159   9.078  0.00  0.00    +0.000 HD
ATOM     11  H   UNL     1      44.370   4.122   9.434  0.00  0.00    +0.000 HD
ENDBRANCH   1   8
BRANCH   4  12
ATOM     12  O   UNL     1      47.474   3.224  14.517  0.00  0.00    +0.000 OA
BRANCH  12  13
ATOM     13  C   UNL     1      47.293   3.713  15.848  0.00  0.00    +0.000 C 
BRANCH  13  14
ATOM     14  C   UNL     1      48.604   3.629  16.596  0.00  0.00    +0.000 A 
ATOM     15  C   UNL     1      49.256   2.395  16.736  0.00  0.00    +0.000 A 
ATOM     16  C   UNL     1      50.481   2.312  17.400  0.00  0.00    +0.000 A 
ATOM     17  C   UNL     1      51.068   3.461  17.928  0.00  0.00    +0.000 A 
ATOM     18  C   UNL     1      50.432   4.693  17.790  0.00  0.00    +0.000 A 
ATOM     19  C   UNL     1      49.205   4.779  17.126  0.00  0.00    +0.000 A 
ENDBRANCH  13  14
ENDBRANCH  12  13
ENDBRANCH   4  12
TORSDOF 4
ENDMDL
MODEL 6
REMARK VINA RESULT:    -5.689      3.385      5.127
REMARK INTER + INTRA:          -7.518
REMARK INTER:                  -7.187
REMARK INTRA:                  -0.331
REMARK UNBOUND:                -0.498
REMARK  Name = 
REMARK  4 active torsions:
REMARK  status: ('A' for Active; 'I' for Inactive)
REMARK    1  A    between atoms: C_2  and  C_4
REMARK    2  A    between atoms: C_7  and  O_8
REMARK    3  A    between atoms: O_8  and  C_9
REMARK    4  A    between atoms: C_9  and  C_10
REMARK                            x       y       z     vdW  Elec       q    Type
REMARK                         _______ _______ _______ _____ _____    ______ ____
ROOT
ATOM      1  C   UNL     1      45.440   4.641  10.584  0.00  0.00    +0.000 A 
ATOM      2  C   UNL     1      45.969   5.736  11.275  0.00  0.00    +0.000 A 
ATOM      3  C   UNL     1      46.215   5.622  12.644  0.00  0.00    +0.000 A 
ATOM      4  C   UNL     1      45.950   4.408  13.265  0.00  0.00    +0.000 A 
ATOM      5  N   UNL     1      45.422   3.344  12.627  0.00  0.00    +0.000 NA
ATOM      6  C   UNL     1      45.161   3.489  11.304  0.00  0.00    +0.000 A 
ENDROOT
BRANCH   1   8
ATOM      7  N   UNL     1      43.895   4.281   8.747  0.00  0.00    +0.000 N 
ATOM      8  C   UNL     1      45.149   4.655   9.136  0.00  0.00    +0.000 C 
ATOM      9  O   UNL     1      45.981   5.035   8.322  0.00  0.00    +0.000 OA
ATOM     10  H   UNL     1      43.675   4.410   7.766  0.00  0.00    +0.000 HD
ATOM     11  H   UNL     1      43.120   4.222   9.393  0.00  0.00    +0.000 HD
ENDBRANCH   1   8
BRANCH   4  12
ATOM     12  O   UNL     1      46.212   4.320  14.617  0.00  0.00    +0.000 OA
BRANCH  12  13
ATOM     13  C   UNL     1      47.314   5.149  14.997  0.00  0.00    +0.000 C 
BRANCH  13  14
ATOM     14  C   UNL     1      47.871   4.670  16.317  0.00  0.00    +0.000 A 
ATOM     15  C   UNL     1      48.799   5.455  17.016  0.00  0.00    +0.000 A 
ATOM     16  C   UNL     1      49.298   5.034  18.250  0.00  0.00    +0.000 A 
ATOM     17  C   UNL     1      48.871   3.827  18.799  0.00  0.00    +0.000 A 
ATOM     18  C   UNL     1      47.945   3.040  18.116  0.00  0.00    +0.000 A 
ATOM     19  C   UNL     1      47.446   3.459  16.881  0.00  0.00    +0.000 A 
ENDBRANCH  13  14
ENDBRANCH  12  13
ENDBRANCH   4  12
TORSDOF 4
ENDMDL
MODEL 7
REMARK VINA RESULT:    -5.256      5.429      8.188
REMARK INTER + INTRA:          -6.983
REMARK INTER:                  -6.571
REMARK INTRA:                  -0.412
REMARK UNBOUND:                -0.498
REMARK  Name = 
REMARK  4 active torsions:
REMARK  status: ('A' for Active; 'I' for Inactive)
REMARK    1  A    between atoms: C_2  and  C_4
REMARK    2  A    between atoms: C_7  and  O_8
REMARK    3  A    between atoms: O_8  and  C_9
REMARK    4  A    between atoms: C_9  and  C_10
REMARK                            x       y       z     vdW  Elec       q    Type
REMARK                         _______ _______ _______ _____ _____    ______ ____
ROOT
ATOM      1  C   UNL     1      48.566   4.691  17.954  0.00  0.00    +0.000 A 
ATOM      2  C   UNL     1      47.573   3.838  17.460  0.00  0.00    +0.000 A 
ATOM      3  C   UNL     1      47.157   3.975  16.135  0.00  0.00    +0.000 A 
ATOM      4  C   UNL     1      47.770   4.938  15.345  0.00  0.00    +0.000 A 
ATOM      5  N   UNL     1      48.715   5.785  15.801  0.00  0.00    +0.000 NA
ATOM      6  C   UNL     1      49.080   5.655  17.100  0.00  0.00    +0.000 A 
ENDROOT
BRANCH   1   8
ATOM      7  N   UNL     1      48.558   3.666  20.154  0.00  0.00    +0.000 N 
ATOM      8  C   UNL     1      49.081   4.626  19.336  0.00  0.00    +0.000 C 
ATOM      9  O   UNL     1      49.976   5.369  19.719  0.00  0.00    +0.000 OA
ATOM     10  H   UNL     1      49.005   3.557  21.058  0.00  0.00    +0.000 HD
ATOM     11  H   UNL     1      48.027   2.882  19.801  0.00  0.00    +0.000 HD
ENDBRANCH   1   8
BRANCH   4  12
ATOM     12  O   UNL     1      47.346   5.045  14.036  0.00  0.00    +0.000 OA
BRANCH  12  13
ATOM     13  C   UNL     1      46.839   3.801  13.542  0.00  0.00    +0.000 C 
BRANCH  13  14
ATOM     14  C   UNL     1      45.502   4.033  12.878  0.00  0.00    +0.000 A 
ATOM     15  C   UNL     1      44.766   5.192  13.162  0.00  0.00    +0.000 A 
ATOM     16  C   UNL     1      43.543   5.429  12.533  0.00  0.00    +0.000 A 
ATOM     17  C   UNL     1      43.044   4.511  11.610  0.00  0.00    +0.000 A 
ATOM     18  C   UNL     1      43.769   3.357  11.316  0.00  0.00    +0.000 A 
ATOM     19  C   UNL     1      44.993   3.119  11.945  0.00  0.00    +0.000 A 
ENDBRANCH  13  14
ENDBRANCH  12  13
ENDBRANCH   4  12
TORSDOF 4
ENDMDL
MODEL 8
REMARK VINA RESULT:    -5.187      4.402      6.145
REMARK INTER + INTRA:          -6.899
REMARK INTER:                  -6.611
REMARK INTRA:                  -0.288
REMARK UNBOUND:                -0.498
REMARK  Name = 
REMARK  4 active torsions:
REMARK  status: ('A' for Active; 'I' for Inactive)
REMARK    1  A    between atoms: C_2  and  C_4
REMARK    2  A    between atoms: C_7  and  O_8
REMARK    3  A    between atoms: O_8  and  C_9
REMARK    4  A    between atoms: C_9  and  C_10
REMARK                            x       y       z     vdW  Elec       q    Type
REMARK                         _______ _______ _______ _____ _____    ______ ____
ROOT
ATOM      1  C   UNL     1      44.583   6.030  12.059  0.00  0.00    +0.000 A 
ATOM      2  C   UNL     1      44.642   4.955  12.951  0.00  0.00    +0.000 A 
ATOM      3  C   UNL     1      45.834   4.701  13.632  0.00  0.00    +0.000 A 
ATOM      4  C   UNL     1      46.912   5.550  13.419  0.00  0.00    +0.000 A 
ATOM      5  N   UNL     1      46.887   6.582  12.551  0.00  0.00    +0.000 NA
ATOM      6  C   UNL     1      45.729   6.789  11.876  0.00  0.00    +0.000 A 
ENDROOT
BRANCH   1   8
ATOM      7  N   UNL     1      43.159   7.712  11.042  0.00  0.00    +0.000 N 
ATOM      8  C   UNL     1      43.372   6.387  11.294  0.00  0.00    +0.000 C 
ATOM      9  O   UNL     1      42.615   5.527  10.858  0.00  0.00    +0.000 OA
ATOM     10  H   UNL     1      42.392   7.930  10.416  0.00  0.00    +0.000 HD
ATOM     11  H   UNL     1      43.884   8.408  11.150  0.00  0.00    +0.000 HD
ENDBRANCH   1   8
BRANCH   4  12
ATOM     12  O   UNL     1      48.074   5.283  14.113  0.00  0.00    +0.000 OA
BRANCH  12  13
ATOM     13  C   UNL     1      48.138   6.017  15.339  0.00  0.00    +0.000 C 
BRANCH  13  14
ATOM     14  C   UNL     1      48.253   5.053  16.497  0.00  0.00    +0.000 A 
ATOM     15  C   UNL     1      47.395   3.946  16.579  0.00  0.00    +0.000 A 
ATOM     16  C   UNL     1      47.512   3.035  17.629  0.00  0.00    +0.000 A 
ATOM     17  C   UNL     1      48.490   3.217  18.605  0.00  0.00    +0.000 A 
ATOM     18  C   UNL     1      49.352   4.310  18.531  0.00  0.00    +0.000 A 
ATOM     19  C   UNL     1      49.235   5.224  17.482  0.00  0.00    +0.000 A 
ENDBRANCH  13  14
ENDBRANCH  12  13
ENDBRANCH   4  12
TORSDOF 4
ENDMDL
MODEL 9
REMARK VINA RESULT:    -5.160      3.244      5.158
REMARK INTER + INTRA:          -6.866
REMARK INTER:                  -6.414
REMARK INTRA:                  -0.452
REMARK UNBOUND:                -0.498
REMARK  Name = 
REMARK  4 active torsions:
REMARK  status: ('A' for Active; 'I' for Inactive)
REMARK    1  A    between atoms: C_2  and  C_4
REMARK    2  A    between atoms: C_7  and  O_8
REMARK    3  A    between atoms: O_8  and  C_9
REMARK    4  A    between atoms: C_9  and  C_10
REMARK                            x       y       z     vdW  Elec       q    Type
REMARK                         _______ _______ _______ _____ _____    ______ ____
ROOT
ATOM      1  C   UNL     1      44.561   4.103  11.526  0.00  0.00    +0.000 A 
ATOM      2  C   UNL     1      44.845   5.217  10.730  0.00  0.00    +0.000 A 
ATOM      3  C   UNL     1      45.427   6.342  11.317  0.00  0.00    +0.000 A 
ATOM      4  C   UNL     1      45.730   6.299  12.671  0.00  0.00    +0.000 A 
ATOM      5  N   UNL     1      45.450   5.245  13.465  0.00  0.00    +0.000 NA
ATOM      6  C   UNL     1      44.855   4.177  12.879  0.00  0.00    +0.000 A 
ENDROOT
BRANCH   1   8
ATOM      7  N   UNL     1      44.573   2.258   9.949  0.00  0.00    +0.000 N 
ATOM      8  C   UNL     1      43.953   2.863  11.003  0.00  0.00    +0.000 C 
ATOM      9  O   UNL     1      42.961   2.369  11.526  0.00  0.00    +0.000 OA
ATOM     10  H   UNL     1      44.214   1.349   9.680  0.00  0.00    +0.000 HD
ATOM     11  H   UNL     1      45.519   2.484   9.673  0.00  0.00    +0.000 HD
ENDBRANCH   1   8
BRANCH   4  12
ATOM     12  O   UNL     1      46.315   7.421  13.224  0.00  0.00    +0.000 OA
BRANCH  12  13
ATOM     13  C   UNL     1      46.804   8.311  12.217  0.00  0.00    +0.000 C 
BRANCH  13  14
ATOM     14  C   UNL     1      48.311   8.390  12.306  0.00  0.00    +0.000 A 
ATOM     15  C   UNL     1      48.918   9.080  13.366  0.00  0.00    +0.000 A 
ATOM     16  C   UNL     1      50.308   9.134  13.472  0.00  0.00    +0.000 A 
ATOM     17  C   UNL     1      51.106   8.497  12.524  0.00  0.00    +0.000 A 
ATOM     18  C   UNL     1      50.514   7.804  11.469  0.00  0.00    +0.000 A 
ATOM     19  C   UNL     1      49.123   7.749  11.360  0.00  0.00    +0.000 A 
ENDBRANCH  13  14
ENDBRANCH  12  13
ENDBRANCH   4  12
TORSDOF 4
ENDMDL
