MODEL 1
REMARK VINA RESULT:    -7.512      0.000      0.000
REMARK INTER + INTRA:         -10.994
REMARK INTER:                 -10.367
REMARK INTRA:                  -0.628
REMARK UNBOUND:                -0.628
REMARK  Name = 
REMARK  7 active torsions:
REMARK  status: ('A' for Active; 'I' for Inactive)
REMARK    1  A    between atoms: N_1  and  C_2
REMARK    2  A    between atoms: C_2  and  C_3
REMARK    3  A    between atoms: C_3  and  O_4
REMARK    4  A    between atoms: O_4  and  C_5
REMARK    5  A    between atoms: C_8  and  C_9
REMARK    6  A    between atoms: C_9  and  N_10
REMARK    7  A    between atoms: C_16  and  C_17
REMARK                            x       y       z     vdW  Elec       q    Type
REMARK                         _______ _______ _______ _____ _____    ______ ____
ROOT
ATOM      1  N   UNL     1      45.633   6.390  12.299  0.00  0.00    +0.000 N 
ATOM      2  C   UNL     1      45.949   7.679  11.940  0.00  0.00    +0.000 A 
ATOM      3  C   UNL     1      46.981   8.107  12.744  0.00  0.00    +0.000 A 
ATOM      4  C   UNL     1      47.317   7.043  13.624  0.00  0.00    +0.000 A 
ATOM      5  C   UNL     1      48.247   6.900  14.666  0.00  0.00    +0.000 A 
ATOM      6  N   UNL     1      48.342   5.740  15.362  0.00  0.00    +0.000 NA
ATOM      7  C   UNL     1      47.520   4.712  15.010  0.00  0.00    +0.000 A 
ATOM      8  C   UNL     1      46.573   4.755  13.994  0.00  0.00    +0.000 A 
ATOM      9  C   UNL     1      46.478   5.968  13.309  0.00  0.00    +0.000 A 
ENDROOT
BRANCH   7  10
ATOM     10  C   UNL     1      47.645   3.453  15.819  0.00  0.00    +0.000 C 
ATOM     11  N   UNL     1      46.891   3.402  16.956  0.00  0.00    +0.000 N 
ATOM     12  O   UNL     1      48.366   2.523  15.483  0.00  0.00    +0.000 OA
ATOM     13  H   UNL     1      46.293   4.186  17.197  0.00  0.00    +0.000 HD
ATOM     14  H   UNL     1      46.910   2.574  17.533  0.00  0.00    +0.000 HD
ENDBRANCH   7  10
BRANCH   1  15
ATOM     15  C   UNL     1      44.463   5.668  11.802  0.00  0.00    +0.000 C 
BRANCH  15  19
ATOM     16  C   UNL     1      45.351   2.989   8.522  0.00  0.00    +0.000 A 
ATOM     17  C   UNL     1      44.714   2.520   9.670  0.00  0.00    +0.000 A 
ATOM     18  C   UNL     1      44.435   3.386  10.731  0.00  0.00    +0.000 A 
ATOM     19  C   UNL     1      44.790   4.738  10.664  0.00  0.00    +0.000 A 
ATOM     20  C   UNL     1      45.435   5.206   9.511  0.00  0.00    +0.000 A 
ATOM     21  C   UNL     1      45.710   4.336   8.448  0.00  0.00    +0.000 A 
BRANCH  16  22
ATOM     22  O   UNL     1      45.669   2.234   7.422  0.00  0.00    +0.000 OA
BRANCH  22  23
ATOM     23  C   UNL     1      46.905   1.517   7.501  0.00  0.00    +0.000 C 
BRANCH  23  24
ATOM     24  C   UNL     1      48.019   2.332   6.837  0.00  0.00    +0.000 C 
BRANCH  24  25
ATOM     25  N   UNL     1      48.410   1.750   5.552  0.00  0.00    +0.000 NA
ATOM     26  H   UNL     1      49.216   1.142   5.690  0.00  0.00    +0.000 HD
ATOM     27  H   UNL     1      48.718   2.489   4.920  0.00  0.00    +0.000 HD
ENDBRANCH  24  25
ENDBRANCH  23  24
ENDBRANCH  22  23
ENDBRANCH  16  22
ENDBRANCH  15  19
ENDBRANCH   1  15
TORSDOF 7
ENDMDL
MODEL 2
REMARK VINA RESULT:    -7.399      2.472      3.910
REMARK INTER + INTRA:         -10.838
REMARK INTER:                 -10.150
REMARK INTRA:                  -0.688
REMARK UNBOUND:                -0.628
REMARK  Name = 
REMARK  7 active torsions:
REMARK  status: ('A' for Active; 'I' for Inactive)
REMARK    1  A    between atoms: N_1  and  C_2
REMARK    2  A    between atoms: C_2  and  C_3
REMARK    3  A    between atoms: C_3  and  O_4
REMARK    4  A    between atoms: O_4  and  C_5
REMARK    5  A    between atoms: C_8  and  C_9
REMARK    6  A    between atoms: C_9  and  N_10
REMARK    7  A    between atoms: C_16  and  C_17
REMARK                            x       y       z     vdW  Elec       q    Type
REMARK                         _______ _______ _______ _____ _____    ______ ____
ROOT
ATOM      1  N   UNL     1      45.471   5.386  12.918  0.00  0.00    +0.000 N 
ATOM      2  C   UNL     1      46.516   4.744  13.541  0.00  0.00    +0.000 A 
ATOM      3  C   UNL     1      47.484   5.679  13.826  0.00  0.00    +0.000 A 
ATOM      4  C   UNL     1      47.019   6.942  13.368  0.00  0.00    +0.000 A 
ATOM      5  C   UNL     1      47.569   8.233  13.352  0.00  0.00    +0.000 A 
ATOM      6  N   UNL     1      46.881   9.277  12.826  0.00  0.00    +0.000 NA
ATOM      7  C   UNL     1      45.636   9.041  12.328  0.00  0.00    +0.000 A 
ATOM      8  C   UNL     1      45.006   7.802  12.302  0.00  0.00    +0.000 A 
ATOM      9  C   UNL     1      45.744   6.739  12.828  0.00  0.00    +0.000 A 
ENDROOT
BRANCH   7  10
ATOM     10  C   UNL     1      44.919  10.220  11.739  0.00  0.00    +0.000 C 
ATOM     11  N   UNL     1      43.668  10.461  12.233  0.00  0.00    +0.000 N 
ATOM     12  O   UNL     1      45.418  10.932  10.879  0.00  0.00    +0.000 OA
ATOM     13  H   UNL     1      43.291   9.858  12.958  0.00  0.00    +0.000 HD
ATOM     14  H   UNL     1      43.141  11.254  11.897  0.00  0.00    +0.000 HD
ENDBRANCH   7  10
BRANCH   1  15
ATOM     15  C   UNL     1      44.345   4.695  12.294  0.00  0.00    +0.000 C 
BRANCH  15  19
ATOM     16  C   UNL     1      45.182   3.312   8.279  0.00  0.00    +0.000 A 
ATOM     17  C   UNL     1      44.504   2.497   9.184  0.00  0.00    +0.000 A 
ATOM     18  C   UNL     1      44.242   2.944  10.483  0.00  0.00    +0.000 A 
ATOM     19  C   UNL     1      44.654   4.213  10.901  0.00  0.00    +0.000 A 
ATOM     20  C   UNL     1      45.339   5.030   9.990  0.00  0.00    +0.000 A 
ATOM     21  C   UNL     1      45.598   4.580   8.689  0.00  0.00    +0.000 A 
BRANCH  16  22
ATOM     22  O   UNL     1      45.489   2.981   6.984  0.00  0.00    +0.000 OA
BRANCH  22  23
ATOM     23  C   UNL     1      46.817   3.306   6.561  0.00  0.00    +0.000 C 
BRANCH  23  24
ATOM     24  C   UNL     1      47.752   2.125   6.839  0.00  0.00    +0.000 C 
BRANCH  24  25
ATOM     25  N   UNL     1      48.559   1.797   5.662  0.00  0.00    +0.000 NA
ATOM     26  H   UNL     1      47.942   1.514   4.901  0.00  0.00    +0.000 HD
ATOM     27  H   UNL     1      49.148   0.990   5.863  0.00  0.00    +0.000 HD
ENDBRANCH  24  25
ENDBRANCH  23  24
ENDBRANCH  22  23
ENDBRANCH  16  22
ENDBRANCH  15  19
ENDBRANCH   1  15
TORSDOF 7
ENDMDL
MODEL 3
REMARK VINA RESULT:    -6.593      1.845      2.521
REMARK INTER + INTRA:          -9.726
REMARK INTER:                  -9.172
REMARK INTRA:                  -0.554
REMARK UNBOUND:                -0.628
REMARK  Name = 
REMARK  7 active torsions:
REMARK  status: ('A' for Active; 'I' for Inactive)
REMARK    1  A    between atoms: N_1  and  C_2
REMARK    2  A    between atoms: C_2  and  C_3
REMARK    3  A    between atoms: C_3  and  O_4
REMARK    4  A    between atoms: O_4  and  C_5
REMARK    5  A    between atoms: C_8  and  C_9
REMARK    6  A    between atoms: C_9  and  N_10
REMARK    7  A    between atoms: C_16  and  C_17
REMARK                            x       y       z     vdW  Elec       q    Type
REMARK                         _______ _______ _______ _____ _____    ______ ____
ROOT
ATOM      1  N   UNL     1      44.421   6.592  11.605  0.00  0.00    +0.000 N 
ATOM      2  C   UNL     1      43.700   7.631  11.066  0.00  0.00    +0.000 A 
ATOM      3  C   UNL     1      44.336   8.807  11.390  0.00  0.00    +0.000 A 
ATOM      4  C   UNL     1      45.492   8.482  12.150  0.00  0.00    +0.000 A 
ATOM      5  C   UNL     1      46.492   9.245  12.772  0.00  0.00    +0.000 A 
ATOM      6  N   UNL     1      47.498   8.649  13.459  0.00  0.00    +0.000 NA
ATOM      7  C   UNL     1      47.520   7.288  13.515  0.00  0.00    +0.000 A 
ATOM      8  C   UNL     1      46.579   6.448  12.930  0.00  0.00    +0.000 A 
ATOM      9  C   UNL     1      45.541   7.087  12.249  0.00  0.00    +0.000 A 
ENDROOT
BRANCH   7  10
ATOM     10  C   UNL     1      48.639   6.671  14.301  0.00  0.00    +0.000 C 
ATOM     11  N   UNL     1      49.876   7.213  14.098  0.00  0.00    +0.000 N 
ATOM     12  O   UNL     1      48.463   5.748  15.085  0.00  0.00    +0.000 OA
ATOM     13  H   UNL     1      49.983   7.989  13.451  0.00  0.00    +0.000 HD
ATOM     14  H   UNL     1      50.669   6.860  14.614  0.00  0.00    +0.000 HD
ENDBRANCH   7  10
BRANCH   1  15
ATOM     15  C   UNL     1      43.957   5.206  11.637  0.00  0.00    +0.000 C 
BRANCH  15  19
ATOM     16  C   UNL     1      45.443   2.880   8.303  0.00  0.00    +0.000 A 
ATOM     17  C   UNL     1      45.750   4.235   8.417  0.00  0.00    +0.000 A 
ATOM     18  C   UNL     1      45.262   4.986   9.491  0.00  0.00    +0.000 A 
ATOM     19  C   UNL     1      44.457   4.395  10.471  0.00  0.00    +0.000 A 
ATOM     20  C   UNL     1      44.146   3.033  10.352  0.00  0.00    +0.000 A 
ATOM     21  C   UNL     1      44.639   2.284   9.276  0.00  0.00    +0.000 A 
BRANCH  16  22
ATOM     22  O   UNL     1      45.867   2.049   7.299  0.00  0.00    +0.000 OA
BRANCH  22  23
ATOM     23  C   UNL     1      47.183   1.509   7.457  0.00  0.00    +0.000 C 
BRANCH  23  24
ATOM     24  C   UNL     1      48.194   2.384   6.708  0.00  0.00    +0.000 C 
BRANCH  24  25
ATOM     25  N   UNL     1      48.468   1.852   5.371  0.00  0.00    +0.000 NA
ATOM     26  H   UNL     1      47.591   1.763   4.860  0.00  0.00    +0.000 HD
ATOM     27  H   UNL     1      48.847   0.909   5.448  0.00  0.00    +0.000 HD
ENDBRANCH  24  25
ENDBRANCH  23  24
ENDBRANCH  22  23
ENDBRANCH  16  22
ENDBRANCH  15  19
ENDBRANCH   1  15
TORSDOF 7
ENDMDL
MODEL 4
REMARK VINA RESULT:    -6.272      2.117      7.307
REMARK INTER + INTRA:          -9.283
REMARK INTER:                  -8.561
REMARK INTRA:                  -0.722
REMARK UNBOUND:                -0.628
REMARK  Name = 
REMARK  7 active torsions:
REMARK  status: ('A' for Active; 'I' for Inactive)
REMARK    1  A    between atoms: N_1  and  C_2
REMARK    2  A    between atoms: C_2  and  C_3
REMARK    3  A    between atoms: C_3  and  O_4
REMARK    4  A    between atoms: O_4  and  C_5
REMARK    5  A    between atoms: C_8  and  C_9
REMARK    6  A    between atoms: C_9  and  N_10
REMARK    7  A    between atoms: C_16  and  C_17
REMARK                            x       y       z     vdW  Elec       q    Type
REMARK                         _______ _______ _______ _____ _____    ______ ____
ROOT
ATOM      1  N   UNL     1      44.304   5.248  11.166  0.00  0.00    +0.000 N 
ATOM      2  C   UNL     1      43.446   4.650  12.058  0.00  0.00    +0.000 A 
ATOM      3  C   UNL     1      43.288   3.335  11.685  0.00  0.00    +0.000 A 
ATOM      4  C   UNL     1      44.081   3.113  10.526  0.00  0.00    +0.000 A 
ATOM      5  C   UNL     1      44.296   2.004   9.693  0.00  0.00    +0.000 A 
ATOM      6  N   UNL     1      45.121   2.088   8.620  0.00  0.00    +0.000 NA
ATOM      7  C   UNL     1      45.749   3.273   8.383  0.00  0.00    +0.000 A 
ATOM      8  C   UNL     1      45.603   4.423   9.150  0.00  0.00    +0.000 A 
ATOM      9  C   UNL     1      44.730   4.318  10.235  0.00  0.00    +0.000 A 
ENDROOT
BRANCH   7  10
ATOM     10  C   UNL     1      46.638   3.327   7.175  0.00  0.00    +0.000 C 
ATOM     11  N   UNL     1      47.579   2.341   7.087  0.00  0.00    +0.000 N 
ATOM     12  O   UNL     1      46.528   4.189   6.313  0.00  0.00    +0.000 OA
ATOM     13  H   UNL     1      47.632   1.633   7.814  0.00  0.00    +0.000 HD
ATOM     14  H   UNL     1      48.194   2.305   6.288  0.00  0.00    +0.000 HD
ENDBRANCH   7  10
BRANCH   1  15
ATOM     15  C   UNL     1      44.562   6.686  11.122  0.00  0.00    +0.000 C 
BRANCH  15  19
ATOM     16  C   UNL     1      47.969   7.836  13.530  0.00  0.00    +0.000 A 
ATOM     17  C   UNL     1      46.775   8.553  13.600  0.00  0.00    +0.000 A 
ATOM     18  C   UNL     1      45.679   8.183  12.815  0.00  0.00    +0.000 A 
ATOM     19  C   UNL     1      45.756   7.091  11.945  0.00  0.00    +0.000 A 
ATOM     20  C   UNL     1      46.960   6.374  11.873  0.00  0.00    +0.000 A 
ATOM     21  C   UNL     1      48.055   6.745  12.663  0.00  0.00    +0.000 A 
BRANCH  16  22
ATOM     22  O   UNL     1      49.103   8.104  14.254  0.00  0.00    +0.000 OA
BRANCH  22  23
ATOM     23  C   UNL     1      48.956   8.049  15.676  0.00  0.00    +0.000 C 
BRANCH  23  24
ATOM     24  C   UNL     1      49.234   6.626  16.170  0.00  0.00    +0.000 C 
BRANCH  24  25
ATOM     25  N   UNL     1      48.061   6.055  16.835  0.00  0.00    +0.000 NA
ATOM     26  H   UNL     1      48.184   6.119  17.845  0.00  0.00    +0.000 HD
ATOM     27  H   UNL     1      47.994   5.061  16.621  0.00  0.00    +0.000 HD
ENDBRANCH  24  25
ENDBRANCH  23  24
ENDBRANCH  22  23
ENDBRANCH  16  22
ENDBRANCH  15  19
ENDBRANCH   1  15
TORSDOF 7
ENDMDL
MODEL 5
REMARK VINA RESULT:    -6.147      2.991      7.720
REMARK INTER + INTRA:          -9.111
REMARK INTER:                  -8.372
REMARK INTRA:                  -0.739
REMARK UNBOUND:                -0.628
REMARK  Name = 
REMARK  7 active torsions:
REMARK  status: ('A' for Active; 'I' for Inactive)
REMARK    1  A    between atoms: N_1  and  C_2
REMARK    2  A    between atoms: C_2  and  C_3
REMARK    3  A    between atoms: C_3  and  O_4
REMARK    4  A    between atoms: O_4  and  C_5
REMARK    5  A    between atoms: C_8  and  C_9
REMARK    6  A    between atoms: C_9  and  N_10
REMARK    7  A    between atoms: C_16  and  C_17
REMARK                            x       y       z     vdW  Elec       q    Type
REMARK                         _______ _______ _______ _____ _____    ______ ____
ROOT
ATOM      1  N   UNL     1      46.519   6.610  12.579  0.00  0.00    +0.000 N 
ATOM      2  C   UNL     1      46.264   7.961  12.553  0.00  0.00    +0.000 A 
ATOM      3  C   UNL     1      45.032   8.153  11.972  0.00  0.00    +0.000 A 
ATOM      4  C   UNL     1      44.505   6.877  11.634  0.00  0.00    +0.000 A 
ATOM      5  C   UNL     1      43.327   6.447  11.004  0.00  0.00    +0.000 A 
ATOM      6  N   UNL     1      43.088   5.129  10.798  0.00  0.00    +0.000 NA
ATOM      7  C   UNL     1      44.015   4.231  11.234  0.00  0.00    +0.000 A 
ATOM      8  C   UNL     1      45.208   4.558  11.870  0.00  0.00    +0.000 A 
ATOM      9  C   UNL     1      45.442   5.923  12.049  0.00  0.00    +0.000 A 
ENDROOT
BRANCH   7  10
ATOM     10  C   UNL     1      43.719   2.784  10.968  0.00  0.00    +0.000 C 
ATOM     11  N   UNL     1      44.452   2.202   9.973  0.00  0.00    +0.000 N 
ATOM     12  O   UNL     1      42.885   2.154  11.604  0.00  0.00    +0.000 OA
ATOM     13  H   UNL     1      45.146   2.752   9.475  0.00  0.00    +0.000 HD
ATOM     14  H   UNL     1      44.319   1.225   9.759  0.00  0.00    +0.000 HD
ENDBRANCH   7  10
BRANCH   1  15
ATOM     15  C   UNL     1      47.809   6.030  12.945  0.00  0.00    +0.000 C 
BRANCH  15  19
ATOM     16  C   UNL     1      48.129   5.296  17.199  0.00  0.00    +0.000 A 
ATOM     17  C   UNL     1      48.699   6.434  16.629  0.00  0.00    +0.000 A 
ATOM     18  C   UNL     1      48.600   6.664  15.254  0.00  0.00    +0.000 A 
ATOM     19  C   UNL     1      47.931   5.760  14.422  0.00  0.00    +0.000 A 
ATOM     20  C   UNL     1      47.363   4.614  14.996  0.00  0.00    +0.000 A 
ATOM     21  C   UNL     1      47.461   4.388  16.375  0.00  0.00    +0.000 A 
BRANCH  16  22
ATOM     22  O   UNL     1      48.160   4.972  18.530  0.00  0.00    +0.000 OA
BRANCH  22  23
ATOM     23  C   UNL     1      49.123   5.679  19.317  0.00  0.00    +0.000 C 
BRANCH  23  24
ATOM     24  C   UNL     1      49.489   4.851  20.553  0.00  0.00    +0.000 C 
BRANCH  24  25
ATOM     25  N   UNL     1      48.422   3.908  20.896  0.00  0.00    +0.000 NA
ATOM     26  H   UNL     1      48.185   3.356  20.072  0.00  0.00    +0.000 HD
ATOM     27  H   UNL     1      47.576   4.421  21.145  0.00  0.00    +0.000 HD
ENDBRANCH  24  25
ENDBRANCH  23  24
ENDBRANCH  22  23
ENDBRANCH  16  22
ENDBRANCH  15  19
ENDBRANCH   1  15
TORSDOF 7
ENDMDL
MODEL 6
REMARK VINA RESULT:    -6.016      3.293      4.706
REMARK INTER + INTRA:          -8.930
REMARK INTER:                  -8.132
REMARK INTRA:                  -0.798
REMARK UNBOUND:                -0.628
REMARK  Name = 
REMARK  7 active torsions:
REMARK  status: ('A' for Active; 'I' for Inactive)
REMARK    1  A    between atoms: N_1  and  C_2
REMARK    2  A    between atoms: C_2  and  C_3
REMARK    3  A    between atoms: C_3  and  O_4
REMARK    4  A    between atoms: O_4  and  C_5
REMARK    5  A    between atoms: C_8  and  C_9
REMARK    6  A    between atoms: C_9  and  N_10
REMARK    7  A    between atoms: C_16  and  C_17
REMARK                            x       y       z     vdW  Elec       q    Type
REMARK                         _______ _______ _______ _____ _____    ______ ____
ROOT
ATOM      1  N   UNL     1      48.741   7.545  15.205  0.00  0.00    +0.000 N 
ATOM      2  C   UNL     1      48.568   8.888  15.445  0.00  0.00    +0.000 A 
ATOM      3  C   UNL     1      48.483   9.072  16.805  0.00  0.00    +0.000 A 
ATOM      4  C   UNL     1      48.613   7.800  17.427  0.00  0.00    +0.000 A 
ATOM      5  C   UNL     1      48.576   7.361  18.759  0.00  0.00    +0.000 A 
ATOM      6  N   UNL     1      48.723   6.048  19.065  0.00  0.00    +0.000 NA
ATOM      7  C   UNL     1      48.924   5.169  18.044  0.00  0.00    +0.000 A 
ATOM      8  C   UNL     1      48.979   5.507  16.696  0.00  0.00    +0.000 A 
ATOM      9  C   UNL     1      48.802   6.862  16.406  0.00  0.00    +0.000 A 
ENDROOT
BRANCH   7  10
ATOM     10  C   UNL     1      49.062   3.724  18.425  0.00  0.00    +0.000 C 
ATOM     11  N   UNL     1      48.393   3.343  19.554  0.00  0.00    +0.000 N 
ATOM     12  O   UNL     1      49.719   2.929  17.768  0.00  0.00    +0.000 OA
ATOM     13  H   UNL     1      47.845   4.026  20.066  0.00  0.00    +0.000 HD
ATOM     14  H   UNL     1      48.425   2.379  19.853  0.00  0.00    +0.000 HD
ENDBRANCH   7  10
BRANCH   1  15
ATOM     15  C   UNL     1      48.680   6.939  13.876  0.00  0.00    +0.000 C 
BRANCH  15  19
ATOM     16  C   UNL     1      44.766   5.395  12.864  0.00  0.00    +0.000 A 
ATOM     17  C   UNL     1      45.068   6.743  12.677  0.00  0.00    +0.000 A 
ATOM     18  C   UNL     1      46.331   7.240  13.012  0.00  0.00    +0.000 A 
ATOM     19  C   UNL     1      47.315   6.399  13.542  0.00  0.00    +0.000 A 
ATOM     20  C   UNL     1      47.007   5.044  13.733  0.00  0.00    +0.000 A 
ATOM     21  C   UNL     1      45.742   4.549  13.393  0.00  0.00    +0.000 A 
BRANCH  16  22
ATOM     22  O   UNL     1      43.567   4.799  12.568  0.00  0.00    +0.000 OA
BRANCH  22  23
ATOM     23  C   UNL     1      43.323   4.556  11.179  0.00  0.00    +0.000 C 
BRANCH  23  24
ATOM     24  C   UNL     1      43.731   3.122  10.826  0.00  0.00    +0.000 C 
BRANCH  24  25
ATOM     25  N   UNL     1      43.065   2.150  11.695  0.00  0.00    +0.000 NA
ATOM     26  H   UNL     1      42.409   2.639  12.304  0.00  0.00    +0.000 HD
ATOM     27  H   UNL     1      43.751   1.714  12.312  0.00  0.00    +0.000 HD
ENDBRANCH  24  25
ENDBRANCH  23  24
ENDBRANCH  22  23
ENDBRANCH  16  22
ENDBRANCH  15  19
ENDBRANCH   1  15
TORSDOF 7
ENDMDL
MODEL 7
REMARK VINA RESULT:    -5.345      3.868      5.070
REMARK INTER + INTRA:          -8.004
REMARK INTER:                  -7.378
REMARK INTRA:                  -0.627
REMARK UNBOUND:                -0.628
REMARK  Name = 
REMARK  7 active torsions:
REMARK  status: ('A' for Active; 'I' for Inactive)
REMARK    1  A    between atoms: N_1  and  C_2
REMARK    2  A    between atoms: C_2  and  C_3
REMARK    3  A    between atoms: C_3  and  O_4
REMARK    4  A    between atoms: O_4  and  C_5
REMARK    5  A    between atoms: C_8  and  C_9
REMARK    6  A    between atoms: C_9  and  N_10
REMARK    7  A    between atoms: C_16  and  C_17
REMARK                            x       y       z     vdW  Elec       q    Type
REMARK                         _______ _______ _______ _____ _____    ______ ____
ROOT
ATOM      1  N   UNL     1      48.290   8.262  12.771  0.00  0.00    +0.000 N 
ATOM      2  C   UNL     1      47.642   9.461  12.955  0.00  0.00    +0.000 A 
ATOM      3  C   UNL     1      48.379  10.445  12.338  0.00  0.00    +0.000 A 
ATOM      4  C   UNL     1      49.518   9.832  11.747  0.00  0.00    +0.000 A 
ATOM      5  C   UNL     1      50.620  10.318  11.028  0.00  0.00    +0.000 A 
ATOM      6  N   UNL     1      51.588   9.478  10.584  0.00  0.00    +0.000 NA
ATOM      7  C   UNL     1      51.452   8.148  10.842  0.00  0.00    +0.000 A 
ATOM      8  C   UNL     1      50.397   7.572  11.541  0.00  0.00    +0.000 A 
ATOM      9  C   UNL     1      49.426   8.460  12.008  0.00  0.00    +0.000 A 
ENDROOT
BRANCH   7  10
ATOM     10  C   UNL     1      52.555   7.257  10.349  0.00  0.00    +0.000 C 
ATOM     11  N   UNL     1      53.624   7.119  11.188  0.00  0.00    +0.000 N 
ATOM     12  O   UNL     1      52.504   6.679   9.272  0.00  0.00    +0.000 OA
ATOM     13  H   UNL     1      53.626   7.602  12.081  0.00  0.00    +0.000 HD
ATOM     14  H   UNL     1      54.390   6.515  10.928  0.00  0.00    +0.000 HD
ENDBRANCH   7  10
BRANCH   1  15
ATOM     15  C   UNL     1      47.914   7.020  13.443  0.00  0.00    +0.000 C 
BRANCH  15  19
ATOM     16  C   UNL     1      44.831   4.830  11.339  0.00  0.00    +0.000 A 
ATOM     17  C   UNL     1      45.162   4.505  12.653  0.00  0.00    +0.000 A 
ATOM     18  C   UNL     1      46.164   5.209  13.328  0.00  0.00    +0.000 A 
ATOM     19  C   UNL     1      46.854   6.251  12.700  0.00  0.00    +0.000 A 
ATOM     20  C   UNL     1      46.522   6.573  11.376  0.00  0.00    +0.000 A 
ATOM     21  C   UNL     1      45.516   5.868  10.704  0.00  0.00    +0.000 A 
BRANCH  16  22
ATOM     22  O   UNL     1      43.867   4.213  10.584  0.00  0.00    +0.000 OA
BRANCH  22  23
ATOM     23  C   UNL     1      44.090   2.826  10.310  0.00  0.00    +0.000 C 
BRANCH  23  24
ATOM     24  C   UNL     1      44.863   2.677   8.996  0.00  0.00    +0.000 C 
BRANCH  24  25
ATOM     25  N   UNL     1      45.477   1.352   8.888  0.00  0.00    +0.000 NA
ATOM     26  H   UNL     1      45.006   0.711   9.526  0.00  0.00    +0.000 HD
ATOM     27  H   UNL     1      46.447   1.396   9.198  0.00  0.00    +0.000 HD
ENDBRANCH  24  25
ENDBRANCH  23  24
ENDBRANCH  22  23
ENDBRANCH  16  22
ENDBRANCH  15  19
ENDBRANCH   1  15
TORSDOF 7
ENDMDL
MODEL 8
REMARK VINA RESULT:    -5.336      3.433      6.224
REMARK INTER + INTRA:          -7.991
REMARK INTER:                  -7.053
REMARK INTRA:                  -0.937
REMARK UNBOUND:                -0.628
REMARK  Name = 
REMARK  7 active torsions:
REMARK  status: ('A' for Active; 'I' for Inactive)
REMARK    1  A    between atoms: N_1  and  C_2
REMARK    2  A    between atoms: C_2  and  C_3
REMARK    3  A    between atoms: C_3  and  O_4
REMARK    4  A    between atoms: O_4  and  C_5
REMARK    5  A    between atoms: C_8  and  C_9
REMARK    6  A    between atoms: C_9  and  N_10
REMARK    7  A    between atoms: C_16  and  C_17
REMARK                            x       y       z     vdW  Elec       q    Type
REMARK                         _______ _______ _______ _____ _____    ______ ____
ROOT
ATOM      1  N   UNL     1      45.789   7.206  12.540  0.00  0.00    +0.000 N 
ATOM      2  C   UNL     1      45.053   7.105  11.383  0.00  0.00    +0.000 A 
ATOM      3  C   UNL     1      44.852   5.770  11.118  0.00  0.00    +0.000 A 
ATOM      4  C   UNL     1      45.481   5.022  12.150  0.00  0.00    +0.000 A 
ATOM      5  C   UNL     1      45.638   3.650  12.398  0.00  0.00    +0.000 A 
ATOM      6  N   UNL     1      46.316   3.211  13.488  0.00  0.00    +0.000 NA
ATOM      7  C   UNL     1      46.825   4.139  14.344  0.00  0.00    +0.000 A 
ATOM      8  C   UNL     1      46.719   5.516  14.187  0.00  0.00    +0.000 A 
ATOM      9  C   UNL     1      46.038   5.942  13.045  0.00  0.00    +0.000 A 
ENDROOT
BRANCH   7  10
ATOM     10  C   UNL     1      47.583   3.610  15.526  0.00  0.00    +0.000 C 
ATOM     11  N   UNL     1      47.371   4.263  16.707  0.00  0.00    +0.000 N 
ATOM     12  O   UNL     1      48.337   2.650  15.450  0.00  0.00    +0.000 OA
ATOM     13  H   UNL     1      46.728   5.048  16.737  0.00  0.00    +0.000 HD
ATOM     14  H   UNL     1      47.832   3.943  17.546  0.00  0.00    +0.000 HD
ENDBRANCH   7  10
BRANCH   1  15
ATOM     15  C   UNL     1      46.363   8.455  13.036  0.00  0.00    +0.000 C 
BRANCH  15  19
ATOM     16  C   UNL     1      50.684   8.503  12.793  0.00  0.00    +0.000 A 
ATOM     17  C   UNL     1      50.037   8.764  14.001  0.00  0.00    +0.000 A 
ATOM     18  C   UNL     1      48.641   8.755  14.074  0.00  0.00    +0.000 A 
ATOM     19  C   UNL     1      47.865   8.487  12.941  0.00  0.00    +0.000 A 
ATOM     20  C   UNL     1      48.518   8.230  11.727  0.00  0.00    +0.000 A 
ATOM     21  C   UNL     1      49.916   8.236  11.658  0.00  0.00    +0.000 A 
BRANCH  16  22
ATOM     22  O   UNL     1      52.041   8.482  12.605  0.00  0.00    +0.000 OA
BRANCH  22  23
ATOM     23  C   UNL     1      52.823   9.009  13.681  0.00  0.00    +0.000 C 
BRANCH  23  24
ATOM     24  C   UNL     1      53.782   7.933  14.200  0.00  0.00    +0.000 C 
BRANCH  24  25
ATOM     25  N   UNL     1      53.121   7.053  15.166  0.00  0.00    +0.000 NA
ATOM     26  H   UNL     1      52.145   6.932  14.896  0.00  0.00    +0.000 HD
ATOM     27  H   UNL     1      53.107   7.498  16.083  0.00  0.00    +0.000 HD
ENDBRANCH  24  25
ENDBRANCH  23  24
ENDBRANCH  22  23
ENDBRANCH  16  22
ENDBRANCH  15  19
ENDBRANCH   1  15
TORSDOF 7
ENDMDL
MODEL 9
REMARK VINA RESULT:    -5.322      3.281      5.099
REMARK INTER + INTRA:          -7.972
REMARK INTER:                  -7.510
REMARK INTRA:                  -0.462
REMARK UNBOUND:                -0.628
REMARK  Name = 
REMARK  7 active torsions:
REMARK  status: ('A' for Active; 'I' for Inactive)
REMARK    1  A    between atoms: N_1  and  C_2
REMARK    2  A    between atoms: C_2  and  C_3
REMARK    3  A    between atoms: C_3  and  O_4
REMARK    4  A    between atoms: O_4  and  C_5
REMARK    5  A    between atoms: C_8  and  C_9
REMARK    6  A    between atoms: C_9  and  N_10
REMARK    7  A    between atoms: C_16  and  C_17
REMARK                            x       y       z     vdW  Elec       q    Type
REMARK                         _______ _______ _______ _____ _____    ______ ____
ROOT
ATOM      1  N   UNL     1      49.681   7.578  15.579  0.00  0.00    +0.000 N 
ATOM      2  C   UNL     1      50.983   7.975  15.386  0.00  0.00    +0.000 A 
ATOM      3  C   UNL     1      51.805   7.065  16.007  0.00  0.00    +0.000 A 
ATOM      4  C   UNL     1      50.983   6.067  16.599  0.00  0.00    +0.000 A 
ATOM      5  C   UNL     1      51.244   4.927  17.374  0.00  0.00    +0.000 A 
ATOM      6  N   UNL     1      50.233   4.144  17.824  0.00  0.00    +0.000 NA
ATOM      7  C   UNL     1      48.958   4.485  17.489  0.00  0.00    +0.000 A 
ATOM      8  C   UNL     1      48.600   5.591  16.726  0.00  0.00    +0.000 A 
ATOM      9  C   UNL     1      49.657   6.394  16.295  0.00  0.00    +0.000 A 
ENDROOT
BRANCH   7  10
ATOM     10  C   UNL     1      47.868   3.602  18.024  0.00  0.00    +0.000 C 
ATOM     11  N   UNL     1      48.114   3.028  19.239  0.00  0.00    +0.000 N 
ATOM     12  O   UNL     1      46.820   3.411  17.423  0.00  0.00    +0.000 OA
ATOM     13  H   UNL     1      48.989   3.220  19.716  0.00  0.00    +0.000 HD
ATOM     14  H   UNL     1      47.412   2.441  19.667  0.00  0.00    +0.000 HD
ENDBRANCH   7  10
BRANCH   1  15
ATOM     15  C   UNL     1      48.518   8.393  15.233  0.00  0.00    +0.000 C 
BRANCH  15  19
ATOM     16  C   UNL     1      46.269   6.758  11.916  0.00  0.00    +0.000 A 
ATOM     17  C   UNL     1      47.394   6.096  12.406  0.00  0.00    +0.000 A 
ATOM     18  C   UNL     1      48.123   6.631  13.473  0.00  0.00    +0.000 A 
ATOM     19  C   UNL     1      47.741   7.838  14.068  0.00  0.00    +0.000 A 
ATOM     20  C   UNL     1      46.612   8.503  13.570  0.00  0.00    +0.000 A 
ATOM     21  C   UNL     1      45.882   7.963  12.504  0.00  0.00    +0.000 A 
BRANCH  16  22
ATOM     22  O   UNL     1      45.479   6.327  10.882  0.00  0.00    +0.000 OA
BRANCH  22  23
ATOM     23  C   UNL     1      45.035   4.969  10.967  0.00  0.00    +0.000 C 
BRANCH  23  24
ATOM     24  C   UNL     1      43.575   4.873  10.513  0.00  0.00    +0.000 C 
BRANCH  24  25
ATOM     25  N   UNL     1      42.849   6.113  10.797  0.00  0.00    +0.000 NA
ATOM     26  H   UNL     1      43.517   6.875  10.909  0.00  0.00    +0.000 HD
ATOM     27  H   UNL     1      42.363   6.030  11.690  0.00  0.00    +0.000 HD
ENDBRANCH  24  25
ENDBRANCH  23  24
ENDBRANCH  22  23
ENDBRANCH  16  22
ENDBRANCH  15  19
ENDBRANCH   1  15
TORSDOF 7
ENDMDL
