MODEL 1
REMARK VINA RESULT:    -8.535      0.000      0.000
REMARK INTER + INTRA:         -12.617
REMARK INTER:                 -11.529
REMARK INTRA:                  -1.088
REMARK UNBOUND:                -1.088
REMARK  Name = 
REMARK  7 active torsions:
REMARK  status: ('A' for Active; 'I' for Inactive)
REMARK    1  A    between atoms: C_1  and  C_2
REMARK    2  A    between atoms: C_2  and  N_3
REMARK    3  A    between atoms: C_2  and  C_16
REMARK    4  A    between atoms: C_4  and  C_6
REMARK    5  A    between atoms: C_19  and  O_20
REMARK    6  A    between atoms: O_20  and  C_21
REMARK    7  A    between atoms: C_21  and  C_22
REMARK                            x       y       z     vdW  Elec       q    Type
REMARK                         _______ _______ _______ _____ _____    ______ ____
ROOT
ATOM      1  C   UNL     1      46.647   8.599  13.169  0.00  0.00    +0.000 C 
ATOM      2  C   UNL     1      47.371   7.248  13.243  0.00  0.00    +0.000 C 
ENDROOT
BRANCH   2   3
ATOM      3  C   UNL     1      46.528   6.186  12.551  0.00  0.00    +0.000 A 
ATOM      4  C   UNL     1      45.960   6.404  11.289  0.00  0.00    +0.000 A 
ATOM      5  C   UNL     1      45.254   5.377  10.647  0.00  0.00    +0.000 A 
ATOM      6  C   UNL     1      45.121   4.127  11.252  0.00  0.00    +0.000 A 
ATOM      7  C   UNL     1      45.624   3.929  12.536  0.00  0.00    +0.000 A 
ATOM      8  C   UNL     1      46.336   4.941  13.169  0.00  0.00    +0.000 A 
BRANCH   6   9
ATOM      9  O   UNL     1      44.507   3.153  10.507  0.00  0.00    +0.000 OA
BRANCH   9  10
ATOM     10  C   UNL     1      44.343   3.491   9.126  0.00  0.00    +0.000 C 
BRANCH  10  11
ATOM     11  C   UNL     1      45.419   2.848   8.289  0.00  0.00    +0.000 A 
ATOM     12  C   UNL     1      46.174   3.626   7.400  0.00  0.00    +0.000 A 
ATOM     13  C   UNL     1      47.235   3.058   6.695  0.00  0.00    +0.000 A 
ATOM     14  C   UNL     1      47.550   1.714   6.874  0.00  0.00    +0.000 A 
ATOM     15  C   UNL     1      46.802   0.931   7.753  0.00  0.00    +0.000 A 
ATOM     16  C   UNL     1      45.741   1.496   8.461  0.00  0.00    +0.000 A 
ENDBRANCH  10  11
ENDBRANCH   9  10
ENDBRANCH   6   9
ENDBRANCH   2   3
BRANCH   2  17
ATOM     17  N   UNL     1      47.623   6.811  14.610  0.00  0.00    +0.000 N 
ATOM     18  C   UNL     1      48.833   6.929  15.239  0.00  0.00    +0.000 C 
ATOM     19  O   UNL     1      49.808   7.455  14.710  0.00  0.00    +0.000 OA
ATOM     20  H   UNL     1      46.973   6.118  14.972  0.00  0.00    +0.000 HD
BRANCH  18  21
ATOM     21  C   UNL     1      48.892   6.456  16.628  0.00  0.00    +0.000 A 
ATOM     22  C   UNL     1      49.288   7.327  17.632  0.00  0.00    +0.000 A 
ATOM     23  S   UNL     1      49.289   6.627  19.186  0.00  0.00    +0.000 S 
ATOM     24  C   UNL     1      48.799   5.120  18.567  0.00  0.00    +0.000 A 
ATOM     25  N   UNL     1      48.645   4.045  19.385  0.00  0.00    +0.000 NA
ATOM     26  C   UNL     1      48.302   2.956  18.777  0.00  0.00    +0.000 A 
ATOM     27  N   UNL     1      48.082   2.853  17.429  0.00  0.00    +0.000 N 
ATOM     28  C   UNL     1      48.184   3.923  16.570  0.00  0.00    +0.000 A 
ATOM     29  O   UNL     1      47.913   3.818  15.379  0.00  0.00    +0.000 OA
ATOM     30  C   UNL     1      48.604   5.160  17.197  0.00  0.00    +0.000 A 
ATOM     31  H   UNL     1      47.794   1.976  17.020  0.00  0.00    +0.000 HD
ENDBRANCH  18  21
ENDBRANCH   2  17
TORSDOF 6
ENDMDL
MODEL 2
REMARK VINA RESULT:    -8.401      1.612      2.584
REMARK INTER + INTRA:         -12.436
REMARK INTER:                 -11.186
REMARK INTRA:                  -1.250
REMARK UNBOUND:                -1.088
REMARK  Name = 
REMARK  7 active torsions:
REMARK  status: ('A' for Active; 'I' for Inactive)
REMARK    1  A    between atoms: C_1  and  C_2
REMARK    2  A    between atoms: C_2  and  N_3
REMARK    3  A    between atoms: C_2  and  C_16
REMARK    4  A    between atoms: C_4  and  C_6
REMARK    5  A    between atoms: C_19  and  O_20
REMARK    6  A    between atoms: O_20  and  C_21
REMARK    7  A    between atoms: C_21  and  C_22
REMARK                            x       y       z     vdW  Elec       q    Type
REMARK                         _______ _______ _______ _____ _____    ______ ____
ROOT
ATOM      1  C   UNL     1      47.297   8.672  13.624  0.00  0.00    +0.000 C 
ATOM      2  C   UNL     1      47.835   7.240  13.739  0.00  0.00    +0.000 C 
ENDROOT
BRANCH   2   3
ATOM      3  C   UNL     1      46.975   6.310  12.895  0.00  0.00    +0.000 A 
ATOM      4  C   UNL     1      46.479   5.102  13.403  0.00  0.00    +0.000 A 
ATOM      5  C   UNL     1      45.627   4.307  12.626  0.00  0.00    +0.000 A 
ATOM      6  C   UNL     1      45.256   4.715  11.344  0.00  0.00    +0.000 A 
ATOM      7  C   UNL     1      45.804   5.879  10.808  0.00  0.00    +0.000 A 
ATOM      8  C   UNL     1      46.638   6.677  11.583  0.00  0.00    +0.000 A 
BRANCH   6   9
ATOM      9  O   UNL     1      44.338   3.928  10.696  0.00  0.00    +0.000 OA
BRANCH   9  10
ATOM     10  C   UNL     1      44.286   4.137   9.281  0.00  0.00    +0.000 C 
BRANCH  10  11
ATOM     11  C   UNL     1      45.321   3.296   8.580  0.00  0.00    +0.000 A 
ATOM     12  C   UNL     1      45.382   1.916   8.818  0.00  0.00    +0.000 A 
ATOM     13  C   UNL     1      46.271   1.116   8.101  0.00  0.00    +0.000 A 
ATOM     14  C   UNL     1      47.102   1.687   7.141  0.00  0.00    +0.000 A 
ATOM     15  C   UNL     1      47.052   3.060   6.900  0.00  0.00    +0.000 A 
ATOM     16  C   UNL     1      46.163   3.863   7.614  0.00  0.00    +0.000 A 
ENDBRANCH  10  11
ENDBRANCH   9  10
ENDBRANCH   6   9
ENDBRANCH   2   3
BRANCH   2  17
ATOM     17  N   UNL     1      47.838   6.741  15.109  0.00  0.00    +0.000 N 
ATOM     18  C   UNL     1      48.974   6.437  15.809  0.00  0.00    +0.000 C 
ATOM     19  O   UNL     1      50.101   6.599  15.349  0.00  0.00    +0.000 OA
ATOM     20  H   UNL     1      46.969   6.312  15.417  0.00  0.00    +0.000 HD
BRANCH  18  21
ATOM     21  C   UNL     1      48.782   5.971  17.188  0.00  0.00    +0.000 A 
ATOM     22  C   UNL     1      49.031   4.643  17.503  0.00  0.00    +0.000 A 
ATOM     23  S   UNL     1      48.775   4.269  19.146  0.00  0.00    +0.000 S 
ATOM     24  C   UNL     1      48.281   5.861  19.488  0.00  0.00    +0.000 A 
ATOM     25  N   UNL     1      47.877   6.214  20.737  0.00  0.00    +0.000 NA
ATOM     26  C   UNL     1      47.497   7.446  20.847  0.00  0.00    +0.000 A 
ATOM     27  N   UNL     1      47.502   8.357  19.824  0.00  0.00    +0.000 N 
ATOM     28  C   UNL     1      47.942   8.055  18.555  0.00  0.00    +0.000 A 
ATOM     29  O   UNL     1      48.002   8.908  17.677  0.00  0.00    +0.000 OA
ATOM     30  C   UNL     1      48.343   6.675  18.370  0.00  0.00    +0.000 A 
ATOM     31  H   UNL     1      47.213   9.310  19.983  0.00  0.00    +0.000 HD
ENDBRANCH  18  21
ENDBRANCH   2  17
TORSDOF 6
ENDMDL
MODEL 3
REMARK VINA RESULT:    -7.947      2.911      4.309
REMARK INTER + INTRA:         -11.822
REMARK INTER:                 -10.584
REMARK INTRA:                  -1.238
REMARK UNBOUND:                -1.088
REMARK  Name = 
REMARK  7 active torsions:
REMARK  status: ('A' for Active; 'I' for Inactive)
REMARK    1  A    between atoms: C_1  and  C_2
REMARK    2  A    between atoms: C_2  and  N_3
REMARK    3  A    between atoms: C_2  and  C_16
REMARK    4  A    between atoms: C_4  and  C_6
REMARK    5  A    between atoms: C_19  and  O_20
REMARK    6  A    between atoms: O_20  and  C_21
REMARK    7  A    between atoms: C_21  and  C_22
REMARK                            x       y       z     vdW  Elec       q    Type
REMARK                         _______ _______ _______ _____ _____    ______ ____
ROOT
ATOM      1  C   UNL     1      47.151   4.433  14.897  0.00  0.00    +0.000 C 
ATOM      2  C   UNL     1      46.752   5.619  14.008  0.00  0.00    +0.000 C 
ENDROOT
BRANCH   2   3
ATOM      3  C   UNL     1      45.966   5.108  12.809  0.00  0.00    +0.000 A 
ATOM      4  C   UNL     1      45.945   5.802  11.592  0.00  0.00    +0.000 A 
ATOM      5  C   UNL     1      45.274   5.264  10.485  0.00  0.00    +0.000 A 
ATOM      6  C   UNL     1      44.633   4.029  10.580  0.00  0.00    +0.000 A 
ATOM      7  C   UNL     1      44.592   3.369  11.808  0.00  0.00    +0.000 A 
ATOM      8  C   UNL     1      45.268   3.894  12.903  0.00  0.00    +0.000 A 
BRANCH   6   9
ATOM      9  O   UNL     1      44.093   3.532   9.421  0.00  0.00    +0.000 OA
BRANCH   9  10
ATOM     10  C   UNL     1      44.557   2.222   9.078  0.00  0.00    +0.000 C 
BRANCH  10  11
ATOM     11  C   UNL     1      45.692   2.301   8.090  0.00  0.00    +0.000 A 
ATOM     12  C   UNL     1      46.574   1.221   7.948  0.00  0.00    +0.000 A 
ATOM     13  C   UNL     1      47.566   1.246   6.968  0.00  0.00    +0.000 A 
ATOM     14  C   UNL     1      47.682   2.347   6.124  0.00  0.00    +0.000 A 
ATOM     15  C   UNL     1      46.812   3.428   6.260  0.00  0.00    +0.000 A 
ATOM     16  C   UNL     1      45.818   3.406   7.238  0.00  0.00    +0.000 A 
ENDBRANCH  10  11
ENDBRANCH   9  10
ENDBRANCH   6   9
ENDBRANCH   2   3
BRANCH   2  17
ATOM     17  N   UNL     1      47.898   6.372  13.514  0.00  0.00    +0.000 N 
ATOM     18  C   UNL     1      47.937   7.737  13.433  0.00  0.00    +0.000 C 
ATOM     19  O   UNL     1      47.013   8.453  13.809  0.00  0.00    +0.000 OA
ATOM     20  H   UNL     1      48.541   5.849  12.925  0.00  0.00    +0.000 HD
BRANCH  18  21
ATOM     21  C   UNL     1      49.188   8.323  12.934  0.00  0.00    +0.000 A 
ATOM     22  C   UNL     1      49.171   9.095  11.782  0.00  0.00    +0.000 A 
ATOM     23  S   UNL     1      50.700   9.711  11.347  0.00  0.00    +0.000 S 
ATOM     24  C   UNL     1      51.448   8.932  12.661  0.00  0.00    +0.000 A 
ATOM     25  N   UNL     1      52.791   9.019  12.854  0.00  0.00    +0.000 NA
ATOM     26  C   UNL     1      53.229   8.351  13.871  0.00  0.00    +0.000 A 
ATOM     27  N   UNL     1      52.443   7.620  14.720  0.00  0.00    +0.000 N 
ATOM     28  C   UNL     1      51.075   7.538  14.589  0.00  0.00    +0.000 A 
ATOM     29  O   UNL     1      50.388   6.935  15.406  0.00  0.00    +0.000 OA
ATOM     30  C   UNL     1      50.537   8.239  13.441  0.00  0.00    +0.000 A 
ATOM     31  H   UNL     1      52.847   7.140  15.511  0.00  0.00    +0.000 HD
ENDBRANCH  18  21
ENDBRANCH   2  17
TORSDOF 6
ENDMDL
MODEL 4
REMARK VINA RESULT:    -7.731      2.607      4.533
REMARK INTER + INTRA:         -11.531
REMARK INTER:                 -10.185
REMARK INTRA:                  -1.346
REMARK UNBOUND:                -1.088
REMARK  Name = 
REMARK  7 active torsions:
REMARK  status: ('A' for Active; 'I' for Inactive)
REMARK    1  A    between atoms: C_1  and  C_2
REMARK    2  A    between atoms: C_2  and  N_3
REMARK    3  A    between atoms: C_2  and  C_16
REMARK    4  A    between atoms: C_4  and  C_6
REMARK    5  A    between atoms: C_19  and  O_20
REMARK    6  A    between atoms: O_20  and  C_21
REMARK    7  A    between atoms: C_21  and  C_22
REMARK                            x       y       z     vdW  Elec       q    Type
REMARK                         _______ _______ _______ _____ _____    ______ ____
ROOT
ATOM      1  C   UNL     1      47.468   4.181  15.243  0.00  0.00    +0.000 C 
ATOM      2  C   UNL     1      47.033   5.433  14.470  0.00  0.00    +0.000 C 
ENDROOT
BRANCH   2   3
ATOM      3  C   UNL     1      46.223   5.016  13.251  0.00  0.00    +0.000 A 
ATOM      4  C   UNL     1      45.849   5.939  12.265  0.00  0.00    +0.000 A 
ATOM      5  C   UNL     1      45.169   5.508  11.117  0.00  0.00    +0.000 A 
ATOM      6  C   UNL     1      44.870   4.156  10.940  0.00  0.00    +0.000 A 
ATOM      7  C   UNL     1      45.178   3.247  11.951  0.00  0.00    +0.000 A 
ATOM      8  C   UNL     1      45.864   3.670  13.083  0.00  0.00    +0.000 A 
BRANCH   6   9
ATOM      9  O   UNL     1      44.298   3.811   9.742  0.00  0.00    +0.000 OA
BRANCH   9  10
ATOM     10  C   UNL     1      44.538   2.455   9.352  0.00  0.00    +0.000 C 
BRANCH  10  11
ATOM     11  C   UNL     1      45.560   2.392   8.248  0.00  0.00    +0.000 A 
ATOM     12  C   UNL     1      45.775   3.507   7.425  0.00  0.00    +0.000 A 
ATOM     13  C   UNL     1      46.786   3.490   6.466  0.00  0.00    +0.000 A 
ATOM     14  C   UNL     1      47.590   2.362   6.321  0.00  0.00    +0.000 A 
ATOM     15  C   UNL     1      47.382   1.246   7.131  0.00  0.00    +0.000 A 
ATOM     16  C   UNL     1      46.372   1.260   8.094  0.00  0.00    +0.000 A 
ENDBRANCH  10  11
ENDBRANCH   9  10
ENDBRANCH   6   9
ENDBRANCH   2   3
BRANCH   2  17
ATOM     17  N   UNL     1      48.158   6.241  14.015  0.00  0.00    +0.000 N 
ATOM     18  C   UNL     1      48.813   7.149  14.801  0.00  0.00    +0.000 C 
ATOM     19  O   UNL     1      48.529   7.334  15.982  0.00  0.00    +0.000 OA
ATOM     20  H   UNL     1      48.235   6.353  13.007  0.00  0.00    +0.000 HD
BRANCH  18  21
ATOM     21  C   UNL     1      49.942   7.853  14.179  0.00  0.00    +0.000 A 
ATOM     22  C   UNL     1      51.203   7.763  14.748  0.00  0.00    +0.000 A 
ATOM     23  S   UNL     1      52.403   8.624  13.895  0.00  0.00    +0.000 S 
ATOM     24  C   UNL     1      51.269   9.184  12.757  0.00  0.00    +0.000 A 
ATOM     25  N   UNL     1      51.642  10.022  11.754  0.00  0.00    +0.000 NA
ATOM     26  C   UNL     1      50.673  10.395  10.982  0.00  0.00    +0.000 A 
ATOM     27  N   UNL     1      49.371   9.991  11.115  0.00  0.00    +0.000 N 
ATOM     28  C   UNL     1      48.957   9.111  12.089  0.00  0.00    +0.000 A 
ATOM     29  O   UNL     1      47.799   8.711  12.142  0.00  0.00    +0.000 OA
ATOM     30  C   UNL     1      49.999   8.692  13.005  0.00  0.00    +0.000 A 
ATOM     31  H   UNL     1      48.667  10.303  10.463  0.00  0.00    +0.000 HD
ENDBRANCH  18  21
ENDBRANCH   2  17
TORSDOF 6
ENDMDL
MODEL 5
REMARK VINA RESULT:    -7.205      3.274      8.139
REMARK INTER + INTRA:         -10.820
REMARK INTER:                  -9.463
REMARK INTRA:                  -1.356
REMARK UNBOUND:                -1.088
REMARK  Name = 
REMARK  7 active torsions:
REMARK  status: ('A' for Active; 'I' for Inactive)
REMARK    1  A    between atoms: C_1  and  C_2
REMARK    2  A    between atoms: C_2  and  N_3
REMARK    3  A    between atoms: C_2  and  C_16
REMARK    4  A    between atoms: C_4  and  C_6
REMARK    5  A    between atoms: C_19  and  O_20
REMARK    6  A    between atoms: O_20  and  C_21
REMARK    7  A    between atoms: C_21  and  C_22
REMARK                            x       y       z     vdW  Elec       q    Type
REMARK                         _______ _______ _______ _____ _____    ______ ____
ROOT
ATOM      1  C   UNL     1      48.791   8.072  11.388  0.00  0.00    +0.000 C 
ATOM      2  C   UNL     1      47.657   7.943  12.414  0.00  0.00    +0.000 C 
ENDROOT
BRANCH   2   3
ATOM      3  C   UNL     1      48.247   7.921  13.817  0.00  0.00    +0.000 A 
ATOM      4  C   UNL     1      47.784   8.779  14.823  0.00  0.00    +0.000 A 
ATOM      5  C   UNL     1      48.295   8.680  16.124  0.00  0.00    +0.000 A 
ATOM      6  C   UNL     1      49.260   7.720  16.432  0.00  0.00    +0.000 A 
ATOM      7  C   UNL     1      49.773   6.912  15.418  0.00  0.00    +0.000 A 
ATOM      8  C   UNL     1      49.258   6.999  14.131  0.00  0.00    +0.000 A 
BRANCH   6   9
ATOM      9  O   UNL     1      49.625   7.625  17.751  0.00  0.00    +0.000 OA
BRANCH   9  10
ATOM     10  C   UNL     1      48.661   6.964  18.576  0.00  0.00    +0.000 C 
BRANCH  10  11
ATOM     11  C   UNL     1      48.549   5.509  18.204  0.00  0.00    +0.000 A 
ATOM     12  C   UNL     1      47.327   4.993  17.750  0.00  0.00    +0.000 A 
ATOM     13  C   UNL     1      47.240   3.672  17.311  0.00  0.00    +0.000 A 
ATOM     14  C   UNL     1      48.370   2.859  17.320  0.00  0.00    +0.000 A 
ATOM     15  C   UNL     1      49.590   3.362  17.774  0.00  0.00    +0.000 A 
ATOM     16  C   UNL     1      49.681   4.683  18.212  0.00  0.00    +0.000 A 
ENDBRANCH  10  11
ENDBRANCH   9  10
ENDBRANCH   6   9
ENDBRANCH   2   3
BRANCH   2  17
ATOM     17  N   UNL     1      46.862   6.734  12.234  0.00  0.00    +0.000 N 
ATOM     18  C   UNL     1      45.586   6.726  11.739  0.00  0.00    +0.000 C 
ATOM     19  O   UNL     1      45.012   7.745  11.364  0.00  0.00    +0.000 OA
ATOM     20  H   UNL     1      47.153   5.935  12.791  0.00  0.00    +0.000 HD
BRANCH  18  21
ATOM     21  C   UNL     1      44.950   5.410  11.605  0.00  0.00    +0.000 A 
ATOM     22  C   UNL     1      44.251   4.874  12.677  0.00  0.00    +0.000 A 
ATOM     23  S   UNL     1      43.561   3.349  12.353  0.00  0.00    +0.000 S 
ATOM     24  C   UNL     1      44.210   3.330  10.780  0.00  0.00    +0.000 A 
ATOM     25  N   UNL     1      44.023   2.262   9.959  0.00  0.00    +0.000 NA
ATOM     26  C   UNL     1      44.597   2.368   8.806  0.00  0.00    +0.000 A 
ATOM     27  N   UNL     1      45.327   3.451   8.395  0.00  0.00    +0.000 N 
ATOM     28  C   UNL     1      45.507   4.571   9.175  0.00  0.00    +0.000 A 
ATOM     29  O   UNL     1      46.105   5.556   8.756  0.00  0.00    +0.000 OA
ATOM     30  C   UNL     1      44.914   4.488  10.494  0.00  0.00    +0.000 A 
ATOM     31  H   UNL     1      45.732   3.479   7.471  0.00  0.00    +0.000 HD
ENDBRANCH  18  21
ENDBRANCH   2  17
TORSDOF 6
ENDMDL
MODEL 6
REMARK VINA RESULT:    -6.792      3.606      9.425
REMARK INTER + INTRA:         -10.262
REMARK INTER:                  -8.942
REMARK INTRA:                  -1.320
REMARK UNBOUND:                -1.088
REMARK  Name = 
REMARK  7 active torsions:
REMARK  status: ('A' for Active; 'I' for Inactive)
REMARK    1  A    between atoms: C_1  and  C_2
REMARK    2  A    between atoms: C_2  and  N_3
REMARK    3  A    between atoms: C_2  and  C_16
REMARK    4  A    between atoms: C_4  and  C_6
REMARK    5  A    between atoms: C_19  and  O_20
REMARK    6  A    between atoms: O_20  and  C_21
REMARK    7  A    between atoms: C_21  and  C_22
REMARK                            x       y       z     vdW  Elec       q    Type
REMARK                         _______ _______ _______ _____ _____    ______ ____
ROOT
ATOM      1  C   UNL     1      47.120   3.057  17.344  0.00  0.00    +0.000 C 
ATOM      2  C   UNL     1      48.011   3.927  16.448  0.00  0.00    +0.000 C 
ENDROOT
BRANCH   2   3
ATOM      3  C   UNL     1      48.865   4.837  17.319  0.00  0.00    +0.000 A 
ATOM      4  C   UNL     1      49.500   5.972  16.798  0.00  0.00    +0.000 A 
ATOM      5  C   UNL     1      50.216   6.831  17.643  0.00  0.00    +0.000 A 
ATOM      6  C   UNL     1      50.292   6.571  19.012  0.00  0.00    +0.000 A 
ATOM      7  C   UNL     1      49.722   5.406  19.523  0.00  0.00    +0.000 A 
ATOM      8  C   UNL     1      49.000   4.561  18.689  0.00  0.00    +0.000 A 
BRANCH   6   9
ATOM      9  O   UNL     1      50.923   7.519  19.777  0.00  0.00    +0.000 OA
BRANCH   9  10
ATOM     10  C   UNL     1      50.123   8.029  20.848  0.00  0.00    +0.000 C 
BRANCH  10  11
ATOM     11  C   UNL     1      49.121   9.031  20.334  0.00  0.00    +0.000 A 
ATOM     12  C   UNL     1      49.557  10.157  19.622  0.00  0.00    +0.000 A 
ATOM     13  C   UNL     1      48.633  11.036  19.059  0.00  0.00    +0.000 A 
ATOM     14  C   UNL     1      47.269  10.796  19.200  0.00  0.00    +0.000 A 
ATOM     15  C   UNL     1      46.824   9.680  19.910  0.00  0.00    +0.000 A 
ATOM     16  C   UNL     1      47.746   8.798  20.473  0.00  0.00    +0.000 A 
ENDBRANCH  10  11
ENDBRANCH   9  10
ENDBRANCH   6   9
ENDBRANCH   2   3
BRANCH   2  17
ATOM     17  N   UNL     1      47.251   4.761  15.526  0.00  0.00    +0.000 N 
ATOM     18  C   UNL     1      46.997   4.424  14.224  0.00  0.00    +0.000 C 
ATOM     19  O   UNL     1      47.360   3.361  13.729  0.00  0.00    +0.000 OA
ATOM     20  H   UNL     1      47.194   5.745  15.774  0.00  0.00    +0.000 HD
BRANCH  18  21
ATOM     21  C   UNL     1      46.191   5.378  13.451  0.00  0.00    +0.000 A 
ATOM     22  C   UNL     1      46.609   6.696  13.340  0.00  0.00    +0.000 A 
ATOM     23  S   UNL     1      45.570   7.667  12.399  0.00  0.00    +0.000 S 
ATOM     24  C   UNL     1      44.501   6.370  12.142  0.00  0.00    +0.000 A 
ATOM     25  N   UNL     1      43.354   6.539  11.431  0.00  0.00    +0.000 NA
ATOM     26  C   UNL     1      42.620   5.479  11.341  0.00  0.00    +0.000 A 
ATOM     27  N   UNL     1      42.937   4.263  11.885  0.00  0.00    +0.000 N 
ATOM     28  C   UNL     1      44.106   4.034  12.577  0.00  0.00    +0.000 A 
ATOM     29  O   UNL     1      44.398   2.918  12.991  0.00  0.00    +0.000 OA
ATOM     30  C   UNL     1      44.948   5.202  12.737  0.00  0.00    +0.000 A 
ATOM     31  H   UNL     1      42.328   3.468  11.759  0.00  0.00    +0.000 HD
ENDBRANCH  18  21
ENDBRANCH   2  17
TORSDOF 6
ENDMDL
MODEL 7
REMARK VINA RESULT:    -6.509      3.752      9.223
REMARK INTER + INTRA:          -9.880
REMARK INTER:                  -8.653
REMARK INTRA:                  -1.227
REMARK UNBOUND:                -1.088
REMARK  Name = 
REMARK  7 active torsions:
REMARK  status: ('A' for Active; 'I' for Inactive)
REMARK    1  A    between atoms: C_1  and  C_2
REMARK    2  A    between atoms: C_2  and  N_3
REMARK    3  A    between atoms: C_2  and  C_16
REMARK    4  A    between atoms: C_4  and  C_6
REMARK    5  A    between atoms: C_19  and  O_20
REMARK    6  A    between atoms: O_20  and  C_21
REMARK    7  A    between atoms: C_21  and  C_22
REMARK                            x       y       z     vdW  Elec       q    Type
REMARK                         _______ _______ _______ _____ _____    ______ ____
ROOT
ATOM      1  C   UNL     1      46.804   3.139  17.409  0.00  0.00    +0.000 C 
ATOM      2  C   UNL     1      47.795   3.862  16.487  0.00  0.00    +0.000 C 
ENDROOT
BRANCH   2   3
ATOM      3  C   UNL     1      48.744   4.704  17.328  0.00  0.00    +0.000 A 
ATOM      4  C   UNL     1      49.008   4.397  18.669  0.00  0.00    +0.000 A 
ATOM      5  C   UNL     1      49.946   5.146  19.393  0.00  0.00    +0.000 A 
ATOM      6  C   UNL     1      50.634   6.195  18.781  0.00  0.00    +0.000 A 
ATOM      7  C   UNL     1      50.323   6.548  17.469  0.00  0.00    +0.000 A 
ATOM      8  C   UNL     1      49.403   5.798  16.746  0.00  0.00    +0.000 A 
BRANCH   6   9
ATOM      9  O   UNL     1      51.607   6.804  19.532  0.00  0.00    +0.000 OA
BRANCH   9  10
ATOM     10  C   UNL     1      52.934   6.608  19.034  0.00  0.00    +0.000 C 
BRANCH  10  11
ATOM     11  C   UNL     1      53.325   5.156  19.117  0.00  0.00    +0.000 A 
ATOM     12  C   UNL     1      53.608   4.438  17.947  0.00  0.00    +0.000 A 
ATOM     13  C   UNL     1      54.065   3.123  18.020  0.00  0.00    +0.000 A 
ATOM     14  C   UNL     1      54.243   2.516  19.261  0.00  0.00    +0.000 A 
ATOM     15  C   UNL     1      53.960   3.220  20.431  0.00  0.00    +0.000 A 
ATOM     16  C   UNL     1      53.504   4.536  20.361  0.00  0.00    +0.000 A 
ENDBRANCH  10  11
ENDBRANCH   9  10
ENDBRANCH   6   9
ENDBRANCH   2   3
BRANCH   2  17
ATOM     17  N   UNL     1      47.140   4.739  15.524  0.00  0.00    +0.000 N 
ATOM     18  C   UNL     1      46.876   4.387  14.228  0.00  0.00    +0.000 C 
ATOM     19  O   UNL     1      47.136   3.276  13.774  0.00  0.00    +0.000 OA
ATOM     20  H   UNL     1      47.181   5.731  15.740  0.00  0.00    +0.000 HD
BRANCH  18  21
ATOM     21  C   UNL     1      46.185   5.392  13.410  0.00  0.00    +0.000 A 
ATOM     22  C   UNL     1      46.800   6.610  13.159  0.00  0.00    +0.000 A 
ATOM     23  S   UNL     1      45.873   7.657  12.183  0.00  0.00    +0.000 S 
ATOM     24  C   UNL     1      44.598   6.535  12.096  0.00  0.00    +0.000 A 
ATOM     25  N   UNL     1      43.451   6.829  11.426  0.00  0.00    +0.000 NA
ATOM     26  C   UNL     1      42.554   5.900  11.469  0.00  0.00    +0.000 A 
ATOM     27  N   UNL     1      42.707   4.698  12.107  0.00  0.00    +0.000 N 
ATOM     28  C   UNL     1      43.864   4.339  12.761  0.00  0.00    +0.000 A 
ATOM     29  O   UNL     1      44.000   3.229  13.262  0.00  0.00    +0.000 OA
ATOM     30  C   UNL     1      44.889   5.363  12.774  0.00  0.00    +0.000 A 
ATOM     31  H   UNL     1      41.973   4.005  12.083  0.00  0.00    +0.000 HD
ENDBRANCH  18  21
ENDBRANCH   2  17
TORSDOF 6
ENDMDL
MODEL 8
REMARK VINA RESULT:    -6.226      4.739      6.975
REMARK INTER + INTRA:          -9.498
REMARK INTER:                  -8.790
REMARK INTRA:                  -0.708
REMARK UNBOUND:                -1.088
REMARK  Name = 
REMARK  7 active torsions:
REMARK  status: ('A' for Active; 'I' for Inactive)
REMARK    1  A    between atoms: C_1  and  C_2
REMARK    2  A    between atoms: C_2  and  N_3
REMARK    3  A    between atoms: C_2  and  C_16
REMARK    4  A    between atoms: C_4  and  C_6
REMARK    5  A    between atoms: C_19  and  O_20
REMARK    6  A    between atoms: O_20  and  C_21
REMARK    7  A    between atoms: C_21  and  C_22
REMARK                            x       y       z     vdW  Elec       q    Type
REMARK                         _______ _______ _______ _____ _____    ______ ____
ROOT
ATOM      1  C   UNL     1      48.239   9.041  15.606  0.00  0.00    +0.000 C 
ATOM      2  C   UNL     1      48.519   7.971  14.542  0.00  0.00    +0.000 C 
ENDROOT
BRANCH   2   3
ATOM      3  C   UNL     1      49.511   8.517  13.526  0.00  0.00    +0.000 A 
ATOM      4  C   UNL     1      50.886   8.276  13.636  0.00  0.00    +0.000 A 
ATOM      5  C   UNL     1      51.764   8.728  12.642  0.00  0.00    +0.000 A 
ATOM      6  C   UNL     1      51.275   9.411  11.527  0.00  0.00    +0.000 A 
ATOM      7  C   UNL     1      49.916   9.714  11.448  0.00  0.00    +0.000 A 
ATOM      8  C   UNL     1      49.043   9.255  12.427  0.00  0.00    +0.000 A 
BRANCH   6   9
ATOM      9  O   UNL     1      52.190   9.724  10.555  0.00  0.00    +0.000 OA
BRANCH   9  10
ATOM     10  C   UNL     1      53.329   8.856  10.526  0.00  0.00    +0.000 C 
BRANCH  10  11
ATOM     11  C   UNL     1      53.207   7.854   9.408  0.00  0.00    +0.000 A 
ATOM     12  C   UNL     1      52.897   8.285   8.110  0.00  0.00    +0.000 A 
ATOM     13  C   UNL     1      52.880   7.378   7.052  0.00  0.00    +0.000 A 
ATOM     14  C   UNL     1      53.172   6.036   7.281  0.00  0.00    +0.000 A 
ATOM     15  C   UNL     1      53.477   5.596   8.569  0.00  0.00    +0.000 A 
ATOM     16  C   UNL     1      53.497   6.501   9.630  0.00  0.00    +0.000 A 
ENDBRANCH  10  11
ENDBRANCH   9  10
ENDBRANCH   6   9
ENDBRANCH   2   3
BRANCH   2  17
ATOM     17  N   UNL     1      47.319   7.550  13.829  0.00  0.00    +0.000 N 
ATOM     18  C   UNL     1      47.180   6.331  13.222  0.00  0.00    +0.000 C 
ATOM     19  O   UNL     1      48.050   5.466  13.261  0.00  0.00    +0.000 OA
ATOM     20  H   UNL     1      46.715   8.303  13.511  0.00  0.00    +0.000 HD
BRANCH  18  21
ATOM     21  C   UNL     1      45.889   6.074  12.572  0.00  0.00    +0.000 A 
ATOM     22  C   UNL     1      45.172   7.130  12.029  0.00  0.00    +0.000 A 
ATOM     23  S   UNL     1      43.704   6.659  11.300  0.00  0.00    +0.000 S 
ATOM     24  C   UNL     1      43.954   5.031  11.722  0.00  0.00    +0.000 A 
ATOM     25  N   UNL     1      43.029   4.081  11.421  0.00  0.00    +0.000 NA
ATOM     26  C   UNL     1      43.332   2.892  11.829  0.00  0.00    +0.000 A 
ATOM     27  N   UNL     1      44.483   2.566  12.495  0.00  0.00    +0.000 N 
ATOM     28  C   UNL     1      45.466   3.486  12.783  0.00  0.00    +0.000 A 
ATOM     29  O   UNL     1      46.519   3.154  13.317  0.00  0.00    +0.000 OA
ATOM     30  C   UNL     1      45.158   4.843  12.380  0.00  0.00    +0.000 A 
ATOM     31  H   UNL     1      44.669   1.612  12.767  0.00  0.00    +0.000 HD
ENDBRANCH  18  21
ENDBRANCH   2  17
TORSDOF 6
ENDMDL
MODEL 9
REMARK VINA RESULT:    -6.078      4.866      7.595
REMARK INTER + INTRA:          -9.298
REMARK INTER:                  -8.330
REMARK INTRA:                  -0.967
REMARK UNBOUND:                -1.088
REMARK  Name = 
REMARK  7 active torsions:
REMARK  status: ('A' for Active; 'I' for Inactive)
REMARK    1  A    between atoms: C_1  and  C_2
REMARK    2  A    between atoms: C_2  and  N_3
REMARK    3  A    between atoms: C_2  and  C_16
REMARK    4  A    between atoms: C_4  and  C_6
REMARK    5  A    between atoms: C_19  and  O_20
REMARK    6  A    between atoms: O_20  and  C_21
REMARK    7  A    between atoms: C_21  and  C_22
REMARK                            x       y       z     vdW  Elec       q    Type
REMARK                         _______ _______ _______ _____ _____    ______ ____
ROOT
ATOM      1  C   UNL     1      45.184   9.086  11.772  0.00  0.00    +0.000 C 
ATOM      2  C   UNL     1      45.995   7.964  12.435  0.00  0.00    +0.000 C 
ENDROOT
BRANCH   2   3
ATOM      3  C   UNL     1      47.478   8.202  12.190  0.00  0.00    +0.000 A 
ATOM      4  C   UNL     1      48.386   7.140  12.084  0.00  0.00    +0.000 A 
ATOM      5  C   UNL     1      49.731   7.391  11.782  0.00  0.00    +0.000 A 
ATOM      6  C   UNL     1      50.176   8.696  11.572  0.00  0.00    +0.000 A 
ATOM      7  C   UNL     1      49.292   9.760  11.746  0.00  0.00    +0.000 A 
ATOM      8  C   UNL     1      47.954   9.513  12.032  0.00  0.00    +0.000 A 
BRANCH   6   9
ATOM      9  O   UNL     1      51.482   8.839  11.178  0.00  0.00    +0.000 OA
BRANCH   9  10
ATOM     10  C   UNL     1      52.073   7.636  10.675  0.00  0.00    +0.000 C 
BRANCH  10  11
ATOM     11  C   UNL     1      52.431   7.788   9.219  0.00  0.00    +0.000 A 
ATOM     12  C   UNL     1      52.834   9.035   8.722  0.00  0.00    +0.000 A 
ATOM     13  C   UNL     1      53.260   9.162   7.400  0.00  0.00    +0.000 A 
ATOM     14  C   UNL     1      53.289   8.046   6.568  0.00  0.00    +0.000 A 
ATOM     15  C   UNL     1      52.885   6.802   7.052  0.00  0.00    +0.000 A 
ATOM     16  C   UNL     1      52.460   6.671   8.374  0.00  0.00    +0.000 A 
ENDBRANCH  10  11
ENDBRANCH   9  10
ENDBRANCH   6   9
ENDBRANCH   2   3
BRANCH   2  17
ATOM     17  N   UNL     1      45.655   6.640  11.928  0.00  0.00    +0.000 N 
ATOM     18  C   UNL     1      44.599   5.897  12.382  0.00  0.00    +0.000 C 
ATOM     19  O   UNL     1      43.817   6.305  13.236  0.00  0.00    +0.000 OA
ATOM     20  H   UNL     1      46.412   6.144  11.465  0.00  0.00    +0.000 HD
BRANCH  18  21
ATOM     21  C   UNL     1      44.396   4.595  11.734  0.00  0.00    +0.000 A 
ATOM     22  C   UNL     1      43.735   3.585  12.419  0.00  0.00    +0.000 A 
ATOM     23  S   UNL     1      43.569   2.144  11.522  0.00  0.00    +0.000 S 
ATOM     24  C   UNL     1      44.414   2.805  10.201  0.00  0.00    +0.000 A 
ATOM     25  N   UNL     1      44.663   2.063   9.089  0.00  0.00    +0.000 NA
ATOM     26  C   UNL     1      45.342   2.680   8.177  0.00  0.00    +0.000 A 
ATOM     27  N   UNL     1      45.779   3.974   8.272  0.00  0.00    +0.000 N 
ATOM     28  C   UNL     1      45.514   4.775   9.360  0.00  0.00    +0.000 A 
ATOM     29  O   UNL     1      45.856   5.952   9.388  0.00  0.00    +0.000 OA
ATOM     30  C   UNL     1      44.787   4.119  10.428  0.00  0.00    +0.000 A 
ATOM     31  H   UNL     1      46.286   4.403   7.513  0.00  0.00    +0.000 HD
ENDBRANCH  18  21
ENDBRANCH   2  17
TORSDOF 6
ENDMDL
