MODEL 1
REMARK VINA RESULT:    -7.578      0.000      0.000
REMARK INTER + INTRA:          -9.984
REMARK INTER:                  -9.792
REMARK INTRA:                  -0.192
REMARK UNBOUND:                -0.192
REMARK  Name = 
REMARK  7 active torsions:
REMARK  status: ('A' for Active; 'I' for Inactive)
REMARK    1  A    between atoms: C_1  and  O_2
REMARK    2  A    between atoms: O_2  and  C_3
REMARK    3  A    between atoms: C_3  and  C_5
REMARK    4  A    between atoms: N_9  and  C_10
REMARK    5  A    between atoms: C_10  and  C_11
REMARK    6  A    between atoms: C_16  and  O_17
REMARK    7  A    between atoms: O_17  and  C_18
REMARK                            x       y       z     vdW  Elec       q    Type
REMARK                         _______ _______ _______ _____ _____    ______ ____
ROOT
ATOM      1  C   UNL     1      46.393   2.158   7.765  0.00  0.00    +0.000 A 
ATOM      2  C   UNL     1      46.328   3.483   7.359  0.00  0.00    +0.000 A 
ATOM      3  C   UNL     1      45.495   4.364   8.047  0.00  0.00    +0.000 A 
ATOM      4  C   UNL     1      44.749   3.905   9.144  0.00  0.00    +0.000 A 
ATOM      5  N   UNL     1      43.958   4.781   9.838  0.00  0.00    +0.000 N 
ATOM      6  N   UNL     1      44.845   2.632   9.566  0.00  0.00    +0.000 NA
ATOM      7  C   UNL     1      45.641   1.786   8.869  0.00  0.00    +0.000 A 
ATOM      8  H   UNL     1      43.459   5.512   9.339  0.00  0.00    +0.000 HD
ENDROOT
BRANCH   1   9
ATOM      9  C   UNL     1      47.199   1.133   7.066  0.00  0.00    +0.000 C 
ATOM     10  O   UNL     1      46.920  -0.043   7.062  0.00  0.00    +0.000 OA
BRANCH   9  12
ATOM     11  C   UNL     1      47.939   2.227   5.141  0.00  0.00    +0.000 C 
ATOM     12  O   UNL     1      48.254   1.713   6.435  0.00  0.00    +0.000 OA
ENDBRANCH   9  12
ENDBRANCH   1   9
BRANCH   5  13
ATOM     13  C   UNL     1      43.635   4.578  11.249  0.00  0.00    +0.000 C 
BRANCH  13  14
ATOM     14  C   UNL     1      44.822   4.867  12.158  0.00  0.00    +0.000 A 
ATOM     15  N   UNL     1      45.302   3.833  12.915  0.00  0.00    +0.000 NA
ATOM     16  C   UNL     1      46.349   4.086  13.722  0.00  0.00    +0.000 A 
ATOM     17  C   UNL     1      46.967   5.320  13.816  0.00  0.00    +0.000 A 
ATOM     18  C   UNL     1      46.476   6.371  13.045  0.00  0.00    +0.000 A 
ATOM     19  C   UNL     1      45.382   6.161  12.203  0.00  0.00    +0.000 A 
BRANCH  19  20
ATOM     20  O   UNL     1      44.795   7.121  11.423  0.00  0.00    +0.000 OA
ATOM     21  C   UNL     1      45.036   8.481  11.768  0.00  0.00    +0.000 C 
ENDBRANCH  19  20
ENDBRANCH  13  14
ENDBRANCH   5  13
TORSDOF 5
ENDMDL
MODEL 2
REMARK VINA RESULT:    -7.049      1.208      2.086
REMARK INTER + INTRA:          -9.301
REMARK INTER:                  -9.490
REMARK INTRA:                   0.189
REMARK UNBOUND:                -0.192
REMARK  Name = 
REMARK  7 active torsions:
REMARK  status: ('A' for Active; 'I' for Inactive)
REMARK    1  A    between atoms: C_1  and  O_2
REMARK    2  A    between atoms: O_2  and  C_3
REMARK    3  A    between atoms: C_3  and  C_5
REMARK    4  A    between atoms: N_9  and  C_10
REMARK    5  A    between atoms: C_10  and  C_11
REMARK    6  A    between atoms: C_16  and  O_17
REMARK    7  A    between atoms: O_17  and  C_18
REMARK                            x       y       z     vdW  Elec       q    Type
REMARK                         _______ _______ _______ _____ _____    ______ ____
ROOT
ATOM      1  C   UNL     1      46.243   2.043   7.881  0.00  0.00    +0.000 A 
ATOM      2  C   UNL     1      46.004   3.248   7.237  0.00  0.00    +0.000 A 
ATOM      3  C   UNL     1      45.151   4.177   7.830  0.00  0.00    +0.000 A 
ATOM      4  C   UNL     1      44.560   3.889   9.071  0.00  0.00    +0.000 A 
ATOM      5  N   UNL     1      43.750   4.818   9.666  0.00  0.00    +0.000 N 
ATOM      6  N   UNL     1      44.827   2.741   9.717  0.00  0.00    +0.000 NA
ATOM      7  C   UNL     1      45.639   1.840   9.113  0.00  0.00    +0.000 A 
ATOM      8  H   UNL     1      43.134   5.388   9.094  0.00  0.00    +0.000 HD
ENDROOT
BRANCH   1   9
ATOM      9  C   UNL     1      47.083   0.968   7.308  0.00  0.00    +0.000 C 
ATOM     10  O   UNL     1      46.781  -0.201   7.341  0.00  0.00    +0.000 OA
BRANCH   9  12
ATOM     11  C   UNL     1      47.958   2.151   5.495  0.00  0.00    +0.000 C 
ATOM     12  O   UNL     1      48.200   1.495   6.740  0.00  0.00    +0.000 OA
ENDBRANCH   9  12
ENDBRANCH   1   9
BRANCH   5  13
ATOM     13  C   UNL     1      43.581   4.879  11.117  0.00  0.00    +0.000 C 
BRANCH  13  14
ATOM     14  C   UNL     1      44.529   5.879  11.764  0.00  0.00    +0.000 A 
ATOM     15  N   UNL     1      44.338   7.204  11.479  0.00  0.00    +0.000 NA
ATOM     16  C   UNL     1      45.178   8.090  12.047  0.00  0.00    +0.000 A 
ATOM     17  C   UNL     1      46.205   7.737  12.903  0.00  0.00    +0.000 A 
ATOM     18  C   UNL     1      46.398   6.388  13.190  0.00  0.00    +0.000 A 
ATOM     19  C   UNL     1      45.561   5.429  12.615  0.00  0.00    +0.000 A 
BRANCH  19  20
ATOM     20  O   UNL     1      45.672   4.078  12.798  0.00  0.00    +0.000 OA
ATOM     21  C   UNL     1      46.758   3.612  13.592  0.00  0.00    +0.000 C 
ENDBRANCH  19  20
ENDBRANCH  13  14
ENDBRANCH   5  13
TORSDOF 5
ENDMDL
MODEL 3
REMARK VINA RESULT:    -6.887      3.018      6.785
REMARK INTER + INTRA:          -9.092
REMARK INTER:                  -8.584
REMARK INTRA:                  -0.508
REMARK UNBOUND:                -0.192
REMARK  Name = 
REMARK  7 active torsions:
REMARK  status: ('A' for Active; 'I' for Inactive)
REMARK    1  A    between atoms: C_1  and  O_2
REMARK    2  A    between atoms: O_2  and  C_3
REMARK    3  A    between atoms: C_3  and  C_5
REMARK    4  A    between atoms: N_9  and  C_10
REMARK    5  A    between atoms: C_10  and  C_11
REMARK    6  A    between atoms: C_16  and  O_17
REMARK    7  A    between atoms: O_17  and  C_18
REMARK                            x       y       z     vdW  Elec       q    Type
REMARK                         _______ _______ _______ _____ _____    ______ ____
ROOT
ATOM      1  C   UNL     1      47.307   4.735  15.108  0.00  0.00    +0.000 A 
ATOM      2  C   UNL     1      47.965   5.898  14.734  0.00  0.00    +0.000 A 
ATOM      3  C   UNL     1      47.714   6.448  13.479  0.00  0.00    +0.000 A 
ATOM      4  C   UNL     1      46.791   5.829  12.619  0.00  0.00    +0.000 A 
ATOM      5  N   UNL     1      46.521   6.391  11.400  0.00  0.00    +0.000 N 
ATOM      6  N   UNL     1      46.120   4.728  12.997  0.00  0.00    +0.000 NA
ATOM      7  C   UNL     1      46.397   4.194  14.211  0.00  0.00    +0.000 A 
ATOM      8  H   UNL     1      47.270   6.834  10.874  0.00  0.00    +0.000 HD
ENDROOT
BRANCH   1   9
ATOM      9  C   UNL     1      47.548   4.040  16.392  0.00  0.00    +0.000 C 
ATOM     10  O   UNL     1      46.672   3.523  17.042  0.00  0.00    +0.000 OA
BRANCH   9  12
ATOM     11  C   UNL     1      49.329   2.884  17.364  0.00  0.00    +0.000 C 
ATOM     12  O   UNL     1      48.873   4.061  16.697  0.00  0.00    +0.000 OA
ENDBRANCH   9  12
ENDBRANCH   1   9
BRANCH   5  13
ATOM     13  C   UNL     1      45.239   6.195  10.726  0.00  0.00    +0.000 C 
BRANCH  13  14
ATOM     14  C   UNL     1      45.289   5.060   9.713  0.00  0.00    +0.000 A 
ATOM     15  N   UNL     1      46.171   5.182   8.673  0.00  0.00    +0.000 NA
ATOM     16  C   UNL     1      46.214   4.181   7.774  0.00  0.00    +0.000 A 
ATOM     17  C   UNL     1      45.432   3.043   7.850  0.00  0.00    +0.000 A 
ATOM     18  C   UNL     1      44.535   2.923   8.909  0.00  0.00    +0.000 A 
ATOM     19  C   UNL     1      44.443   3.941   9.860  0.00  0.00    +0.000 A 
BRANCH  19  20
ATOM     20  O   UNL     1      43.581   3.947  10.923  0.00  0.00    +0.000 OA
ATOM     21  C   UNL     1      43.419   2.729  11.641  0.00  0.00    +0.000 C 
ENDBRANCH  19  20
ENDBRANCH  13  14
ENDBRANCH   5  13
TORSDOF 5
ENDMDL
MODEL 4
REMARK VINA RESULT:    -6.460      3.744      5.846
REMARK INTER + INTRA:          -8.540
REMARK INTER:                  -7.943
REMARK INTRA:                  -0.597
REMARK UNBOUND:                -0.192
REMARK  Name = 
REMARK  7 active torsions:
REMARK  status: ('A' for Active; 'I' for Inactive)
REMARK    1  A    between atoms: C_1  and  O_2
REMARK    2  A    between atoms: O_2  and  C_3
REMARK    3  A    between atoms: C_3  and  C_5
REMARK    4  A    between atoms: N_9  and  C_10
REMARK    5  A    between atoms: C_10  and  C_11
REMARK    6  A    between atoms: C_16  and  O_17
REMARK    7  A    between atoms: O_17  and  C_18
REMARK                            x       y       z     vdW  Elec       q    Type
REMARK                         _______ _______ _______ _____ _____    ______ ____
ROOT
ATOM      1  C   UNL     1      45.338   4.992  11.540  0.00  0.00    +0.000 A 
ATOM      2  C   UNL     1      46.367   5.892  11.782  0.00  0.00    +0.000 A 
ATOM      3  C   UNL     1      46.953   5.930  13.046  0.00  0.00    +0.000 A 
ATOM      4  C   UNL     1      46.508   5.052  14.047  0.00  0.00    +0.000 A 
ATOM      5  N   UNL     1      47.109   5.069  15.277  0.00  0.00    +0.000 N 
ATOM      6  N   UNL     1      45.543   4.149  13.801  0.00  0.00    +0.000 NA
ATOM      7  C   UNL     1      44.969   4.145  12.574  0.00  0.00    +0.000 A 
ATOM      8  H   UNL     1      47.413   5.953  15.676  0.00  0.00    +0.000 HD
ENDROOT
BRANCH   1   9
ATOM      9  C   UNL     1      44.612   4.915  10.254  0.00  0.00    +0.000 C 
ATOM     10  O   UNL     1      43.408   4.857  10.173  0.00  0.00    +0.000 OA
BRANCH   9  12
ATOM     11  C   UNL     1      45.375   3.820   8.338  0.00  0.00    +0.000 C 
ATOM     12  O   UNL     1      45.489   4.940   9.215  0.00  0.00    +0.000 OA
ENDBRANCH   9  12
ENDBRANCH   1   9
BRANCH   5  13
ATOM     13  C   UNL     1      47.145   3.886  16.136  0.00  0.00    +0.000 C 
BRANCH  13  14
ATOM     14  C   UNL     1      48.542   3.608  16.673  0.00  0.00    +0.000 A 
ATOM     15  N   UNL     1      49.057   2.356  16.474  0.00  0.00    +0.000 NA
ATOM     16  C   UNL     1      50.290   2.107  16.952  0.00  0.00    +0.000 A 
ATOM     17  C   UNL     1      51.062   3.043  17.616  0.00  0.00    +0.000 A 
ATOM     18  C   UNL     1      50.535   4.317  17.818  0.00  0.00    +0.000 A 
ATOM     19  C   UNL     1      49.254   4.619  17.353  0.00  0.00    +0.000 A 
BRANCH  19  20
ATOM     20  O   UNL     1      48.622   5.822  17.519  0.00  0.00    +0.000 OA
ATOM     21  C   UNL     1      48.253   6.191  18.844  0.00  0.00    +0.000 C 
ENDBRANCH  19  20
ENDBRANCH  13  14
ENDBRANCH   5  13
TORSDOF 5
ENDMDL
MODEL 5
REMARK VINA RESULT:    -6.284      3.535      5.094
REMARK INTER + INTRA:          -8.313
REMARK INTER:                  -7.700
REMARK INTRA:                  -0.613
REMARK UNBOUND:                -0.192
REMARK  Name = 
REMARK  7 active torsions:
REMARK  status: ('A' for Active; 'I' for Inactive)
REMARK    1  A    between atoms: C_1  and  O_2
REMARK    2  A    between atoms: O_2  and  C_3
REMARK    3  A    between atoms: C_3  and  C_5
REMARK    4  A    between atoms: N_9  and  C_10
REMARK    5  A    between atoms: C_10  and  C_11
REMARK    6  A    between atoms: C_16  and  O_17
REMARK    7  A    between atoms: O_17  and  C_18
REMARK                            x       y       z     vdW  Elec       q    Type
REMARK                         _______ _______ _______ _____ _____    ______ ____
ROOT
ATOM      1  C   UNL     1      45.155   4.118  11.013  0.00  0.00    +0.000 A 
ATOM      2  C   UNL     1      45.607   5.419  11.180  0.00  0.00    +0.000 A 
ATOM      3  C   UNL     1      46.102   5.813  12.422  0.00  0.00    +0.000 A 
ATOM      4  C   UNL     1      46.150   4.888  13.478  0.00  0.00    +0.000 A 
ATOM      5  N   UNL     1      46.668   5.268  14.687  0.00  0.00    +0.000 N 
ATOM      6  N   UNL     1      45.754   3.615  13.305  0.00  0.00    +0.000 NA
ATOM      7  C   UNL     1      45.253   3.259  12.097  0.00  0.00    +0.000 A 
ATOM      8  H   UNL     1      46.497   6.208  15.032  0.00  0.00    +0.000 HD
ENDROOT
BRANCH   1   9
ATOM      9  C   UNL     1      44.558   3.620   9.754  0.00  0.00    +0.000 C 
ATOM     10  O   UNL     1      43.826   2.660   9.700  0.00  0.00    +0.000 OA
BRANCH   9  12
ATOM     11  C   UNL     1      45.845   3.767   7.811  0.00  0.00    +0.000 C 
ATOM     12  O   UNL     1      44.937   4.404   8.710  0.00  0.00    +0.000 OA
ENDBRANCH   9  12
ENDBRANCH   1   9
BRANCH   5  13
ATOM     13  C   UNL     1      47.283   4.307  15.600  0.00  0.00    +0.000 C 
BRANCH  13  14
ATOM     14  C   UNL     1      47.932   4.988  16.797  0.00  0.00    +0.000 A 
ATOM     15  N   UNL     1      47.458   4.665  18.040  0.00  0.00    +0.000 NA
ATOM     16  C   UNL     1      48.027   5.269  19.100  0.00  0.00    +0.000 A 
ATOM     17  C   UNL     1      49.064   6.179  19.002  0.00  0.00    +0.000 A 
ATOM     18  C   UNL     1      49.545   6.505  17.736  0.00  0.00    +0.000 A 
ATOM     19  C   UNL     1      48.977   5.917  16.604  0.00  0.00    +0.000 A 
BRANCH  19  20
ATOM     20  O   UNL     1      49.344   6.181  15.313  0.00  0.00    +0.000 OA
ATOM     21  C   UNL     1      50.187   7.306  15.089  0.00  0.00    +0.000 C 
ENDBRANCH  19  20
ENDBRANCH  13  14
ENDBRANCH   5  13
TORSDOF 5
ENDMDL
MODEL 6
REMARK VINA RESULT:    -6.278      4.010      6.042
REMARK INTER + INTRA:          -8.305
REMARK INTER:                  -7.975
REMARK INTRA:                  -0.330
REMARK UNBOUND:                -0.192
REMARK  Name = 
REMARK  7 active torsions:
REMARK  status: ('A' for Active; 'I' for Inactive)
REMARK    1  A    between atoms: C_1  and  O_2
REMARK    2  A    between atoms: O_2  and  C_3
REMARK    3  A    between atoms: C_3  and  C_5
REMARK    4  A    between atoms: N_9  and  C_10
REMARK    5  A    between atoms: C_10  and  C_11
REMARK    6  A    between atoms: C_16  and  O_17
REMARK    7  A    between atoms: O_17  and  C_18
REMARK                            x       y       z     vdW  Elec       q    Type
REMARK                         _______ _______ _______ _____ _____    ______ ____
ROOT
ATOM      1  C   UNL     1      45.237   4.643  11.315  0.00  0.00    +0.000 A 
ATOM      2  C   UNL     1      45.927   5.821  11.564  0.00  0.00    +0.000 A 
ATOM      3  C   UNL     1      46.513   6.015  12.813  0.00  0.00    +0.000 A 
ATOM      4  C   UNL     1      46.412   5.014  13.793  0.00  0.00    +0.000 A 
ATOM      5  N   UNL     1      47.018   5.193  15.007  0.00  0.00    +0.000 N 
ATOM      6  N   UNL     1      45.783   3.853  13.539  0.00  0.00    +0.000 NA
ATOM      7  C   UNL     1      45.197   3.695  12.327  0.00  0.00    +0.000 A 
ATOM      8  H   UNL     1      47.034   6.117  15.430  0.00  0.00    +0.000 HD
ENDROOT
BRANCH   1   9
ATOM      9  C   UNL     1      44.529   4.367  10.045  0.00  0.00    +0.000 C 
ATOM     10  O   UNL     1      43.398   4.728   9.823  0.00  0.00    +0.000 OA
BRANCH   9  12
ATOM     11  C   UNL     1      44.954   2.325   8.997  0.00  0.00    +0.000 C 
ATOM     12  O   UNL     1      45.340   3.685   9.193  0.00  0.00    +0.000 OA
ENDBRANCH   9  12
ENDBRANCH   1   9
BRANCH   5  13
ATOM     13  C   UNL     1      47.464   4.064  15.822  0.00  0.00    +0.000 C 
BRANCH  13  14
ATOM     14  C   UNL     1      48.298   4.511  17.015  0.00  0.00    +0.000 A 
ATOM     15  N   UNL     1      47.942   5.680  17.631  0.00  0.00    +0.000 NA
ATOM     16  C   UNL     1      48.680   6.079  18.683  0.00  0.00    +0.000 A 
ATOM     17  C   UNL     1      49.761   5.372  19.178  0.00  0.00    +0.000 A 
ATOM     18  C   UNL     1      50.122   4.182  18.548  0.00  0.00    +0.000 A 
ATOM     19  C   UNL     1      49.395   3.734  17.444  0.00  0.00    +0.000 A 
BRANCH  19  20
ATOM     20  O   UNL     1      49.673   2.600  16.728  0.00  0.00    +0.000 OA
ATOM     21  C   UNL     1      50.790   1.821  17.144  0.00  0.00    +0.000 C 
ENDBRANCH  19  20
ENDBRANCH  13  14
ENDBRANCH   5  13
TORSDOF 5
ENDMDL
MODEL 7
REMARK VINA RESULT:    -5.976      2.917      6.918
REMARK INTER + INTRA:          -7.915
REMARK INTER:                  -7.513
REMARK INTRA:                  -0.402
REMARK UNBOUND:                -0.192
REMARK  Name = 
REMARK  7 active torsions:
REMARK  status: ('A' for Active; 'I' for Inactive)
REMARK    1  A    between atoms: C_1  and  O_2
REMARK    2  A    between atoms: O_2  and  C_3
REMARK    3  A    between atoms: C_3  and  C_5
REMARK    4  A    between atoms: N_9  and  C_10
REMARK    5  A    between atoms: C_10  and  C_11
REMARK    6  A    between atoms: C_16  and  O_17
REMARK    7  A    between atoms: O_17  and  C_18
REMARK                            x       y       z     vdW  Elec       q    Type
REMARK                         _______ _______ _______ _____ _____    ______ ____
ROOT
ATOM      1  C   UNL     1      48.198   7.013  13.980  0.00  0.00    +0.000 A 
ATOM      2  C   UNL     1      47.892   8.158  13.258  0.00  0.00    +0.000 A 
ATOM      3  C   UNL     1      46.992   8.072  12.198  0.00  0.00    +0.000 A 
ATOM      4  C   UNL     1      46.398   6.839  11.885  0.00  0.00    +0.000 A 
ATOM      5  N   UNL     1      45.488   6.765  10.865  0.00  0.00    +0.000 N 
ATOM      6  N   UNL     1      46.658   5.738  12.612  0.00  0.00    +0.000 NA
ATOM      7  C   UNL     1      47.555   5.837  13.623  0.00  0.00    +0.000 A 
ATOM      8  H   UNL     1      45.625   7.326  10.029  0.00  0.00    +0.000 HD
ENDROOT
BRANCH   1   9
ATOM      9  C   UNL     1      49.184   6.986  15.083  0.00  0.00    +0.000 C 
ATOM     10  O   UNL     1      50.306   7.421  14.981  0.00  0.00    +0.000 OA
BRANCH   9  12
ATOM     11  C   UNL     1      49.542   5.635  16.953  0.00  0.00    +0.000 C 
ATOM     12  O   UNL     1      48.632   6.432  16.195  0.00  0.00    +0.000 OA
ENDBRANCH   9  12
ENDBRANCH   1   9
BRANCH   5  13
ATOM     13  C   UNL     1      44.434   5.753  10.841  0.00  0.00    +0.000 C 
BRANCH  13  14
ATOM     14  C   UNL     1      44.753   4.613   9.883  0.00  0.00    +0.000 A 
ATOM     15  N   UNL     1      45.657   4.863   8.886  0.00  0.00    +0.000 NA
ATOM     16  C   UNL     1      45.937   3.858   8.035  0.00  0.00    +0.000 A 
ATOM     17  C   UNL     1      45.377   2.597   8.121  0.00  0.00    +0.000 A 
ATOM     18  C   UNL     1      44.456   2.346   9.137  0.00  0.00    +0.000 A 
ATOM     19  C   UNL     1      44.122   3.361  10.036  0.00  0.00    +0.000 A 
BRANCH  19  20
ATOM     20  O   UNL     1      43.212   3.242  11.052  0.00  0.00    +0.000 OA
ATOM     21  C   UNL     1      43.629   2.554  12.226  0.00  0.00    +0.000 C 
ENDBRANCH  19  20
ENDBRANCH  13  14
ENDBRANCH   5  13
TORSDOF 5
ENDMDL
MODEL 8
REMARK VINA RESULT:    -5.944      4.692      8.279
REMARK INTER + INTRA:          -7.873
REMARK INTER:                  -7.470
REMARK INTRA:                  -0.402
REMARK UNBOUND:                -0.192
REMARK  Name = 
REMARK  7 active torsions:
REMARK  status: ('A' for Active; 'I' for Inactive)
REMARK    1  A    between atoms: C_1  and  O_2
REMARK    2  A    between atoms: O_2  and  C_3
REMARK    3  A    between atoms: C_3  and  C_5
REMARK    4  A    between atoms: N_9  and  C_10
REMARK    5  A    between atoms: C_10  and  C_11
REMARK    6  A    between atoms: C_16  and  O_17
REMARK    7  A    between atoms: O_17  and  C_18
REMARK                            x       y       z     vdW  Elec       q    Type
REMARK                         _______ _______ _______ _____ _____    ______ ____
ROOT
ATOM      1  C   UNL     1      49.598   4.454  17.998  0.00  0.00    +0.000 A 
ATOM      2  C   UNL     1      48.682   3.416  18.094  0.00  0.00    +0.000 A 
ATOM      3  C   UNL     1      47.624   3.358  17.189  0.00  0.00    +0.000 A 
ATOM      4  C   UNL     1      47.508   4.336  16.187  0.00  0.00    +0.000 A 
ATOM      5  N   UNL     1      46.487   4.256  15.279  0.00  0.00    +0.000 N 
ATOM      6  N   UNL     1      48.421   5.316  16.065  0.00  0.00    +0.000 NA
ATOM      7  C   UNL     1      49.427   5.369  16.970  0.00  0.00    +0.000 A 
ATOM      8  H   UNL     1      45.572   3.932  15.579  0.00  0.00    +0.000 HD
ENDROOT
BRANCH   1   9
ATOM      9  C   UNL     1      50.720   4.639  18.945  0.00  0.00    +0.000 C 
ATOM     10  O   UNL     1      50.566   4.830  20.127  0.00  0.00    +0.000 OA
BRANCH   9  12
ATOM     11  C   UNL     1      52.422   3.209  18.230  0.00  0.00    +0.000 C 
ATOM     12  O   UNL     1      51.909   4.540  18.292  0.00  0.00    +0.000 OA
ENDBRANCH   9  12
ENDBRANCH   1   9
BRANCH   5  13
ATOM     13  C   UNL     1      46.603   4.819  13.935  0.00  0.00    +0.000 C 
BRANCH  13  14
ATOM     14  C   UNL     1      45.337   4.614  13.115  0.00  0.00    +0.000 A 
ATOM     15  N   UNL     1      44.966   3.326  12.839  0.00  0.00    +0.000 NA
ATOM     16  C   UNL     1      43.849   3.142  12.110  0.00  0.00    +0.000 A 
ATOM     17  C   UNL     1      43.058   4.175  11.642  0.00  0.00    +0.000 A 
ATOM     18  C   UNL     1      43.438   5.486  11.924  0.00  0.00    +0.000 A 
ATOM     19  C   UNL     1      44.597   5.727  12.663  0.00  0.00    +0.000 A 
BRANCH  19  20
ATOM     20  O   UNL     1      45.085   6.968  12.975  0.00  0.00    +0.000 OA
ATOM     21  C   UNL     1      45.341   7.861  11.897  0.00  0.00    +0.000 C 
ENDBRANCH  19  20
ENDBRANCH  13  14
ENDBRANCH   5  13
TORSDOF 5
ENDMDL
MODEL 9
REMARK VINA RESULT:    -5.662      3.264      5.081
REMARK INTER + INTRA:          -7.509
REMARK INTER:                  -7.054
REMARK INTRA:                  -0.455
REMARK UNBOUND:                -0.192
REMARK  Name = 
REMARK  7 active torsions:
REMARK  status: ('A' for Active; 'I' for Inactive)
REMARK    1  A    between atoms: C_1  and  O_2
REMARK    2  A    between atoms: O_2  and  C_3
REMARK    3  A    between atoms: C_3  and  C_5
REMARK    4  A    between atoms: N_9  and  C_10
REMARK    5  A    between atoms: C_10  and  C_11
REMARK    6  A    between atoms: C_16  and  O_17
REMARK    7  A    between atoms: O_17  and  C_18
REMARK                            x       y       z     vdW  Elec       q    Type
REMARK                         _______ _______ _______ _____ _____    ______ ____
ROOT
ATOM      1  C   UNL     1      44.764   4.161  11.365  0.00  0.00    +0.000 A 
ATOM      2  C   UNL     1      45.288   3.924  12.628  0.00  0.00    +0.000 A 
ATOM      3  C   UNL     1      45.896   4.970  13.319  0.00  0.00    +0.000 A 
ATOM      4  C   UNL     1      45.955   6.248  12.738  0.00  0.00    +0.000 A 
ATOM      5  N   UNL     1      46.522   7.282  13.433  0.00  0.00    +0.000 N 
ATOM      6  N   UNL     1      45.407   6.490  11.534  0.00  0.00    +0.000 NA
ATOM      7  C   UNL     1      44.844   5.453  10.868  0.00  0.00    +0.000 A 
ATOM      8  H   UNL     1      47.336   7.108  14.016  0.00  0.00    +0.000 HD
ENDROOT
BRANCH   1   9
ATOM      9  C   UNL     1      44.154   3.105  10.527  0.00  0.00    +0.000 C 
ATOM     10  O   UNL     1      43.310   2.341  10.930  0.00  0.00    +0.000 OA
BRANCH   9  12
ATOM     11  C   UNL     1      45.367   1.967   8.889  0.00  0.00    +0.000 C 
ATOM     12  O   UNL     1      44.665   3.150   9.267  0.00  0.00    +0.000 OA
ENDBRANCH   9  12
ENDBRANCH   1   9
BRANCH   5  13
ATOM     13  C   UNL     1      46.129   8.672  13.209  0.00  0.00    +0.000 C 
BRANCH  13  14
ATOM     14  C   UNL     1      47.157   9.432  12.382  0.00  0.00    +0.000 A 
ATOM     15  N   UNL     1      48.424   8.917  12.322  0.00  0.00    +0.000 NA
ATOM     16  C   UNL     1      49.335   9.591  11.595  0.00  0.00    +0.000 A 
ATOM     17  C   UNL     1      49.060  10.756  10.903  0.00  0.00    +0.000 A 
ATOM     18  C   UNL     1      47.769  11.278  10.967  0.00  0.00    +0.000 A 
ATOM     19  C   UNL     1      46.793  10.624  11.720  0.00  0.00    +0.000 A 
BRANCH  19  20
ATOM     20  O   UNL     1      45.504  11.057  11.881  0.00  0.00    +0.000 OA
ATOM     21  C   UNL     1      44.817  11.512  10.720  0.00  0.00    +0.000 C 
ENDBRANCH  19  20
ENDBRANCH  13  14
ENDBRANCH   5  13
TORSDOF 5
ENDMDL
