MODEL 1
REMARK VINA RESULT:    -7.994      0.000      0.000
REMARK INTER + INTRA:         -11.351
REMARK INTER:                 -10.798
REMARK INTRA:                  -0.553
REMARK UNBOUND:                -0.553
REMARK  Name = 
REMARK  8 active torsions:
REMARK  status: ('A' for Active; 'I' for Inactive)
REMARK    1  A    between atoms: C_1  and  C_2
REMARK    2  A    between atoms: C_2  and  C_3
REMARK    3  A    between atoms: C_2  and  N_4
REMARK    4  A    between atoms: C_5  and  C_7
REMARK    5  A    between atoms: C_10  and  O_11
REMARK    6  A    between atoms: O_11  and  C_12
REMARK    7  A    between atoms: C_12  and  C_13
REMARK    8  A    between atoms: C_13  and  C_16
REMARK                            x       y       z     vdW  Elec       q    Type
REMARK                         _______ _______ _______ _____ _____    ______ ____
ROOT
ATOM      1  C   UNL     1      46.577   4.989  13.890  0.00  0.00    +0.000 A 
ATOM      2  N   UNL     1      46.150   6.122  13.284  0.00  0.00    +0.000 NA
ATOM      3  C   UNL     1      45.273   5.943  12.270  0.00  0.00    +0.000 A 
ATOM      4  C   UNL     1      44.810   4.711  11.844  0.00  0.00    +0.000 A 
ATOM      5  C   UNL     1      45.329   3.635  12.536  0.00  0.00    +0.000 A 
ATOM      6  N   UNL     1      46.207   3.736  13.557  0.00  0.00    +0.000 NA
ENDROOT
BRANCH   1   8
ATOM      7  N   UNL     1      47.113   4.513  16.237  0.00  0.00    +0.000 N 
ATOM      8  C   UNL     1      47.510   5.161  15.072  0.00  0.00    +0.000 C 
ATOM      9  O   UNL     1      48.548   5.813  14.996  0.00  0.00    +0.000 OA
ATOM     10  H   UNL     1      46.190   4.088  16.232  0.00  0.00    +0.000 HD
BRANCH   7  12
ATOM     11  C   UNL     1      47.174   5.416  18.523  0.00  0.00    +0.000 C 
ATOM     12  C   UNL     1      47.890   4.584  17.464  0.00  0.00    +0.000 C 
ATOM     13  C   UNL     1      48.191   3.185  17.994  0.00  0.00    +0.000 C 
ENDBRANCH   7  12
ENDBRANCH   1   8
BRANCH   4  14
ATOM     14  O   UNL     1      43.921   4.453  10.846  0.00  0.00    +0.000 OA
BRANCH  14  15
ATOM     15  C   UNL     1      44.261   3.392   9.937  0.00  0.00    +0.000 C 
BRANCH  15  16
ATOM     16  C   UNL     1      44.894   3.954   8.648  0.00  0.00    +0.000 C 
ATOM     17  F   UNL     1      43.890   4.320   7.798  0.00  0.00    +0.000 F 
ATOM     18  F   UNL     1      45.554   5.109   8.956  0.00  0.00    +0.000 F 
BRANCH  16  19
ATOM     19  C   UNL     1      45.815   2.936   8.023  0.00  0.00    +0.000 A 
ATOM     20  C   UNL     1      46.725   3.279   7.014  0.00  0.00    +0.000 A 
ATOM     21  C   UNL     1      47.571   2.306   6.487  0.00  0.00    +0.000 A 
ATOM     22  C   UNL     1      47.486   1.021   6.994  0.00  0.00    +0.000 A 
ATOM     23  N   UNL     1      46.627   0.656   7.967  0.00  0.00    +0.000 NA
ATOM     24  C   UNL     1      45.804   1.614   8.451  0.00  0.00    +0.000 A 
ENDBRANCH  16  19
ENDBRANCH  15  16
ENDBRANCH  14  15
ENDBRANCH   4  14
TORSDOF 6
ENDMDL
MODEL 2
REMARK VINA RESULT:    -7.526      1.291      1.993
REMARK INTER + INTRA:         -10.719
REMARK INTER:                 -10.103
REMARK INTRA:                  -0.616
REMARK UNBOUND:                -0.553
REMARK  Name = 
REMARK  8 active torsions:
REMARK  status: ('A' for Active; 'I' for Inactive)
REMARK    1  A    between atoms: C_1  and  C_2
REMARK    2  A    between atoms: C_2  and  C_3
REMARK    3  A    between atoms: C_2  and  N_4
REMARK    4  A    between atoms: C_5  and  C_7
REMARK    5  A    between atoms: C_10  and  O_11
REMARK    6  A    between atoms: O_11  and  C_12
REMARK    7  A    between atoms: C_12  and  C_13
REMARK    8  A    between atoms: C_13  and  C_16
REMARK                            x       y       z     vdW  Elec       q    Type
REMARK                         _______ _______ _______ _____ _____    ______ ____
ROOT
ATOM      1  C   UNL     1      46.739   4.466  14.296  0.00  0.00    +0.000 A 
ATOM      2  N   UNL     1      46.322   3.353  13.647  0.00  0.00    +0.000 NA
ATOM      3  C   UNL     1      45.646   3.571  12.496  0.00  0.00    +0.000 A 
ATOM      4  C   UNL     1      45.375   4.821  11.972  0.00  0.00    +0.000 A 
ATOM      5  C   UNL     1      45.843   5.874  12.733  0.00  0.00    +0.000 A 
ATOM      6  N   UNL     1      46.524   5.734  13.890  0.00  0.00    +0.000 NA
ENDROOT
BRANCH   1   8
ATOM      7  N   UNL     1      47.758   5.392  16.327  0.00  0.00    +0.000 N 
ATOM      8  C   UNL     1      47.555   4.254  15.554  0.00  0.00    +0.000 C 
ATOM      9  O   UNL     1      47.990   3.150  15.872  0.00  0.00    +0.000 OA
ATOM     10  H   UNL     1      47.450   6.275  15.929  0.00  0.00    +0.000 HD
BRANCH   7  12
ATOM     11  C   UNL     1      49.876   6.053  17.385  0.00  0.00    +0.000 C 
ATOM     12  C   UNL     1      48.527   5.364  17.560  0.00  0.00    +0.000 C 
ATOM     13  C   UNL     1      47.741   6.004  18.701  0.00  0.00    +0.000 C 
ENDBRANCH   7  12
ENDBRANCH   1   8
BRANCH   4  14
ATOM     14  O   UNL     1      44.717   5.119  10.818  0.00  0.00    +0.000 OA
BRANCH  14  15
ATOM     15  C   UNL     1      45.418   4.861   9.590  0.00  0.00    +0.000 C 
BRANCH  15  16
ATOM     16  C   UNL     1      44.732   3.735   8.790  0.00  0.00    +0.000 C 
ATOM     17  F   UNL     1      44.004   2.973   9.656  0.00  0.00    +0.000 F 
ATOM     18  F   UNL     1      43.822   4.298   7.941  0.00  0.00    +0.000 F 
BRANCH  16  19
ATOM     19  C   UNL     1      45.756   2.915   8.045  0.00  0.00    +0.000 A 
ATOM     20  C   UNL     1      45.999   1.571   8.354  0.00  0.00    +0.000 A 
ATOM     21  C   UNL     1      46.937   0.852   7.619  0.00  0.00    +0.000 A 
ATOM     22  C   UNL     1      47.599   1.499   6.589  0.00  0.00    +0.000 A 
ATOM     23  N   UNL     1      47.387   2.790   6.260  0.00  0.00    +0.000 NA
ATOM     24  C   UNL     1      46.483   3.472   6.999  0.00  0.00    +0.000 A 
ENDBRANCH  16  19
ENDBRANCH  15  16
ENDBRANCH  14  15
ENDBRANCH   4  14
TORSDOF 6
ENDMDL
MODEL 3
REMARK VINA RESULT:    -7.385      2.042      2.559
REMARK INTER + INTRA:         -10.529
REMARK INTER:                 -10.063
REMARK INTRA:                  -0.466
REMARK UNBOUND:                -0.553
REMARK  Name = 
REMARK  8 active torsions:
REMARK  status: ('A' for Active; 'I' for Inactive)
REMARK    1  A    between atoms: C_1  and  C_2
REMARK    2  A    between atoms: C_2  and  C_3
REMARK    3  A    between atoms: C_2  and  N_4
REMARK    4  A    between atoms: C_5  and  C_7
REMARK    5  A    between atoms: C_10  and  O_11
REMARK    6  A    between atoms: O_11  and  C_12
REMARK    7  A    between atoms: C_12  and  C_13
REMARK    8  A    between atoms: C_13  and  C_16
REMARK                            x       y       z     vdW  Elec       q    Type
REMARK                         _______ _______ _______ _____ _____    ______ ____
ROOT
ATOM      1  C   UNL     1      46.030   6.581  12.644  0.00  0.00    +0.000 A 
ATOM      2  N   UNL     1      44.961   5.982  13.222  0.00  0.00    +0.000 NA
ATOM      3  C   UNL     1      44.200   5.230  12.394  0.00  0.00    +0.000 A 
ATOM      4  C   UNL     1      44.452   5.049  11.046  0.00  0.00    +0.000 A 
ATOM      5  C   UNL     1      45.564   5.721  10.578  0.00  0.00    +0.000 A 
ATOM      6  N   UNL     1      46.369   6.489  11.343  0.00  0.00    +0.000 NA
ENDROOT
BRANCH   1   8
ATOM      7  N   UNL     1      47.792   6.618  14.351  0.00  0.00    +0.000 N 
ATOM      8  C   UNL     1      46.938   7.378  13.558  0.00  0.00    +0.000 C 
ATOM      9  O   UNL     1      46.927   8.605  13.583  0.00  0.00    +0.000 OA
ATOM     10  H   UNL     1      47.654   5.612  14.337  0.00  0.00    +0.000 HD
BRANCH   7  12
ATOM     11  C   UNL     1      48.890   6.363  16.536  0.00  0.00    +0.000 C 
ATOM     12  C   UNL     1      48.721   7.226  15.290  0.00  0.00    +0.000 C 
ATOM     13  C   UNL     1      50.072   7.479  14.625  0.00  0.00    +0.000 C 
ENDBRANCH   7  12
ENDBRANCH   1   8
BRANCH   4  14
ATOM     14  O   UNL     1      43.745   4.300  10.157  0.00  0.00    +0.000 OA
BRANCH  14  15
ATOM     15  C   UNL     1      44.390   3.999   8.908  0.00  0.00    +0.000 C 
BRANCH  15  16
ATOM     16  C   UNL     1      45.010   2.588   8.935  0.00  0.00    +0.000 C 
ATOM     17  F   UNL     1      45.581   2.389  10.158  0.00  0.00    +0.000 F 
ATOM     18  F   UNL     1      44.003   1.670   8.846  0.00  0.00    +0.000 F 
BRANCH  16  19
ATOM     19  C   UNL     1      46.010   2.426   7.816  0.00  0.00    +0.000 A 
ATOM     20  C   UNL     1      46.167   3.395   6.817  0.00  0.00    +0.000 A 
ATOM     21  C   UNL     1      47.122   3.209   5.820  0.00  0.00    +0.000 A 
ATOM     22  C   UNL     1      47.896   2.062   5.860  0.00  0.00    +0.000 A 
ATOM     23  N   UNL     1      47.776   1.112   6.809  0.00  0.00    +0.000 NA
ATOM     24  C   UNL     1      46.830   1.306   7.757  0.00  0.00    +0.000 A 
ENDBRANCH  16  19
ENDBRANCH  15  16
ENDBRANCH  14  15
ENDBRANCH   4  14
TORSDOF 6
ENDMDL
MODEL 4
REMARK VINA RESULT:    -6.827      1.983      2.530
REMARK INTER + INTRA:          -9.775
REMARK INTER:                  -9.345
REMARK INTRA:                  -0.430
REMARK UNBOUND:                -0.553
REMARK  Name = 
REMARK  8 active torsions:
REMARK  status: ('A' for Active; 'I' for Inactive)
REMARK    1  A    between atoms: C_1  and  C_2
REMARK    2  A    between atoms: C_2  and  C_3
REMARK    3  A    between atoms: C_2  and  N_4
REMARK    4  A    between atoms: C_5  and  C_7
REMARK    5  A    between atoms: C_10  and  O_11
REMARK    6  A    between atoms: O_11  and  C_12
REMARK    7  A    between atoms: C_12  and  C_13
REMARK    8  A    between atoms: C_13  and  C_16
REMARK                            x       y       z     vdW  Elec       q    Type
REMARK                         _______ _______ _______ _____ _____    ______ ____
ROOT
ATOM      1  C   UNL     1      48.042   5.828  15.001  0.00  0.00    +0.000 A 
ATOM      2  N   UNL     1      47.889   6.830  14.102  0.00  0.00    +0.000 NA
ATOM      3  C   UNL     1      47.107   6.539  13.038  0.00  0.00    +0.000 A 
ATOM      4  C   UNL     1      46.482   5.322  12.833  0.00  0.00    +0.000 A 
ATOM      5  C   UNL     1      46.726   4.383  13.815  0.00  0.00    +0.000 A 
ATOM      6  N   UNL     1      47.495   4.600  14.905  0.00  0.00    +0.000 NA
ENDROOT
BRANCH   1   8
ATOM      7  N   UNL     1      48.138   6.672  17.303  0.00  0.00    +0.000 N 
ATOM      8  C   UNL     1      48.859   6.144  16.238  0.00  0.00    +0.000 C 
ATOM      9  O   UNL     1      50.068   5.933  16.294  0.00  0.00    +0.000 OA
ATOM     10  H   UNL     1      47.166   6.908  17.125  0.00  0.00    +0.000 HD
BRANCH   7  12
ATOM     11  C   UNL     1      48.522   8.505  18.896  0.00  0.00    +0.000 C 
ATOM     12  C   UNL     1      48.772   7.038  18.560  0.00  0.00    +0.000 C 
ATOM     13  C   UNL     1      48.285   6.138  19.692  0.00  0.00    +0.000 C 
ENDBRANCH   7  12
ENDBRANCH   1   8
BRANCH   4  14
ATOM     14  O   UNL     1      45.674   4.961  11.800  0.00  0.00    +0.000 OA
BRANCH  14  15
ATOM     15  C   UNL     1      45.054   3.667  11.886  0.00  0.00    +0.000 C 
BRANCH  15  16
ATOM     16  C   UNL     1      44.186   3.388  10.642  0.00  0.00    +0.000 C 
ATOM     17  F   UNL     1      43.460   2.254  10.867  0.00  0.00    +0.000 F 
ATOM     18  F   UNL     1      43.270   4.393  10.518  0.00  0.00    +0.000 F 
BRANCH  16  19
ATOM     19  C   UNL     1      45.049   3.267   9.411  0.00  0.00    +0.000 A 
ATOM     20  C   UNL     1      45.535   2.031   8.964  0.00  0.00    +0.000 A 
ATOM     21  C   UNL     1      46.307   1.971   7.807  0.00  0.00    +0.000 A 
ATOM     22  C   UNL     1      46.564   3.150   7.128  0.00  0.00    +0.000 A 
ATOM     23  N   UNL     1      46.109   4.356   7.526  0.00  0.00    +0.000 NA
ATOM     24  C   UNL     1      45.375   4.391   8.662  0.00  0.00    +0.000 A 
ENDBRANCH  16  19
ENDBRANCH  15  16
ENDBRANCH  14  15
ENDBRANCH   4  14
TORSDOF 6
ENDMDL
MODEL 5
REMARK VINA RESULT:    -6.470      3.234      4.230
REMARK INTER + INTRA:          -9.293
REMARK INTER:                  -8.501
REMARK INTRA:                  -0.792
REMARK UNBOUND:                -0.553
REMARK  Name = 
REMARK  8 active torsions:
REMARK  status: ('A' for Active; 'I' for Inactive)
REMARK    1  A    between atoms: C_1  and  C_2
REMARK    2  A    between atoms: C_2  and  C_3
REMARK    3  A    between atoms: C_2  and  N_4
REMARK    4  A    between atoms: C_5  and  C_7
REMARK    5  A    between atoms: C_10  and  O_11
REMARK    6  A    between atoms: O_11  and  C_12
REMARK    7  A    between atoms: C_12  and  C_13
REMARK    8  A    between atoms: C_13  and  C_16
REMARK                            x       y       z     vdW  Elec       q    Type
REMARK                         _______ _______ _______ _____ _____    ______ ____
ROOT
ATOM      1  C   UNL     1      47.939   7.266  12.718  0.00  0.00    +0.000 A 
ATOM      2  N   UNL     1      48.177   6.155  13.457  0.00  0.00    +0.000 NA
ATOM      3  C   UNL     1      47.140   5.292  13.557  0.00  0.00    +0.000 A 
ATOM      4  C   UNL     1      45.904   5.480  12.965  0.00  0.00    +0.000 A 
ATOM      5  C   UNL     1      45.787   6.655  12.248  0.00  0.00    +0.000 A 
ATOM      6  N   UNL     1      46.776   7.563  12.105  0.00  0.00    +0.000 NA
ENDROOT
BRANCH   1   8
ATOM      7  N   UNL     1      50.312   7.620  12.204  0.00  0.00    +0.000 N 
ATOM      8  C   UNL     1      49.101   8.220  12.534  0.00  0.00    +0.000 C 
ATOM      9  O   UNL     1      48.974   9.435  12.653  0.00  0.00    +0.000 OA
ATOM     10  H   UNL     1      50.342   6.605  12.232  0.00  0.00    +0.000 HD
BRANCH   7  12
ATOM     11  C   UNL     1      52.382   8.418  13.265  0.00  0.00    +0.000 C 
ATOM     12  C   UNL     1      51.527   8.392  12.001  0.00  0.00    +0.000 C 
ATOM     13  C   UNL     1      52.327   7.840  10.824  0.00  0.00    +0.000 C 
ENDBRANCH   7  12
ENDBRANCH   1   8
BRANCH   4  14
ATOM     14  O   UNL     1      44.823   4.654  13.007  0.00  0.00    +0.000 OA
BRANCH  14  15
ATOM     15  C   UNL     1      44.949   3.390  12.333  0.00  0.00    +0.000 C 
BRANCH  15  16
ATOM     16  C   UNL     1      44.006   3.320  11.116  0.00  0.00    +0.000 C 
ATOM     17  F   UNL     1      43.217   2.214  11.243  0.00  0.00    +0.000 F 
ATOM     18  F   UNL     1      43.153   4.386  11.165  0.00  0.00    +0.000 F 
BRANCH  16  19
ATOM     19  C   UNL     1      44.798   3.300   9.832  0.00  0.00    +0.000 A 
ATOM     20  C   UNL     1      45.195   4.478   9.187  0.00  0.00    +0.000 A 
ATOM     21  C   UNL     1      45.947   4.404   8.017  0.00  0.00    +0.000 A 
ATOM     22  C   UNL     1      46.286   3.152   7.533  0.00  0.00    +0.000 A 
ATOM     23  N   UNL     1      45.925   1.998   8.131  0.00  0.00    +0.000 NA
ATOM     24  C   UNL     1      45.181   2.095   9.257  0.00  0.00    +0.000 A 
ENDBRANCH  16  19
ENDBRANCH  15  16
ENDBRANCH  14  15
ENDBRANCH   4  14
TORSDOF 6
ENDMDL
MODEL 6
REMARK VINA RESULT:    -6.421      1.883      2.305
REMARK INTER + INTRA:          -9.226
REMARK INTER:                  -8.672
REMARK INTRA:                  -0.554
REMARK UNBOUND:                -0.553
REMARK  Name = 
REMARK  8 active torsions:
REMARK  status: ('A' for Active; 'I' for Inactive)
REMARK    1  A    between atoms: C_1  and  C_2
REMARK    2  A    between atoms: C_2  and  C_3
REMARK    3  A    between atoms: C_2  and  N_4
REMARK    4  A    between atoms: C_5  and  C_7
REMARK    5  A    between atoms: C_10  and  O_11
REMARK    6  A    between atoms: O_11  and  C_12
REMARK    7  A    between atoms: C_12  and  C_13
REMARK    8  A    between atoms: C_13  and  C_16
REMARK                            x       y       z     vdW  Elec       q    Type
REMARK                         _______ _______ _______ _____ _____    ______ ____
ROOT
ATOM      1  C   UNL     1      48.108   5.772  15.219  0.00  0.00    +0.000 A 
ATOM      2  N   UNL     1      48.237   6.730  14.270  0.00  0.00    +0.000 NA
ATOM      3  C   UNL     1      47.490   6.549  13.158  0.00  0.00    +0.000 A 
ATOM      4  C   UNL     1      46.636   5.481  12.953  0.00  0.00    +0.000 A 
ATOM      5  C   UNL     1      46.602   4.569  13.989  0.00  0.00    +0.000 A 
ATOM      6  N   UNL     1      47.319   4.683  15.128  0.00  0.00    +0.000 NA
ENDROOT
BRANCH   1   8
ATOM      7  N   UNL     1      49.485   4.838  17.023  0.00  0.00    +0.000 N 
ATOM      8  C   UNL     1      48.883   5.980  16.504  0.00  0.00    +0.000 C 
ATOM      9  O   UNL     1      48.982   7.082  17.037  0.00  0.00    +0.000 OA
ATOM     10  H   UNL     1      49.258   3.957  16.571  0.00  0.00    +0.000 HD
BRANCH   7  12
ATOM     11  C   UNL     1      49.377   4.559  19.463  0.00  0.00    +0.000 C 
ATOM     12  C   UNL     1      50.257   4.862  18.254  0.00  0.00    +0.000 C 
ATOM     13  C   UNL     1      51.423   3.881  18.179  0.00  0.00    +0.000 C 
ENDBRANCH   7  12
ENDBRANCH   1   8
BRANCH   4  14
ATOM     14  O   UNL     1      45.844   5.239  11.872  0.00  0.00    +0.000 OA
BRANCH  14  15
ATOM     15  C   UNL     1      45.064   4.031  11.900  0.00  0.00    +0.000 C 
BRANCH  15  16
ATOM     16  C   UNL     1      44.179   3.919  10.642  0.00  0.00    +0.000 C 
ATOM     17  F   UNL     1      43.133   3.089  10.922  0.00  0.00    +0.000 F 
ATOM     18  F   UNL     1      43.622   5.141  10.393  0.00  0.00    +0.000 F 
BRANCH  16  19
ATOM     19  C   UNL     1      44.988   3.427   9.468  0.00  0.00    +0.000 A 
ATOM     20  C   UNL     1      45.534   4.304   8.522  0.00  0.00    +0.000 A 
ATOM     21  C   UNL     1      46.294   3.799   7.470  0.00  0.00    +0.000 A 
ATOM     22  C   UNL     1      46.492   2.431   7.402  0.00  0.00    +0.000 A 
ATOM     23  N   UNL     1      45.987   1.557   8.297  0.00  0.00    +0.000 NA
ATOM     24  C   UNL     1      45.238   2.070   9.301  0.00  0.00    +0.000 A 
ENDBRANCH  16  19
ENDBRANCH  15  16
ENDBRANCH  14  15
ENDBRANCH   4  14
TORSDOF 6
ENDMDL
MODEL 7
REMARK VINA RESULT:    -6.085      3.194      4.071
REMARK INTER + INTRA:          -8.773
REMARK INTER:                  -8.233
REMARK INTRA:                  -0.540
REMARK UNBOUND:                -0.553
REMARK  Name = 
REMARK  8 active torsions:
REMARK  status: ('A' for Active; 'I' for Inactive)
REMARK    1  A    between atoms: C_1  and  C_2
REMARK    2  A    between atoms: C_2  and  C_3
REMARK    3  A    between atoms: C_2  and  N_4
REMARK    4  A    between atoms: C_5  and  C_7
REMARK    5  A    between atoms: C_10  and  O_11
REMARK    6  A    between atoms: O_11  and  C_12
REMARK    7  A    between atoms: C_12  and  C_13
REMARK    8  A    between atoms: C_13  and  C_16
REMARK                            x       y       z     vdW  Elec       q    Type
REMARK                         _______ _______ _______ _____ _____    ______ ____
ROOT
ATOM      1  C   UNL     1      48.901   5.745  15.709  0.00  0.00    +0.000 A 
ATOM      2  N   UNL     1      48.558   6.353  14.548  0.00  0.00    +0.000 NA
ATOM      3  C   UNL     1      47.483   5.830  13.915  0.00  0.00    +0.000 A 
ATOM      4  C   UNL     1      46.748   4.754  14.378  0.00  0.00    +0.000 A 
ATOM      5  C   UNL     1      47.205   4.218  15.566  0.00  0.00    +0.000 A 
ATOM      6  N   UNL     1      48.270   4.685  16.253  0.00  0.00    +0.000 NA
ENDROOT
BRANCH   1   8
ATOM      7  N   UNL     1      51.131   6.768  15.691  0.00  0.00    +0.000 N 
ATOM      8  C   UNL     1      50.061   6.348  16.474  0.00  0.00    +0.000 C 
ATOM      9  O   UNL     1      50.046   6.469  17.696  0.00  0.00    +0.000 OA
ATOM     10  H   UNL     1      51.096   6.530  14.704  0.00  0.00    +0.000 HD
BRANCH   7  12
ATOM     11  C   UNL     1      53.555   6.496  15.999  0.00  0.00    +0.000 C 
ATOM     12  C   UNL     1      52.327   7.359  16.269  0.00  0.00    +0.000 C 
ATOM     13  C   UNL     1      52.539   8.774  15.739  0.00  0.00    +0.000 C 
ENDBRANCH   7  12
ENDBRANCH   1   8
BRANCH   4  14
ATOM     14  O   UNL     1      45.651   4.184  13.808  0.00  0.00    +0.000 OA
BRANCH  14  15
ATOM     15  C   UNL     1      45.085   4.865  12.675  0.00  0.00    +0.000 C 
BRANCH  15  16
ATOM     16  C   UNL     1      44.187   3.917  11.856  0.00  0.00    +0.000 C 
ATOM     17  F   UNL     1      44.155   2.704  12.482  0.00  0.00    +0.000 F 
ATOM     18  F   UNL     1      42.905   4.386  11.899  0.00  0.00    +0.000 F 
BRANCH  16  19
ATOM     19  C   UNL     1      44.691   3.803  10.438  0.00  0.00    +0.000 A 
ATOM     20  C   UNL     1      44.571   2.619   9.700  0.00  0.00    +0.000 A 
ATOM     21  C   UNL     1      45.030   2.574   8.386  0.00  0.00    +0.000 A 
ATOM     22  C   UNL     1      45.588   3.722   7.848  0.00  0.00    +0.000 A 
ATOM     23  N   UNL     1      45.716   4.880   8.527  0.00  0.00    +0.000 NA
ATOM     24  C   UNL     1      45.277   4.894   9.807  0.00  0.00    +0.000 A 
ENDBRANCH  16  19
ENDBRANCH  15  16
ENDBRANCH  14  15
ENDBRANCH   4  14
TORSDOF 6
ENDMDL
MODEL 8
REMARK VINA RESULT:    -5.697      4.703      8.652
REMARK INTER + INTRA:          -8.248
REMARK INTER:                  -7.622
REMARK INTRA:                  -0.627
REMARK UNBOUND:                -0.553
REMARK  Name = 
REMARK  8 active torsions:
REMARK  status: ('A' for Active; 'I' for Inactive)
REMARK    1  A    between atoms: C_1  and  C_2
REMARK    2  A    between atoms: C_2  and  C_3
REMARK    3  A    between atoms: C_2  and  N_4
REMARK    4  A    between atoms: C_5  and  C_7
REMARK    5  A    between atoms: C_10  and  O_11
REMARK    6  A    between atoms: O_11  and  C_12
REMARK    7  A    between atoms: C_12  and  C_13
REMARK    8  A    between atoms: C_13  and  C_16
REMARK                            x       y       z     vdW  Elec       q    Type
REMARK                         _______ _______ _______ _____ _____    ______ ____
ROOT
ATOM      1  C   UNL     1      46.839   5.366  13.752  0.00  0.00    +0.000 A 
ATOM      2  N   UNL     1      46.695   4.457  14.746  0.00  0.00    +0.000 NA
ATOM      3  C   UNL     1      47.450   4.677  15.847  0.00  0.00    +0.000 A 
ATOM      4  C   UNL     1      48.321   5.741  16.000  0.00  0.00    +0.000 A 
ATOM      5  C   UNL     1      48.383   6.589  14.912  0.00  0.00    +0.000 A 
ATOM      6  N   UNL     1      47.662   6.433  13.781  0.00  0.00    +0.000 NA
ENDROOT
BRANCH   1   8
ATOM      7  N   UNL     1      44.855   4.358  12.718  0.00  0.00    +0.000 N 
ATOM      8  C   UNL     1      45.959   5.183  12.532  0.00  0.00    +0.000 C 
ATOM      9  O   UNL     1      46.199   5.739  11.464  0.00  0.00    +0.000 OA
ATOM     10  H   UNL     1      44.799   3.862  13.603  0.00  0.00    +0.000 HD
BRANCH   7  12
ATOM     11  C   UNL     1      43.366   2.652  11.761  0.00  0.00    +0.000 C 
ATOM     12  C   UNL     1      43.915   4.071  11.647  0.00  0.00    +0.000 C 
ATOM     13  C   UNL     1      42.777   5.087  11.641  0.00  0.00    +0.000 C 
ENDBRANCH   7  12
ENDBRANCH   1   8
BRANCH   4  14
ATOM     14  O   UNL     1      49.098   6.035  17.077  0.00  0.00    +0.000 OA
BRANCH  14  15
ATOM     15  C   UNL     1      50.384   5.395  17.140  0.00  0.00    +0.000 C 
BRANCH  15  16
ATOM     16  C   UNL     1      50.488   4.490  18.385  0.00  0.00    +0.000 C 
ATOM     17  F   UNL     1      51.058   5.209  19.395  0.00  0.00    +0.000 F 
ATOM     18  F   UNL     1      49.225   4.194  18.812  0.00  0.00    +0.000 F 
BRANCH  16  19
ATOM     19  C   UNL     1      51.276   3.243  18.069  0.00  0.00    +0.000 A 
ATOM     20  C   UNL     1      52.612   3.091  18.460  0.00  0.00    +0.000 A 
ATOM     21  C   UNL     1      53.287   1.909  18.165  0.00  0.00    +0.000 A 
ATOM     22  C   UNL     1      52.600   0.911  17.495  0.00  0.00    +0.000 A 
ATOM     23  N   UNL     1      51.313   1.021  17.108  0.00  0.00    +0.000 NA
ATOM     24  C   UNL     1      50.683   2.185  17.390  0.00  0.00    +0.000 A 
ENDBRANCH  16  19
ENDBRANCH  15  16
ENDBRANCH  14  15
ENDBRANCH   4  14
TORSDOF 6
ENDMDL
MODEL 9
REMARK VINA RESULT:    -5.257      3.461      4.562
REMARK INTER + INTRA:          -7.655
REMARK INTER:                  -7.028
REMARK INTRA:                  -0.627
REMARK UNBOUND:                -0.553
REMARK  Name = 
REMARK  8 active torsions:
REMARK  status: ('A' for Active; 'I' for Inactive)
REMARK    1  A    between atoms: C_1  and  C_2
REMARK    2  A    between atoms: C_2  and  C_3
REMARK    3  A    between atoms: C_2  and  N_4
REMARK    4  A    between atoms: C_5  and  C_7
REMARK    5  A    between atoms: C_10  and  O_11
REMARK    6  A    between atoms: O_11  and  C_12
REMARK    7  A    between atoms: C_12  and  C_13
REMARK    8  A    between atoms: C_13  and  C_16
REMARK                            x       y       z     vdW  Elec       q    Type
REMARK                         _______ _______ _______ _____ _____    ______ ____
ROOT
ATOM      1  C   UNL     1      49.932   6.709  15.566  0.00  0.00    +0.000 A 
ATOM      2  N   UNL     1      50.245   7.753  14.762  0.00  0.00    +0.000 NA
ATOM      3  C   UNL     1      49.315   8.068  13.831  0.00  0.00    +0.000 A 
ATOM      4  C   UNL     1      48.112   7.405  13.671  0.00  0.00    +0.000 A 
ATOM      5  C   UNL     1      47.918   6.354  14.545  0.00  0.00    +0.000 A 
ATOM      6  N   UNL     1      48.800   5.981  15.498  0.00  0.00    +0.000 NA
ENDROOT
BRANCH   1   8
ATOM      7  N   UNL     1      50.663   5.197  17.355  0.00  0.00    +0.000 N 
ATOM      8  C   UNL     1      50.925   6.374  16.661  0.00  0.00    +0.000 C 
ATOM      9  O   UNL     1      51.896   7.085  16.902  0.00  0.00    +0.000 OA
ATOM     10  H   UNL     1      49.781   4.735  17.154  0.00  0.00    +0.000 HD
BRANCH   7  12
ATOM     11  C   UNL     1      50.774   4.783  19.776  0.00  0.00    +0.000 C 
ATOM     12  C   UNL     1      51.512   4.736  18.442  0.00  0.00    +0.000 C 
ATOM     13  C   UNL     1      52.027   3.327  18.162  0.00  0.00    +0.000 C 
ENDBRANCH   7  12
ENDBRANCH   1   8
BRANCH   4  14
ATOM     14  O   UNL     1      47.126   7.671  12.772  0.00  0.00    +0.000 OA
BRANCH  14  15
ATOM     15  C   UNL     1      45.934   6.871  12.866  0.00  0.00    +0.000 C 
BRANCH  15  16
ATOM     16  C   UNL     1      45.505   6.358  11.476  0.00  0.00    +0.000 C 
ATOM     17  F   UNL     1      44.745   7.320  10.876  0.00  0.00    +0.000 F 
ATOM     18  F   UNL     1      46.619   6.232  10.697  0.00  0.00    +0.000 F 
BRANCH  16  19
ATOM     19  C   UNL     1      44.762   5.051  11.600  0.00  0.00    +0.000 A 
ATOM     20  C   UNL     1      44.624   4.170  10.520  0.00  0.00    +0.000 A 
ATOM     21  C   UNL     1      43.949   2.965  10.694  0.00  0.00    +0.000 A 
ATOM     22  C   UNL     1      43.439   2.674  11.949  0.00  0.00    +0.000 A 
ATOM     23  N   UNL     1      43.557   3.496  13.012  0.00  0.00    +0.000 NA
ATOM     24  C   UNL     1      44.202   4.669  12.814  0.00  0.00    +0.000 A 
ENDBRANCH  16  19
ENDBRANCH  15  16
ENDBRANCH  14  15
ENDBRANCH   4  14
TORSDOF 6
ENDMDL
