MODEL 1
REMARK VINA RESULT:    -7.479      0.000      0.000
REMARK INTER + INTRA:          -9.487
REMARK INTER:                  -9.009
REMARK INTRA:                  -0.478
REMARK UNBOUND:                -0.478
REMARK  Name = 
REMARK  5 active torsions:
REMARK  status: ('A' for Active; 'I' for Inactive)
REMARK    1  A    between atoms: C_1  and  C_2
REMARK    2  A    between atoms: C_6  and  C_7
REMARK    3  A    between atoms: C_7  and  N_8
REMARK    4  A    between atoms: C_13  and  C_14
REMARK    5  A    between atoms: C_14  and  O_15
REMARK                            x       y       z     vdW  Elec       q    Type
REMARK                         _______ _______ _______ _____ _____    ______ ____
ROOT
ATOM      1  N   UNL     1      44.887   3.800  11.362  0.00  0.00    +0.000 N 
ATOM      2  C   UNL     1      45.479   3.029  12.335  0.00  0.00    +0.000 A 
ATOM      3  C   UNL     1      46.122   3.873  13.211  0.00  0.00    +0.000 A 
ATOM      4  C   UNL     1      45.883   5.206  12.782  0.00  0.00    +0.000 A 
ATOM      5  C   UNL     1      46.287   6.468  13.264  0.00  0.00    +0.000 A 
ATOM      6  C   UNL     1      45.877   7.642  12.609  0.00  0.00    +0.000 A 
ATOM      7  C   UNL     1      45.016   7.542  11.509  0.00  0.00    +0.000 A 
ATOM      8  C   UNL     1      44.610   6.300  11.003  0.00  0.00    +0.000 A 
ATOM      9  C   UNL     1      45.071   5.140  11.647  0.00  0.00    +0.000 A 
ENDROOT
BRANCH   1  10
ATOM     10  C   UNL     1      44.181   3.260  10.205  0.00  0.00    +0.000 C 
BRANCH  10  16
ATOM     11  C   UNL     1      46.798   0.048   7.644  0.00  0.00    +0.000 C 
ATOM     12  C   UNL     1      46.353   1.471   7.809  0.00  0.00    +0.000 A 
ATOM     13  C   UNL     1      46.799   2.460   6.940  0.00  0.00    +0.000 A 
ATOM     14  C   UNL     1      46.397   3.771   7.164  0.00  0.00    +0.000 A 
ATOM     15  C   UNL     1      45.555   4.054   8.233  0.00  0.00    +0.000 A 
ATOM     16  C   UNL     1      45.116   3.009   9.044  0.00  0.00    +0.000 A 
ATOM     17  N   UNL     1      45.522   1.728   8.853  0.00  0.00    +0.000 NA
ENDBRANCH  10  16
ENDBRANCH   1  10
BRANCH   6  18
ATOM     18  C   UNL     1      46.319   8.979  13.149  0.00  0.00    +0.000 C 
BRANCH  18  19
ATOM     19  O   UNL     1      46.884   8.870  14.449  0.00  0.00    +0.000 OA
ATOM     20  H   UNL     1      47.763   9.285  14.403  0.00  0.00    +0.000 HD
ENDBRANCH  18  19
ENDBRANCH   6  18
TORSDOF 4
ENDMDL
MODEL 2
REMARK VINA RESULT:    -7.187      1.611      2.144
REMARK INTER + INTRA:          -9.135
REMARK INTER:                  -8.783
REMARK INTRA:                  -0.352
REMARK UNBOUND:                -0.478
REMARK  Name = 
REMARK  5 active torsions:
REMARK  status: ('A' for Active; 'I' for Inactive)
REMARK    1  A    between atoms: C_1  and  C_2
REMARK    2  A    between atoms: C_6  and  C_7
REMARK    3  A    between atoms: C_7  and  N_8
REMARK    4  A    between atoms: C_13  and  C_14
REMARK    5  A    between atoms: C_14  and  O_15
REMARK                            x       y       z     vdW  Elec       q    Type
REMARK                         _______ _______ _______ _____ _____    ______ ____
ROOT
ATOM      1  N   UNL     1      44.248   4.239  10.485  0.00  0.00    +0.000 N 
ATOM      2  C   UNL     1      43.500   3.473  11.348  0.00  0.00    +0.000 A 
ATOM      3  C   UNL     1      43.985   3.671  12.619  0.00  0.00    +0.000 A 
ATOM      4  C   UNL     1      45.039   4.618  12.538  0.00  0.00    +0.000 A 
ATOM      5  C   UNL     1      45.905   5.192  13.492  0.00  0.00    +0.000 A 
ATOM      6  C   UNL     1      46.874   6.131  13.096  0.00  0.00    +0.000 A 
ATOM      7  C   UNL     1      46.928   6.529  11.755  0.00  0.00    +0.000 A 
ATOM      8  C   UNL     1      46.088   5.965  10.785  0.00  0.00    +0.000 A 
ATOM      9  C   UNL     1      45.160   4.995  11.197  0.00  0.00    +0.000 A 
ENDROOT
BRANCH   1  10
ATOM     10  C   UNL     1      44.090   4.232   9.035  0.00  0.00    +0.000 C 
BRANCH  10  16
ATOM     11  C   UNL     1      47.174   3.391   5.360  0.00  0.00    +0.000 C 
ATOM     12  C   UNL     1      46.542   2.883   6.622  0.00  0.00    +0.000 A 
ATOM     13  C   UNL     1      46.842   1.614   7.105  0.00  0.00    +0.000 A 
ATOM     14  C   UNL     1      46.193   1.169   8.251  0.00  0.00    +0.000 A 
ATOM     15  C   UNL     1      45.281   2.004   8.886  0.00  0.00    +0.000 A 
ATOM     16  C   UNL     1      45.055   3.278   8.369  0.00  0.00    +0.000 A 
ATOM     17  N   UNL     1      45.661   3.714   7.235  0.00  0.00    +0.000 NA
ENDBRANCH  10  16
ENDBRANCH   1  10
BRANCH   6  18
ATOM     18  C   UNL     1      47.783   6.733  14.138  0.00  0.00    +0.000 C 
BRANCH  18  19
ATOM     19  O   UNL     1      48.035   5.836  15.211  0.00  0.00    +0.000 OA
ATOM     20  H   UNL     1      48.243   6.385  15.987  0.00  0.00    +0.000 HD
ENDBRANCH  18  19
ENDBRANCH   6  18
TORSDOF 4
ENDMDL
MODEL 3
REMARK VINA RESULT:    -7.133      2.996      6.170
REMARK INTER + INTRA:          -9.071
REMARK INTER:                  -8.644
REMARK INTRA:                  -0.426
REMARK UNBOUND:                -0.478
REMARK  Name = 
REMARK  5 active torsions:
REMARK  status: ('A' for Active; 'I' for Inactive)
REMARK    1  A    between atoms: C_1  and  C_2
REMARK    2  A    between atoms: C_6  and  C_7
REMARK    3  A    between atoms: C_7  and  N_8
REMARK    4  A    between atoms: C_13  and  C_14
REMARK    5  A    between atoms: C_14  and  O_15
REMARK                            x       y       z     vdW  Elec       q    Type
REMARK                         _______ _______ _______ _____ _____    ______ ____
ROOT
ATOM      1  N   UNL     1      44.606   3.925  10.133  0.00  0.00    +0.000 N 
ATOM      2  C   UNL     1      44.081   2.702  10.480  0.00  0.00    +0.000 A 
ATOM      3  C   UNL     1      44.475   1.788   9.531  0.00  0.00    +0.000 A 
ATOM      4  C   UNL     1      45.299   2.466   8.594  0.00  0.00    +0.000 A 
ATOM      5  C   UNL     1      45.970   2.062   7.420  0.00  0.00    +0.000 A 
ATOM      6  C   UNL     1      46.733   2.986   6.686  0.00  0.00    +0.000 A 
ATOM      7  C   UNL     1      46.864   4.295   7.167  0.00  0.00    +0.000 A 
ATOM      8  C   UNL     1      46.198   4.724   8.323  0.00  0.00    +0.000 A 
ATOM      9  C   UNL     1      45.405   3.794   9.013  0.00  0.00    +0.000 A 
ENDROOT
BRANCH   1  10
ATOM     10  C   UNL     1      44.337   5.166  10.853  0.00  0.00    +0.000 C 
BRANCH  10  16
ATOM     11  C   UNL     1      46.955   4.351  14.879  0.00  0.00    +0.000 C 
ATOM     12  C   UNL     1      46.764   5.174  13.639  0.00  0.00    +0.000 A 
ATOM     13  C   UNL     1      47.616   6.236  13.354  0.00  0.00    +0.000 A 
ATOM     14  C   UNL     1      47.369   6.999  12.219  0.00  0.00    +0.000 A 
ATOM     15  C   UNL     1      46.294   6.674  11.399  0.00  0.00    +0.000 A 
ATOM     16  C   UNL     1      45.502   5.574  11.724  0.00  0.00    +0.000 A 
ATOM     17  N   UNL     1      45.717   4.837  12.844  0.00  0.00    +0.000 NA
ENDBRANCH  10  16
ENDBRANCH   1  10
BRANCH   6  18
ATOM     18  C   UNL     1      47.444   2.527   5.438  0.00  0.00    +0.000 C 
BRANCH  18  19
ATOM     19  O   UNL     1      48.564   1.703   5.735  0.00  0.00    +0.000 OA
ATOM     20  H   UNL     1      48.821   1.276   4.899  0.00  0.00    +0.000 HD
ENDBRANCH  18  19
ENDBRANCH   6  18
TORSDOF 4
ENDMDL
MODEL 4
REMARK VINA RESULT:    -6.897      2.825      6.351
REMARK INTER + INTRA:          -8.785
REMARK INTER:                  -8.462
REMARK INTRA:                  -0.323
REMARK UNBOUND:                -0.478
REMARK  Name = 
REMARK  5 active torsions:
REMARK  status: ('A' for Active; 'I' for Inactive)
REMARK    1  A    between atoms: C_1  and  C_2
REMARK    2  A    between atoms: C_6  and  C_7
REMARK    3  A    between atoms: C_7  and  N_8
REMARK    4  A    between atoms: C_13  and  C_14
REMARK    5  A    between atoms: C_14  and  O_15
REMARK                            x       y       z     vdW  Elec       q    Type
REMARK                         _______ _______ _______ _____ _____    ______ ____
ROOT
ATOM      1  N   UNL     1      44.069   4.378  10.640  0.00  0.00    +0.000 N 
ATOM      2  C   UNL     1      43.582   3.259  11.275  0.00  0.00    +0.000 A 
ATOM      3  C   UNL     1      44.030   2.154  10.589  0.00  0.00    +0.000 A 
ATOM      4  C   UNL     1      44.850   2.610   9.522  0.00  0.00    +0.000 A 
ATOM      5  C   UNL     1      45.560   1.955   8.495  0.00  0.00    +0.000 A 
ATOM      6  C   UNL     1      46.304   2.697   7.562  0.00  0.00    +0.000 A 
ATOM      7  C   UNL     1      46.376   4.088   7.702  0.00  0.00    +0.000 A 
ATOM      8  C   UNL     1      45.670   4.765   8.706  0.00  0.00    +0.000 A 
ATOM      9  C   UNL     1      44.897   4.005   9.598  0.00  0.00    +0.000 A 
ENDROOT
BRANCH   1  10
ATOM     10  C   UNL     1      43.740   5.746  11.024  0.00  0.00    +0.000 C 
BRANCH  10  16
ATOM     11  C   UNL     1      46.158   9.855  12.017  0.00  0.00    +0.000 C 
ATOM     12  C   UNL     1      46.023   8.380  12.251  0.00  0.00    +0.000 A 
ATOM     13  C   UNL     1      46.908   7.709  13.087  0.00  0.00    +0.000 A 
ATOM     14  C   UNL     1      46.771   6.334  13.234  0.00  0.00    +0.000 A 
ATOM     15  C   UNL     1      45.752   5.673  12.556  0.00  0.00    +0.000 A 
ATOM     16  C   UNL     1      44.877   6.413  11.762  0.00  0.00    +0.000 A 
ATOM     17  N   UNL     1      45.016   7.752  11.590  0.00  0.00    +0.000 NA
ENDBRANCH  10  16
ENDBRANCH   1  10
BRANCH   6  18
ATOM     18  C   UNL     1      47.059   1.971   6.477  0.00  0.00    +0.000 C 
BRANCH  18  19
ATOM     19  O   UNL     1      48.303   1.462   6.941  0.00  0.00    +0.000 OA
ATOM     20  H   UNL     1      48.904   1.467   6.176  0.00  0.00    +0.000 HD
ENDBRANCH  18  19
ENDBRANCH   6  18
TORSDOF 4
ENDMDL
MODEL 5
REMARK VINA RESULT:    -6.153      2.072      2.810
REMARK INTER + INTRA:          -7.890
REMARK INTER:                  -7.493
REMARK INTRA:                  -0.397
REMARK UNBOUND:                -0.478
REMARK  Name = 
REMARK  5 active torsions:
REMARK  status: ('A' for Active; 'I' for Inactive)
REMARK    1  A    between atoms: C_1  and  C_2
REMARK    2  A    between atoms: C_6  and  C_7
REMARK    3  A    between atoms: C_7  and  N_8
REMARK    4  A    between atoms: C_13  and  C_14
REMARK    5  A    between atoms: C_14  and  O_15
REMARK                            x       y       z     vdW  Elec       q    Type
REMARK                         _______ _______ _______ _____ _____    ______ ____
ROOT
ATOM      1  N   UNL     1      45.502   5.495  12.223  0.00  0.00    +0.000 N 
ATOM      2  C   UNL     1      45.425   4.685  13.332  0.00  0.00    +0.000 A 
ATOM      3  C   UNL     1      46.551   4.901  14.092  0.00  0.00    +0.000 A 
ATOM      4  C   UNL     1      47.324   5.903  13.447  0.00  0.00    +0.000 A 
ATOM      5  C   UNL     1      48.559   6.516  13.742  0.00  0.00    +0.000 A 
ATOM      6  C   UNL     1      49.080   7.506  12.891  0.00  0.00    +0.000 A 
ATOM      7  C   UNL     1      48.329   7.915  11.782  0.00  0.00    +0.000 A 
ATOM      8  C   UNL     1      47.105   7.313  11.461  0.00  0.00    +0.000 A 
ATOM      9  C   UNL     1      46.628   6.294  12.300  0.00  0.00    +0.000 A 
ENDROOT
BRANCH   1  10
ATOM     10  C   UNL     1      44.531   5.488  11.134  0.00  0.00    +0.000 C 
BRANCH  10  16
ATOM     11  C   UNL     1      46.641   3.942   7.026  0.00  0.00    +0.000 C 
ATOM     12  C   UNL     1      45.796   3.603   8.218  0.00  0.00    +0.000 A 
ATOM     13  C   UNL     1      45.282   2.322   8.384  0.00  0.00    +0.000 A 
ATOM     14  C   UNL     1      44.464   2.071   9.478  0.00  0.00    +0.000 A 
ATOM     15  C   UNL     1      44.195   3.096  10.379  0.00  0.00    +0.000 A 
ATOM     16  C   UNL     1      44.773   4.347  10.173  0.00  0.00    +0.000 A 
ATOM     17  N   UNL     1      45.551   4.613   9.093  0.00  0.00    +0.000 NA
ENDBRANCH  10  16
ENDBRANCH   1  10
BRANCH   6  18
ATOM     18  C   UNL     1      50.400   8.150  13.233  0.00  0.00    +0.000 C 
BRANCH  18  19
ATOM     19  O   UNL     1      51.068   7.472  14.289  0.00  0.00    +0.000 OA
ATOM     20  H   UNL     1      51.605   8.140  14.749  0.00  0.00    +0.000 HD
ENDBRANCH  18  19
ENDBRANCH   6  18
TORSDOF 4
ENDMDL
MODEL 6
REMARK VINA RESULT:    -5.834      2.177      3.519
REMARK INTER + INTRA:          -7.505
REMARK INTER:                  -7.065
REMARK INTRA:                  -0.440
REMARK UNBOUND:                -0.478
REMARK  Name = 
REMARK  5 active torsions:
REMARK  status: ('A' for Active; 'I' for Inactive)
REMARK    1  A    between atoms: C_1  and  C_2
REMARK    2  A    between atoms: C_6  and  C_7
REMARK    3  A    between atoms: C_7  and  N_8
REMARK    4  A    between atoms: C_13  and  C_14
REMARK    5  A    between atoms: C_14  and  O_15
REMARK                            x       y       z     vdW  Elec       q    Type
REMARK                         _______ _______ _______ _____ _____    ______ ____
ROOT
ATOM      1  N   UNL     1      46.013   6.217  11.652  0.00  0.00    +0.000 N 
ATOM      2  C   UNL     1      46.955   7.134  11.247  0.00  0.00    +0.000 A 
ATOM      3  C   UNL     1      47.917   7.213  12.227  0.00  0.00    +0.000 A 
ATOM      4  C   UNL     1      47.573   6.286  13.247  0.00  0.00    +0.000 A 
ATOM      5  C   UNL     1      48.161   5.938  14.480  0.00  0.00    +0.000 A 
ATOM      6  C   UNL     1      47.573   4.954  15.294  0.00  0.00    +0.000 A 
ATOM      7  C   UNL     1      46.430   4.286  14.836  0.00  0.00    +0.000 A 
ATOM      8  C   UNL     1      45.820   4.622  13.620  0.00  0.00    +0.000 A 
ATOM      9  C   UNL     1      46.400   5.641  12.847  0.00  0.00    +0.000 A 
ENDROOT
BRANCH   1  10
ATOM     10  C   UNL     1      44.789   5.920  10.915  0.00  0.00    +0.000 C 
BRANCH  10  16
ATOM     11  C   UNL     1      46.567   3.823   6.894  0.00  0.00    +0.000 C 
ATOM     12  C   UNL     1      45.790   3.661   8.167  0.00  0.00    +0.000 A 
ATOM     13  C   UNL     1      45.241   2.431   8.513  0.00  0.00    +0.000 A 
ATOM     14  C   UNL     1      44.488   2.343   9.677  0.00  0.00    +0.000 A 
ATOM     15  C   UNL     1      44.317   3.474  10.467  0.00  0.00    +0.000 A 
ATOM     16  C   UNL     1      44.925   4.667  10.081  0.00  0.00    +0.000 A 
ATOM     17  N   UNL     1      45.640   4.773   8.932  0.00  0.00    +0.000 NA
ENDBRANCH  10  16
ENDBRANCH   1  10
BRANCH   6  18
ATOM     18  C   UNL     1      48.226   4.596  16.605  0.00  0.00    +0.000 C 
BRANCH  18  19
ATOM     19  O   UNL     1      49.607   4.932  16.623  0.00  0.00    +0.000 OA
ATOM     20  H   UNL     1      49.818   5.283  15.741  0.00  0.00    +0.000 HD
ENDBRANCH  18  19
ENDBRANCH   6  18
TORSDOF 4
ENDMDL
MODEL 7
REMARK VINA RESULT:    -5.751      3.171      6.510
REMARK INTER + INTRA:          -7.405
REMARK INTER:                  -6.931
REMARK INTRA:                  -0.474
REMARK UNBOUND:                -0.478
REMARK  Name = 
REMARK  5 active torsions:
REMARK  status: ('A' for Active; 'I' for Inactive)
REMARK    1  A    between atoms: C_1  and  C_2
REMARK    2  A    between atoms: C_6  and  C_7
REMARK    3  A    between atoms: C_7  and  N_8
REMARK    4  A    between atoms: C_13  and  C_14
REMARK    5  A    between atoms: C_14  and  O_15
REMARK                            x       y       z     vdW  Elec       q    Type
REMARK                         _______ _______ _______ _____ _____    ______ ____
ROOT
ATOM      1  N   UNL     1      45.023   6.220  11.980  0.00  0.00    +0.000 N 
ATOM      2  C   UNL     1      44.474   5.694  13.127  0.00  0.00    +0.000 A 
ATOM      3  C   UNL     1      44.116   4.392  12.866  0.00  0.00    +0.000 A 
ATOM      4  C   UNL     1      44.492   4.099  11.529  0.00  0.00    +0.000 A 
ATOM      5  C   UNL     1      44.370   2.954  10.714  0.00  0.00    +0.000 A 
ATOM      6  C   UNL     1      44.853   2.968   9.395  0.00  0.00    +0.000 A 
ATOM      7  C   UNL     1      45.507   4.112   8.921  0.00  0.00    +0.000 A 
ATOM      8  C   UNL     1      45.630   5.267   9.705  0.00  0.00    +0.000 A 
ATOM      9  C   UNL     1      45.098   5.244  11.004  0.00  0.00    +0.000 A 
ENDROOT
BRANCH   1  10
ATOM     10  C   UNL     1      45.447   7.608  11.837  0.00  0.00    +0.000 C 
BRANCH  10  16
ATOM     11  C   UNL     1      48.323   9.247  15.411  0.00  0.00    +0.000 C 
ATOM     12  C   UNL     1      48.227   8.590  14.065  0.00  0.00    +0.000 A 
ATOM     13  C   UNL     1      49.374   8.229  13.368  0.00  0.00    +0.000 A 
ATOM     14  C   UNL     1      49.234   7.669  12.104  0.00  0.00    +0.000 A 
ATOM     15  C   UNL     1      47.961   7.472  11.581  0.00  0.00    +0.000 A 
ATOM     16  C   UNL     1      46.852   7.823  12.349  0.00  0.00    +0.000 A 
ATOM     17  N   UNL     1      46.976   8.396  13.574  0.00  0.00    +0.000 NA
ENDBRANCH  10  16
ENDBRANCH   1  10
BRANCH   6  18
ATOM     18  C   UNL     1      44.715   1.728   8.548  0.00  0.00    +0.000 C 
BRANCH  18  19
ATOM     19  O   UNL     1      45.942   1.017   8.437  0.00  0.00    +0.000 OA
ATOM     20  H   UNL     1      46.604   1.532   8.930  0.00  0.00    +0.000 HD
ENDBRANCH  18  19
ENDBRANCH   6  18
TORSDOF 4
ENDMDL
MODEL 8
REMARK VINA RESULT:    -5.552      4.037      7.284
REMARK INTER + INTRA:          -7.165
REMARK INTER:                  -6.741
REMARK INTRA:                  -0.424
REMARK UNBOUND:                -0.478
REMARK  Name = 
REMARK  5 active torsions:
REMARK  status: ('A' for Active; 'I' for Inactive)
REMARK    1  A    between atoms: C_1  and  C_2
REMARK    2  A    between atoms: C_6  and  C_7
REMARK    3  A    between atoms: C_7  and  N_8
REMARK    4  A    between atoms: C_13  and  C_14
REMARK    5  A    between atoms: C_14  and  O_15
REMARK                            x       y       z     vdW  Elec       q    Type
REMARK                         _______ _______ _______ _____ _____    ______ ____
ROOT
ATOM      1  N   UNL     1      47.270   7.092  13.366  0.00  0.00    +0.000 N 
ATOM      2  C   UNL     1      46.586   8.261  13.125  0.00  0.00    +0.000 A 
ATOM      3  C   UNL     1      45.348   7.931  12.624  0.00  0.00    +0.000 A 
ATOM      4  C   UNL     1      45.257   6.514  12.594  0.00  0.00    +0.000 A 
ATOM      5  C   UNL     1      44.254   5.615  12.177  0.00  0.00    +0.000 A 
ATOM      6  C   UNL     1      44.461   4.228  12.274  0.00  0.00    +0.000 A 
ATOM      7  C   UNL     1      45.649   3.755  12.843  0.00  0.00    +0.000 A 
ATOM      8  C   UNL     1      46.666   4.627  13.254  0.00  0.00    +0.000 A 
ATOM      9  C   UNL     1      46.455   6.007  13.103  0.00  0.00    +0.000 A 
ENDROOT
BRANCH   1  10
ATOM     10  C   UNL     1      48.655   7.033  13.822  0.00  0.00    +0.000 C 
BRANCH  10  16
ATOM     11  C   UNL     1      49.066   4.003  17.614  0.00  0.00    +0.000 C 
ATOM     12  C   UNL     1      48.960   5.420  17.133  0.00  0.00    +0.000 A 
ATOM     13  C   UNL     1      48.940   6.477  18.036  0.00  0.00    +0.000 A 
ATOM     14  C   UNL     1      48.791   7.768  17.545  0.00  0.00    +0.000 A 
ATOM     15  C   UNL     1      48.682   7.968  16.173  0.00  0.00    +0.000 A 
ATOM     16  C   UNL     1      48.746   6.867  15.321  0.00  0.00    +0.000 A 
ATOM     17  N   UNL     1      48.864   5.599  15.790  0.00  0.00    +0.000 NA
ENDBRANCH  10  16
ENDBRANCH   1  10
BRANCH   6  18
ATOM     18  C   UNL     1      43.369   3.289  11.826  0.00  0.00    +0.000 C 
BRANCH  18  19
ATOM     19  O   UNL     1      43.461   2.021  12.463  0.00  0.00    +0.000 OA
ATOM     20  H   UNL     1      43.429   2.191  13.420  0.00  0.00    +0.000 HD
ENDBRANCH  18  19
ENDBRANCH   6  18
TORSDOF 4
ENDMDL
MODEL 9
REMARK VINA RESULT:    -5.482      3.861      6.563
REMARK INTER + INTRA:          -7.081
REMARK INTER:                  -6.606
REMARK INTRA:                  -0.476
REMARK UNBOUND:                -0.478
REMARK  Name = 
REMARK  5 active torsions:
REMARK  status: ('A' for Active; 'I' for Inactive)
REMARK    1  A    between atoms: C_1  and  C_2
REMARK    2  A    between atoms: C_6  and  C_7
REMARK    3  A    between atoms: C_7  and  N_8
REMARK    4  A    between atoms: C_13  and  C_14
REMARK    5  A    between atoms: C_14  and  O_15
REMARK                            x       y       z     vdW  Elec       q    Type
REMARK                         _______ _______ _______ _____ _____    ______ ____
ROOT
ATOM      1  N   UNL     1      47.174   6.438  13.560  0.00  0.00    +0.000 N 
ATOM      2  C   UNL     1      47.591   5.618  14.582  0.00  0.00    +0.000 A 
ATOM      3  C   UNL     1      46.991   4.392  14.412  0.00  0.00    +0.000 A 
ATOM      4  C   UNL     1      46.213   4.451  13.225  0.00  0.00    +0.000 A 
ATOM      5  C   UNL     1      45.382   3.525  12.562  0.00  0.00    +0.000 A 
ATOM      6  C   UNL     1      44.728   3.885  11.371  0.00  0.00    +0.000 A 
ATOM      7  C   UNL     1      44.959   5.154  10.824  0.00  0.00    +0.000 A 
ATOM      8  C   UNL     1      45.771   6.096  11.470  0.00  0.00    +0.000 A 
ATOM      9  C   UNL     1      46.376   5.729  12.683  0.00  0.00    +0.000 A 
ENDROOT
BRANCH   1  10
ATOM     10  C   UNL     1      47.530   7.848  13.444  0.00  0.00    +0.000 C 
BRANCH  10  16
ATOM     11  C   UNL     1      52.073   9.358  14.340  0.00  0.00    +0.000 C 
ATOM     12  C   UNL     1      51.115   8.739  13.366  0.00  0.00    +0.000 A 
ATOM     13  C   UNL     1      51.533   8.384  12.088  0.00  0.00    +0.000 A 
ATOM     14  C   UNL     1      50.596   7.859  11.205  0.00  0.00    +0.000 A 
ATOM     15  C   UNL     1      49.282   7.690  11.625  0.00  0.00    +0.000 A 
ATOM     16  C   UNL     1      48.939   8.033  12.932  0.00  0.00    +0.000 A 
ATOM     17  N   UNL     1      49.838   8.572  13.795  0.00  0.00    +0.000 NA
ENDBRANCH  10  16
ENDBRANCH   1  10
BRANCH   6  18
ATOM     18  C   UNL     1      43.850   2.874  10.679  0.00  0.00    +0.000 C 
BRANCH  18  19
ATOM     19  O   UNL     1      42.989   2.201  11.589  0.00  0.00    +0.000 OA
ATOM     20  H   UNL     1      42.096   2.555  11.436  0.00  0.00    +0.000 HD
ENDBRANCH  18  19
ENDBRANCH   6  18
TORSDOF 4
ENDMDL
