MODEL 1
REMARK VINA RESULT:    -8.142      0.000      0.000
REMARK INTER + INTRA:         -10.678
REMARK INTER:                 -10.046
REMARK INTRA:                  -0.633
REMARK UNBOUND:                -0.633
REMARK  Name = 
REMARK  5 active torsions:
REMARK  status: ('A' for Active; 'I' for Inactive)
REMARK    1  A    between atoms: C_1  and  C_2
REMARK    2  A    between atoms: C_7  and  C_8
REMARK    3  A    between atoms: C_8  and  O_9
REMARK    4  A    between atoms: O_9  and  C_10
REMARK    5  A    between atoms: C_13  and  C_14
REMARK                            x       y       z     vdW  Elec       q    Type
REMARK                         _______ _______ _______ _____ _____    ______ ____
ROOT
ATOM      1  C   UNL     1      44.509   3.362   9.428  0.00  0.00    +0.000 A 
ATOM      2  C   UNL     1      45.148   4.367   8.697  0.00  0.00    +0.000 A 
ATOM      3  C   UNL     1      46.136   4.040   7.757  0.00  0.00    +0.000 A 
ATOM      4  C   UNL     1      46.501   2.702   7.554  0.00  0.00    +0.000 A 
ATOM      5  C   UNL     1      45.884   1.717   8.322  0.00  0.00    +0.000 A 
ATOM      6  F   UNL     1      46.200   0.419   8.180  0.00  0.00    +0.000 F 
ATOM      7  C   UNL     1      44.907   2.038   9.260  0.00  0.00    +0.000 A 
ENDROOT
BRANCH   4   8
ATOM      8  C   UNL     1      47.526   2.382   6.524  0.00  0.00    +0.000 C 
ATOM      9  N   UNL     1      47.421   2.987   5.304  0.00  0.00    +0.000 N 
ATOM     10  O   UNL     1      48.442   1.608   6.759  0.00  0.00    +0.000 OA
ATOM     11  H   UNL     1      46.680   3.637   5.067  0.00  0.00    +0.000 HD
ATOM     12  H   UNL     1      48.120   2.777   4.606  0.00  0.00    +0.000 HD
ENDBRANCH   4   8
BRANCH   1  13
ATOM     13  O   UNL     1      43.515   3.771  10.279  0.00  0.00    +0.000 OA
BRANCH  13  14
ATOM     14  C   UNL     1      43.851   3.714  11.671  0.00  0.00    +0.000 C 
BRANCH  14  21
ATOM     15  C   UNL     1      46.498   3.490  13.149  0.00  0.00    +0.000 C 
ATOM     16  C   UNL     1      45.924   4.812  12.719  0.00  0.00    +0.000 A 
ATOM     17  C   UNL     1      46.633   5.987  13.018  0.00  0.00    +0.000 A 
ATOM     18  C   UNL     1      46.141   7.239  12.649  0.00  0.00    +0.000 A 
ATOM     19  C   UNL     1      44.929   7.338  11.975  0.00  0.00    +0.000 A 
ATOM     20  C   UNL     1      44.215   6.184  11.668  0.00  0.00    +0.000 A 
ATOM     21  C   UNL     1      44.693   4.912  12.038  0.00  0.00    +0.000 A 
ENDBRANCH  14  21
ENDBRANCH  13  14
ENDBRANCH   1  13
TORSDOF 4
ENDMDL
MODEL 2
REMARK VINA RESULT:    -7.003      3.412      6.077
REMARK INTER + INTRA:          -9.273
REMARK INTER:                  -9.149
REMARK INTRA:                  -0.124
REMARK UNBOUND:                -0.633
REMARK  Name = 
REMARK  5 active torsions:
REMARK  status: ('A' for Active; 'I' for Inactive)
REMARK    1  A    between atoms: C_1  and  C_2
REMARK    2  A    between atoms: C_7  and  C_8
REMARK    3  A    between atoms: C_8  and  O_9
REMARK    4  A    between atoms: O_9  and  C_10
REMARK    5  A    between atoms: C_13  and  C_14
REMARK                            x       y       z     vdW  Elec       q    Type
REMARK                         _______ _______ _______ _____ _____    ______ ____
ROOT
ATOM      1  C   UNL     1      45.147   4.698  11.038  0.00  0.00    +0.000 A 
ATOM      2  C   UNL     1      45.746   5.913  10.693  0.00  0.00    +0.000 A 
ATOM      3  C   UNL     1      46.598   6.564  11.596  0.00  0.00    +0.000 A 
ATOM      4  C   UNL     1      46.844   6.009  12.859  0.00  0.00    +0.000 A 
ATOM      5  C   UNL     1      46.205   4.820  13.204  0.00  0.00    +0.000 A 
ATOM      6  F   UNL     1      46.393   4.246  14.403  0.00  0.00    +0.000 F 
ATOM      7  C   UNL     1      45.354   4.172  12.312  0.00  0.00    +0.000 A 
ENDROOT
BRANCH   4   8
ATOM      8  C   UNL     1      47.781   6.704  13.783  0.00  0.00    +0.000 C 
ATOM      9  N   UNL     1      47.482   7.983  14.157  0.00  0.00    +0.000 N 
ATOM     10  O   UNL     1      48.785   6.150  14.206  0.00  0.00    +0.000 OA
ATOM     11  H   UNL     1      46.660   8.481  13.834  0.00  0.00    +0.000 HD
ATOM     12  H   UNL     1      48.113   8.454  14.791  0.00  0.00    +0.000 HD
ENDBRANCH   4   8
BRANCH   1  13
ATOM     13  O   UNL     1      44.379   4.104  10.071  0.00  0.00    +0.000 OA
BRANCH  13  14
ATOM     14  C   UNL     1      44.735   4.443   8.725  0.00  0.00    +0.000 C 
BRANCH  14  21
ATOM     15  C   UNL     1      44.432   1.471   9.289  0.00  0.00    +0.000 C 
ATOM     16  C   UNL     1      45.536   2.020   8.428  0.00  0.00    +0.000 A 
ATOM     17  C   UNL     1      46.466   1.128   7.870  0.00  0.00    +0.000 A 
ATOM     18  C   UNL     1      47.514   1.585   7.070  0.00  0.00    +0.000 A 
ATOM     19  C   UNL     1      47.651   2.945   6.816  0.00  0.00    +0.000 A 
ATOM     20  C   UNL     1      46.736   3.843   7.358  0.00  0.00    +0.000 A 
ATOM     21  C   UNL     1      45.676   3.400   8.173  0.00  0.00    +0.000 A 
ENDBRANCH  14  21
ENDBRANCH  13  14
ENDBRANCH   1  13
TORSDOF 4
ENDMDL
MODEL 3
REMARK VINA RESULT:    -6.732      3.493      6.364
REMARK INTER + INTRA:          -8.939
REMARK INTER:                  -8.278
REMARK INTRA:                  -0.661
REMARK UNBOUND:                -0.633
REMARK  Name = 
REMARK  5 active torsions:
REMARK  status: ('A' for Active; 'I' for Inactive)
REMARK    1  A    between atoms: C_1  and  C_2
REMARK    2  A    between atoms: C_7  and  C_8
REMARK    3  A    between atoms: C_8  and  O_9
REMARK    4  A    between atoms: O_9  and  C_10
REMARK    5  A    between atoms: C_13  and  C_14
REMARK                            x       y       z     vdW  Elec       q    Type
REMARK                         _______ _______ _______ _____ _____    ______ ____
ROOT
ATOM      1  C   UNL     1      45.025   4.471  11.539  0.00  0.00    +0.000 A 
ATOM      2  C   UNL     1      44.248   5.514  11.027  0.00  0.00    +0.000 A 
ATOM      3  C   UNL     1      44.481   6.836  11.432  0.00  0.00    +0.000 A 
ATOM      4  C   UNL     1      45.487   7.120  12.366  0.00  0.00    +0.000 A 
ATOM      5  C   UNL     1      46.223   6.064  12.899  0.00  0.00    +0.000 A 
ATOM      6  F   UNL     1      47.192   6.273  13.805  0.00  0.00    +0.000 F 
ATOM      7  C   UNL     1      45.992   4.749  12.503  0.00  0.00    +0.000 A 
ENDROOT
BRANCH   4   8
ATOM      8  C   UNL     1      45.736   8.536  12.750  0.00  0.00    +0.000 C 
ATOM      9  N   UNL     1      44.656   9.350  12.935  0.00  0.00    +0.000 N 
ATOM     10  O   UNL     1      46.871   8.962  12.906  0.00  0.00    +0.000 OA
ATOM     11  H   UNL     1      43.697   9.040  12.820  0.00  0.00    +0.000 HD
ATOM     12  H   UNL     1      44.822  10.310  13.204  0.00  0.00    +0.000 HD
ENDBRANCH   4   8
BRANCH   1  13
ATOM     13  O   UNL     1      44.766   3.221  11.040  0.00  0.00    +0.000 OA
BRANCH  13  14
ATOM     14  C   UNL     1      44.281   3.197   9.692  0.00  0.00    +0.000 C 
BRANCH  14  21
ATOM     15  C   UNL     1      46.191   4.965   8.121  0.00  0.00    +0.000 C 
ATOM     16  C   UNL     1      46.241   3.464   8.052  0.00  0.00    +0.000 A 
ATOM     17  C   UNL     1      47.200   2.856   7.226  0.00  0.00    +0.000 A 
ATOM     18  C   UNL     1      47.284   1.467   7.119  0.00  0.00    +0.000 A 
ATOM     19  C   UNL     1      46.408   0.661   7.838  0.00  0.00    +0.000 A 
ATOM     20  C   UNL     1      45.453   1.247   8.664  0.00  0.00    +0.000 A 
ATOM     21  C   UNL     1      45.350   2.647   8.779  0.00  0.00    +0.000 A 
ENDBRANCH  14  21
ENDBRANCH  13  14
ENDBRANCH   1  13
TORSDOF 4
ENDMDL
MODEL 4
REMARK VINA RESULT:    -6.418      4.135      6.538
REMARK INTER + INTRA:          -8.551
REMARK INTER:                  -7.979
REMARK INTRA:                  -0.572
REMARK UNBOUND:                -0.633
REMARK  Name = 
REMARK  5 active torsions:
REMARK  status: ('A' for Active; 'I' for Inactive)
REMARK    1  A    between atoms: C_1  and  C_2
REMARK    2  A    between atoms: C_7  and  C_8
REMARK    3  A    between atoms: C_8  and  O_9
REMARK    4  A    between atoms: O_9  and  C_10
REMARK    5  A    between atoms: C_13  and  C_14
REMARK                            x       y       z     vdW  Elec       q    Type
REMARK                         _______ _______ _______ _____ _____    ______ ____
ROOT
ATOM      1  C   UNL     1      46.437   6.370  11.991  0.00  0.00    +0.000 A 
ATOM      2  C   UNL     1      47.258   7.465  12.276  0.00  0.00    +0.000 A 
ATOM      3  C   UNL     1      48.028   7.488  13.447  0.00  0.00    +0.000 A 
ATOM      4  C   UNL     1      47.969   6.418  14.351  0.00  0.00    +0.000 A 
ATOM      5  C   UNL     1      47.112   5.355  14.073  0.00  0.00    +0.000 A 
ATOM      6  F   UNL     1      47.005   4.306  14.906  0.00  0.00    +0.000 F 
ATOM      7  C   UNL     1      46.342   5.330  12.913  0.00  0.00    +0.000 A 
ENDROOT
BRANCH   4   8
ATOM      8  C   UNL     1      48.824   6.452  15.568  0.00  0.00    +0.000 C 
ATOM      9  N   UNL     1      48.207   6.456  16.786  0.00  0.00    +0.000 N 
ATOM     10  O   UNL     1      50.044   6.467  15.488  0.00  0.00    +0.000 OA
ATOM     11  H   UNL     1      47.199   6.441  16.900  0.00  0.00    +0.000 HD
ATOM     12  H   UNL     1      48.786   6.472  17.614  0.00  0.00    +0.000 HD
ENDBRANCH   4   8
BRANCH   1  13
ATOM     13  O   UNL     1      45.768   6.409  10.795  0.00  0.00    +0.000 OA
BRANCH  13  14
ATOM     14  C   UNL     1      44.642   5.528  10.706  0.00  0.00    +0.000 C 
BRANCH  14  21
ATOM     15  C   UNL     1      43.694   2.682  11.199  0.00  0.00    +0.000 C 
ATOM     16  C   UNL     1      44.527   3.059  10.005  0.00  0.00    +0.000 A 
ATOM     17  C   UNL     1      44.888   2.058   9.089  0.00  0.00    +0.000 A 
ATOM     18  C   UNL     1      45.667   2.351   7.969  0.00  0.00    +0.000 A 
ATOM     19  C   UNL     1      46.100   3.654   7.747  0.00  0.00    +0.000 A 
ATOM     20  C   UNL     1      45.750   4.659   8.644  0.00  0.00    +0.000 A 
ATOM     21  C   UNL     1      44.970   4.379   9.782  0.00  0.00    +0.000 A 
ENDBRANCH  14  21
ENDBRANCH  13  14
ENDBRANCH   1  13
TORSDOF 4
ENDMDL
MODEL 5
REMARK VINA RESULT:    -5.962      4.506      6.837
REMARK INTER + INTRA:          -7.990
REMARK INTER:                  -7.412
REMARK INTRA:                  -0.578
REMARK UNBOUND:                -0.633
REMARK  Name = 
REMARK  5 active torsions:
REMARK  status: ('A' for Active; 'I' for Inactive)
REMARK    1  A    between atoms: C_1  and  C_2
REMARK    2  A    between atoms: C_7  and  C_8
REMARK    3  A    between atoms: C_8  and  O_9
REMARK    4  A    between atoms: O_9  and  C_10
REMARK    5  A    between atoms: C_13  and  C_14
REMARK                            x       y       z     vdW  Elec       q    Type
REMARK                         _______ _______ _______ _____ _____    ______ ____
ROOT
ATOM      1  C   UNL     1      45.977   6.905  12.027  0.00  0.00    +0.000 A 
ATOM      2  C   UNL     1      47.371   6.941  11.927  0.00  0.00    +0.000 A 
ATOM      3  C   UNL     1      48.053   8.165  11.982  0.00  0.00    +0.000 A 
ATOM      4  C   UNL     1      47.341   9.364  12.125  0.00  0.00    +0.000 A 
ATOM      5  C   UNL     1      45.949   9.313  12.180  0.00  0.00    +0.000 A 
ATOM      6  F   UNL     1      45.212  10.428  12.305  0.00  0.00    +0.000 F 
ATOM      7  C   UNL     1      45.268   8.100  12.119  0.00  0.00    +0.000 A 
ENDROOT
BRANCH   4   8
ATOM      8  C   UNL     1      48.093  10.644  12.218  0.00  0.00    +0.000 C 
ATOM      9  N   UNL     1      48.108  11.293  13.420  0.00  0.00    +0.000 N 
ATOM     10  O   UNL     1      48.689  11.103  11.255  0.00  0.00    +0.000 OA
ATOM     11  H   UNL     1      47.631  10.948  14.246  0.00  0.00    +0.000 HD
ATOM     12  H   UNL     1      48.625  12.159  13.488  0.00  0.00    +0.000 HD
ENDBRANCH   4   8
BRANCH   1  13
ATOM     13  O   UNL     1      45.402   5.661  12.023  0.00  0.00    +0.000 OA
BRANCH  13  14
ATOM     14  C   UNL     1      44.347   5.487  11.069  0.00  0.00    +0.000 C 
BRANCH  14  21
ATOM     15  C   UNL     1      43.508   2.587  11.422  0.00  0.00    +0.000 C 
ATOM     16  C   UNL     1      44.330   3.051  10.251  0.00  0.00    +0.000 A 
ATOM     17  C   UNL     1      44.731   2.109   9.290  0.00  0.00    +0.000 A 
ATOM     18  C   UNL     1      45.501   2.486   8.189  0.00  0.00    +0.000 A 
ATOM     19  C   UNL     1      45.884   3.813   8.031  0.00  0.00    +0.000 A 
ATOM     20  C   UNL     1      45.493   4.760   8.973  0.00  0.00    +0.000 A 
ATOM     21  C   UNL     1      44.721   4.397  10.094  0.00  0.00    +0.000 A 
ENDBRANCH  14  21
ENDBRANCH  13  14
ENDBRANCH   1  13
TORSDOF 4
ENDMDL
MODEL 6
REMARK VINA RESULT:    -5.914      3.931      5.911
REMARK INTER + INTRA:          -7.930
REMARK INTER:                  -7.378
REMARK INTRA:                  -0.552
REMARK UNBOUND:                -0.633
REMARK  Name = 
REMARK  5 active torsions:
REMARK  status: ('A' for Active; 'I' for Inactive)
REMARK    1  A    between atoms: C_1  and  C_2
REMARK    2  A    between atoms: C_7  and  C_8
REMARK    3  A    between atoms: C_8  and  O_9
REMARK    4  A    between atoms: O_9  and  C_10
REMARK    5  A    between atoms: C_13  and  C_14
REMARK                            x       y       z     vdW  Elec       q    Type
REMARK                         _______ _______ _______ _____ _____    ______ ____
ROOT
ATOM      1  C   UNL     1      47.171   5.300  13.209  0.00  0.00    +0.000 A 
ATOM      2  C   UNL     1      46.878   6.313  12.291  0.00  0.00    +0.000 A 
ATOM      3  C   UNL     1      45.758   6.208  11.455  0.00  0.00    +0.000 A 
ATOM      4  C   UNL     1      44.930   5.080  11.522  0.00  0.00    +0.000 A 
ATOM      5  C   UNL     1      45.261   4.060  12.412  0.00  0.00    +0.000 A 
ATOM      6  F   UNL     1      44.512   2.950  12.514  0.00  0.00    +0.000 F 
ATOM      7  C   UNL     1      46.375   4.157  13.241  0.00  0.00    +0.000 A 
ENDROOT
BRANCH   4   8
ATOM      8  C   UNL     1      43.728   5.013  10.648  0.00  0.00    +0.000 C 
ATOM      9  N   UNL     1      43.859   4.428   9.421  0.00  0.00    +0.000 N 
ATOM     10  O   UNL     1      42.650   5.457  11.014  0.00  0.00    +0.000 OA
ATOM     11  H   UNL     1      44.732   4.043   9.077  0.00  0.00    +0.000 HD
ATOM     12  H   UNL     1      43.042   4.374   8.828  0.00  0.00    +0.000 HD
ENDBRANCH   4   8
BRANCH   1  13
ATOM     13  O   UNL     1      48.250   5.516  14.027  0.00  0.00    +0.000 OA
BRANCH  13  14
ATOM     14  C   UNL     1      47.939   6.112  15.292  0.00  0.00    +0.000 C 
BRANCH  14  21
ATOM     15  C   UNL     1      50.549   6.188  16.847  0.00  0.00    +0.000 C 
ATOM     16  C   UNL     1      49.471   5.178  17.130  0.00  0.00    +0.000 A 
ATOM     17  C   UNL     1      49.681   4.230  18.144  0.00  0.00    +0.000 A 
ATOM     18  C   UNL     1      48.717   3.266  18.441  0.00  0.00    +0.000 A 
ATOM     19  C   UNL     1      47.525   3.233  17.727  0.00  0.00    +0.000 A 
ATOM     20  C   UNL     1      47.299   4.167  16.720  0.00  0.00    +0.000 A 
ATOM     21  C   UNL     1      48.263   5.143  16.402  0.00  0.00    +0.000 A 
ENDBRANCH  14  21
ENDBRANCH  13  14
ENDBRANCH   1  13
TORSDOF 4
ENDMDL
MODEL 7
REMARK VINA RESULT:    -5.902      4.131      6.355
REMARK INTER + INTRA:          -7.915
REMARK INTER:                  -7.551
REMARK INTRA:                  -0.364
REMARK UNBOUND:                -0.633
REMARK  Name = 
REMARK  5 active torsions:
REMARK  status: ('A' for Active; 'I' for Inactive)
REMARK    1  A    between atoms: C_1  and  C_2
REMARK    2  A    between atoms: C_7  and  C_8
REMARK    3  A    between atoms: C_8  and  O_9
REMARK    4  A    between atoms: O_9  and  C_10
REMARK    5  A    between atoms: C_13  and  C_14
REMARK                            x       y       z     vdW  Elec       q    Type
REMARK                         _______ _______ _______ _____ _____    ______ ____
ROOT
ATOM      1  C   UNL     1      46.567   5.982  12.641  0.00  0.00    +0.000 A 
ATOM      2  C   UNL     1      47.011   6.839  11.629  0.00  0.00    +0.000 A 
ATOM      3  C   UNL     1      48.199   7.566  11.788  0.00  0.00    +0.000 A 
ATOM      4  C   UNL     1      48.945   7.450  12.969  0.00  0.00    +0.000 A 
ATOM      5  C   UNL     1      48.465   6.625  13.984  0.00  0.00    +0.000 A 
ATOM      6  F   UNL     1      49.130   6.482  15.142  0.00  0.00    +0.000 F 
ATOM      7  C   UNL     1      47.283   5.905  13.833  0.00  0.00    +0.000 A 
ENDROOT
BRANCH   4   8
ATOM      8  C   UNL     1      50.221   8.205  13.094  0.00  0.00    +0.000 C 
ATOM      9  N   UNL     1      51.254   7.861  12.270  0.00  0.00    +0.000 N 
ATOM     10  O   UNL     1      50.345   9.114  13.902  0.00  0.00    +0.000 OA
ATOM     11  H   UNL     1      51.195   7.117  11.584  0.00  0.00    +0.000 HD
ATOM     12  H   UNL     1      52.118   8.377  12.348  0.00  0.00    +0.000 HD
ENDBRANCH   4   8
BRANCH   1  13
ATOM     13  O   UNL     1      45.428   5.267  12.373  0.00  0.00    +0.000 OA
BRANCH  13  14
ATOM     14  C   UNL     1      44.758   5.631  11.161  0.00  0.00    +0.000 C 
BRANCH  14  21
ATOM     15  C   UNL     1      43.491   2.891  11.519  0.00  0.00    +0.000 C 
ATOM     16  C   UNL     1      44.311   3.248  10.310  0.00  0.00    +0.000 A 
ATOM     17  C   UNL     1      44.505   2.278   9.313  0.00  0.00    +0.000 A 
ATOM     18  C   UNL     1      45.264   2.555   8.175  0.00  0.00    +0.000 A 
ATOM     19  C   UNL     1      45.843   3.809   8.015  0.00  0.00    +0.000 A 
ATOM     20  C   UNL     1      45.658   4.783   8.992  0.00  0.00    +0.000 A 
ATOM     21  C   UNL     1      44.901   4.519  10.149  0.00  0.00    +0.000 A 
ENDBRANCH  14  21
ENDBRANCH  13  14
ENDBRANCH   1  13
TORSDOF 4
ENDMDL
MODEL 8
REMARK VINA RESULT:    -5.883      4.359      6.446
REMARK INTER + INTRA:          -7.892
REMARK INTER:                  -7.476
REMARK INTRA:                  -0.416
REMARK UNBOUND:                -0.633
REMARK  Name = 
REMARK  5 active torsions:
REMARK  status: ('A' for Active; 'I' for Inactive)
REMARK    1  A    between atoms: C_1  and  C_2
REMARK    2  A    between atoms: C_7  and  C_8
REMARK    3  A    between atoms: C_8  and  O_9
REMARK    4  A    between atoms: O_9  and  C_10
REMARK    5  A    between atoms: C_13  and  C_14
REMARK                            x       y       z     vdW  Elec       q    Type
REMARK                         _______ _______ _______ _____ _____    ______ ____
ROOT
ATOM      1  C   UNL     1      46.808   4.887  13.925  0.00  0.00    +0.000 A 
ATOM      2  C   UNL     1      46.574   3.571  13.516  0.00  0.00    +0.000 A 
ATOM      3  C   UNL     1      45.623   3.296  12.523  0.00  0.00    +0.000 A 
ATOM      4  C   UNL     1      44.888   4.339  11.942  0.00  0.00    +0.000 A 
ATOM      5  C   UNL     1      45.103   5.640  12.392  0.00  0.00    +0.000 A 
ATOM      6  F   UNL     1      44.423   6.678  11.880  0.00  0.00    +0.000 F 
ATOM      7  C   UNL     1      46.043   5.917  13.381  0.00  0.00    +0.000 A 
ENDROOT
BRANCH   4   8
ATOM      8  C   UNL     1      43.912   4.021  10.865  0.00  0.00    +0.000 C 
ATOM      9  N   UNL     1      44.083   4.618   9.648  0.00  0.00    +0.000 N 
ATOM     10  O   UNL     1      42.988   3.244  11.053  0.00  0.00    +0.000 OA
ATOM     11  H   UNL     1      44.837   5.266   9.446  0.00  0.00    +0.000 HD
ATOM     12  H   UNL     1      43.426   4.398   8.913  0.00  0.00    +0.000 HD
ENDBRANCH   4   8
BRANCH   1  13
ATOM     13  O   UNL     1      47.797   5.066  14.856  0.00  0.00    +0.000 OA
BRANCH  13  14
ATOM     14  C   UNL     1      47.534   4.478  16.136  0.00  0.00    +0.000 C 
BRANCH  14  21
ATOM     15  C   UNL     1      49.628   6.200  17.511  0.00  0.00    +0.000 C 
ATOM     16  C   UNL     1      49.785   4.712  17.352  0.00  0.00    +0.000 A 
ATOM     17  C   UNL     1      50.945   4.097  17.850  0.00  0.00    +0.000 A 
ATOM     18  C   UNL     1      51.144   2.722  17.721  0.00  0.00    +0.000 A 
ATOM     19  C   UNL     1      50.185   1.938  17.090  0.00  0.00    +0.000 A 
ATOM     20  C   UNL     1      49.028   2.531  16.593  0.00  0.00    +0.000 A 
ATOM     21  C   UNL     1      48.813   3.918  16.709  0.00  0.00    +0.000 A 
ENDBRANCH  14  21
ENDBRANCH  13  14
ENDBRANCH   1  13
TORSDOF 4
ENDMDL
MODEL 9
REMARK VINA RESULT:    -5.820      3.865      5.838
REMARK INTER + INTRA:          -7.813
REMARK INTER:                  -7.255
REMARK INTRA:                  -0.559
REMARK UNBOUND:                -0.633
REMARK  Name = 
REMARK  5 active torsions:
REMARK  status: ('A' for Active; 'I' for Inactive)
REMARK    1  A    between atoms: C_1  and  C_2
REMARK    2  A    between atoms: C_7  and  C_8
REMARK    3  A    between atoms: C_8  and  O_9
REMARK    4  A    between atoms: O_9  and  C_10
REMARK    5  A    between atoms: C_13  and  C_14
REMARK                            x       y       z     vdW  Elec       q    Type
REMARK                         _______ _______ _______ _____ _____    ______ ____
ROOT
ATOM      1  C   UNL     1      44.976   5.885  12.641  0.00  0.00    +0.000 A 
ATOM      2  C   UNL     1      45.998   5.038  13.077  0.00  0.00    +0.000 A 
ATOM      3  C   UNL     1      47.325   5.490  13.118  0.00  0.00    +0.000 A 
ATOM      4  C   UNL     1      47.638   6.793  12.707  0.00  0.00    +0.000 A 
ATOM      5  C   UNL     1      46.614   7.610  12.234  0.00  0.00    +0.000 A 
ATOM      6  F   UNL     1      46.854   8.864  11.817  0.00  0.00    +0.000 F 
ATOM      7  C   UNL     1      45.296   7.163  12.187  0.00  0.00    +0.000 A 
ENDROOT
BRANCH   4   8
ATOM      8  C   UNL     1      49.049   7.258  12.795  0.00  0.00    +0.000 C 
ATOM      9  N   UNL     1      49.688   7.142  13.996  0.00  0.00    +0.000 N 
ATOM     10  O   UNL     1      49.627   7.723  11.824  0.00  0.00    +0.000 OA
ATOM     11  H   UNL     1      49.250   6.760  14.827  0.00  0.00    +0.000 HD
ATOM     12  H   UNL     1      50.649   7.450  14.057  0.00  0.00    +0.000 HD
ENDBRANCH   4   8
BRANCH   1  13
ATOM     13  O   UNL     1      43.704   5.378  12.692  0.00  0.00    +0.000 OA
BRANCH  13  14
ATOM     14  C   UNL     1      43.027   5.317  11.431  0.00  0.00    +0.000 C 
BRANCH  14  21
ATOM     15  C   UNL     1      43.355   2.359  12.051  0.00  0.00    +0.000 C 
ATOM     16  C   UNL     1      43.898   2.985  10.796  0.00  0.00    +0.000 A 
ATOM     17  C   UNL     1      44.590   2.175   9.881  0.00  0.00    +0.000 A 
ATOM     18  C   UNL     1      45.121   2.707   8.705  0.00  0.00    +0.000 A 
ATOM     19  C   UNL     1      44.971   4.061   8.426  0.00  0.00    +0.000 A 
ATOM     20  C   UNL     1      44.286   4.877   9.321  0.00  0.00    +0.000 A 
ATOM     21  C   UNL     1      43.749   4.359  10.515  0.00  0.00    +0.000 A 
ENDBRANCH  14  21
ENDBRANCH  13  14
ENDBRANCH   1  13
TORSDOF 4
ENDMDL
