MODEL 1
REMARK VINA RESULT:    -7.977      0.000      0.000
REMARK INTER + INTRA:         -11.780
REMARK INTER:                 -10.775
REMARK INTRA:                  -1.005
REMARK UNBOUND:                -1.005
REMARK  Name = 
REMARK  6 active torsions:
REMARK  status: ('A' for Active; 'I' for Inactive)
REMARK    1  A    between atoms: C_2  and  C_25
REMARK    2  A    between atoms: N_3  and  C_4
REMARK    3  A    between atoms: C_4  and  C_5
REMARK    4  A    between atoms: C_8  and  C_9
REMARK    5  A    between atoms: C_9  and  N_10
REMARK    6  A    between atoms: C_11  and  C_13
REMARK                            x       y       z     vdW  Elec       q    Type
REMARK                         _______ _______ _______ _____ _____    ______ ____
ROOT
ATOM      1  C   UNL     1      45.160   6.386  11.190  0.00  0.00    +0.000 A 
ATOM      2  C   UNL     1      44.709   7.588  11.753  0.00  0.00    +0.000 A 
ATOM      3  C   UNL     1      45.495   8.280  12.683  0.00  0.00    +0.000 A 
ATOM      4  C   UNL     1      46.755   7.793  13.056  0.00  0.00    +0.000 A 
ATOM      5  C   UNL     1      47.196   6.583  12.505  0.00  0.00    +0.000 A 
ATOM      6  C   UNL     1      46.413   5.893  11.574  0.00  0.00    +0.000 A 
ENDROOT
BRANCH   1   7
ATOM      7  C   UNL     1      44.308   5.630  10.206  0.00  0.00    +0.000 C 
BRANCH   7  10
ATOM      8  O   UNL     1      43.908   2.917   9.891  0.00  0.00    +0.000 OA
ATOM      9  C   UNL     1      44.801   3.442   9.228  0.00  0.00    +0.000 C 
ATOM     10  N   UNL     1      45.077   4.791   9.321  0.00  0.00    +0.000 N 
ATOM     11  H   UNL     1      45.822   5.181   8.757  0.00  0.00    +0.000 HD
BRANCH   9  12
ATOM     12  C   UNL     1      45.625   2.698   8.297  0.00  0.00    +0.000 A 
ATOM     13  C   UNL     1      46.071   1.389   8.347  0.00  0.00    +0.000 A 
ATOM     14  C   UNL     1      46.844   1.178   7.181  0.00  0.00    +0.000 A 
ATOM     15  C   UNL     1      46.831   2.366   6.487  0.00  0.00    +0.000 A 
ATOM     16 CL   UNL     1      47.616   2.685   4.990  0.00  0.00    +0.000 Cl
ATOM     17  O   UNL     1      46.089   3.295   7.156  0.00  0.00    +0.000 OA
ENDBRANCH   9  12
ENDBRANCH   7  10
ENDBRANCH   1   7
BRANCH   4  18
ATOM     18  C   UNL     1      47.605   8.530  14.058  0.00  0.00    +0.000 C 
BRANCH  18  19
ATOM     19  N   UNL     1      47.915   7.699  15.193  0.00  0.00    +0.000 N 
ATOM     20  C   UNL     1      49.117   7.044  15.295  0.00  0.00    +0.000 C 
ATOM     21  O   UNL     1      50.001   7.175  14.453  0.00  0.00    +0.000 OA
ATOM     22  H   UNL     1      47.135   7.401  15.770  0.00  0.00    +0.000 HD
BRANCH  20  23
ATOM     23  C   UNL     1      49.318   6.224  16.498  0.00  0.00    +0.000 A 
ATOM     24  C   UNL     1      50.319   6.560  17.399  0.00  0.00    +0.000 A 
ATOM     25  S   UNL     1      50.381   5.543  18.768  0.00  0.00    +0.000 S 
ATOM     26  C   UNL     1      49.105   4.585  18.179  0.00  0.00    +0.000 A 
ATOM     27  N   UNL     1      48.666   3.503  18.877  0.00  0.00    +0.000 NA
ATOM     28  C   UNL     1      47.714   2.847  18.301  0.00  0.00    +0.000 A 
ATOM     29  N   UNL     1      47.161   3.178  17.091  0.00  0.00    +0.000 N 
ATOM     30  C   UNL     1      47.554   4.275  16.363  0.00  0.00    +0.000 A 
ATOM     31  O   UNL     1      47.012   4.562  15.301  0.00  0.00    +0.000 OA
ATOM     32  C   UNL     1      48.628   5.044  16.964  0.00  0.00    +0.000 A 
ATOM     33  H   UNL     1      46.414   2.625  16.696  0.00  0.00    +0.000 HD
ENDBRANCH  20  23
ENDBRANCH  18  19
ENDBRANCH   4  18
TORSDOF 6
ENDMDL
MODEL 2
REMARK VINA RESULT:    -7.488      1.918      2.316
REMARK INTER + INTRA:         -11.119
REMARK INTER:                 -10.126
REMARK INTRA:                  -0.993
REMARK UNBOUND:                -1.005
REMARK  Name = 
REMARK  6 active torsions:
REMARK  status: ('A' for Active; 'I' for Inactive)
REMARK    1  A    between atoms: C_2  and  C_25
REMARK    2  A    between atoms: N_3  and  C_4
REMARK    3  A    between atoms: C_4  and  C_5
REMARK    4  A    between atoms: C_8  and  C_9
REMARK    5  A    between atoms: C_9  and  N_10
REMARK    6  A    between atoms: C_11  and  C_13
REMARK                            x       y       z     vdW  Elec       q    Type
REMARK                         _______ _______ _______ _____ _____    ______ ____
ROOT
ATOM      1  C   UNL     1      44.830   5.016  11.932  0.00  0.00    +0.000 A 
ATOM      2  C   UNL     1      44.286   6.269  11.618  0.00  0.00    +0.000 A 
ATOM      3  C   UNL     1      44.900   7.446  12.063  0.00  0.00    +0.000 A 
ATOM      4  C   UNL     1      46.080   7.395  12.815  0.00  0.00    +0.000 A 
ATOM      5  C   UNL     1      46.614   6.142  13.143  0.00  0.00    +0.000 A 
ATOM      6  C   UNL     1      46.002   4.966  12.697  0.00  0.00    +0.000 A 
ENDROOT
BRANCH   1   7
ATOM      7  C   UNL     1      44.160   3.748  11.474  0.00  0.00    +0.000 C 
BRANCH   7  10
ATOM      8  O   UNL     1      44.184   4.241   8.759  0.00  0.00    +0.000 OA
ATOM      9  C   UNL     1      44.894   3.330   9.179  0.00  0.00    +0.000 C 
ATOM     10  N   UNL     1      44.945   3.007  10.519  0.00  0.00    +0.000 N 
ATOM     11  H   UNL     1      45.544   2.248  10.821  0.00  0.00    +0.000 HD
BRANCH   9  12
ATOM     12  C   UNL     1      45.735   2.530   8.311  0.00  0.00    +0.000 A 
ATOM     13  C   UNL     1      46.081   1.193   8.385  0.00  0.00    +0.000 A 
ATOM     14  C   UNL     1      46.927   0.929   7.283  0.00  0.00    +0.000 A 
ATOM     15  C   UNL     1      47.055   2.116   6.599  0.00  0.00    +0.000 A 
ATOM     16 CL   UNL     1      47.978   2.381   5.173  0.00  0.00    +0.000 Cl
ATOM     17  O   UNL     1      46.330   3.095   7.214  0.00  0.00    +0.000 OA
ENDBRANCH   9  12
ENDBRANCH   7  10
ENDBRANCH   1   7
BRANCH   4  18
ATOM     18  C   UNL     1      46.746   8.657  13.300  0.00  0.00    +0.000 C 
BRANCH  18  19
ATOM     19  N   UNL     1      47.195   8.522  14.662  0.00  0.00    +0.000 N 
ATOM     20  C   UNL     1      48.239   9.268  15.149  0.00  0.00    +0.000 C 
ATOM     21  O   UNL     1      48.804  10.118  14.467  0.00  0.00    +0.000 OA
ATOM     22  H   UNL     1      46.903   7.688  15.161  0.00  0.00    +0.000 HD
BRANCH  20  23
ATOM     23  C   UNL     1      48.607   9.043  16.554  0.00  0.00    +0.000 A 
ATOM     24  C   UNL     1      48.599  10.107  17.446  0.00  0.00    +0.000 A 
ATOM     25  S   UNL     1      48.994   9.665  19.046  0.00  0.00    +0.000 S 
ATOM     26  C   UNL     1      49.242   8.044  18.593  0.00  0.00    +0.000 A 
ATOM     27  N   UNL     1      49.629   7.115  19.509  0.00  0.00    +0.000 NA
ATOM     28  C   UNL     1      49.810   5.932  19.025  0.00  0.00    +0.000 A 
ATOM     29  N   UNL     1      49.636   5.594  17.707  0.00  0.00    +0.000 N 
ATOM     30  C   UNL     1      49.221   6.491  16.753  0.00  0.00    +0.000 A 
ATOM     31  O   UNL     1      49.040   6.145  15.591  0.00  0.00    +0.000 OA
ATOM     32  C   UNL     1      49.010   7.840  17.245  0.00  0.00    +0.000 A 
ATOM     33  H   UNL     1      49.790   4.647  17.393  0.00  0.00    +0.000 HD
ENDBRANCH  20  23
ENDBRANCH  18  19
ENDBRANCH   4  18
TORSDOF 6
ENDMDL
MODEL 3
REMARK VINA RESULT:    -7.371      1.900      2.093
REMARK INTER + INTRA:         -10.962
REMARK INTER:                 -10.053
REMARK INTRA:                  -0.908
REMARK UNBOUND:                -1.005
REMARK  Name = 
REMARK  6 active torsions:
REMARK  status: ('A' for Active; 'I' for Inactive)
REMARK    1  A    between atoms: C_2  and  C_25
REMARK    2  A    between atoms: N_3  and  C_4
REMARK    3  A    between atoms: C_4  and  C_5
REMARK    4  A    between atoms: C_8  and  C_9
REMARK    5  A    between atoms: C_9  and  N_10
REMARK    6  A    between atoms: C_11  and  C_13
REMARK                            x       y       z     vdW  Elec       q    Type
REMARK                         _______ _______ _______ _____ _____    ______ ____
ROOT
ATOM      1  C   UNL     1      45.741   6.573  12.280  0.00  0.00    +0.000 A 
ATOM      2  C   UNL     1      45.783   7.954  12.517  0.00  0.00    +0.000 A 
ATOM      3  C   UNL     1      46.695   8.494  13.431  0.00  0.00    +0.000 A 
ATOM      4  C   UNL     1      47.598   7.667  14.113  0.00  0.00    +0.000 A 
ATOM      5  C   UNL     1      47.543   6.285  13.888  0.00  0.00    +0.000 A 
ATOM      6  C   UNL     1      46.633   5.745  12.973  0.00  0.00    +0.000 A 
ENDROOT
BRANCH   1   7
ATOM      7  C   UNL     1      44.745   5.987  11.315  0.00  0.00    +0.000 C 
BRANCH   7  10
ATOM      8  O   UNL     1      43.652   3.640  10.361  0.00  0.00    +0.000 OA
ATOM      9  C   UNL     1      44.731   3.996   9.892  0.00  0.00    +0.000 C 
ATOM     10  N   UNL     1      45.357   5.154  10.309  0.00  0.00    +0.000 N 
ATOM     11  H   UNL     1      46.245   5.410   9.897  0.00  0.00    +0.000 HD
BRANCH   9  12
ATOM     12  C   UNL     1      45.426   3.244   8.868  0.00  0.00    +0.000 A 
ATOM     13  C   UNL     1      45.996   3.666   7.680  0.00  0.00    +0.000 A 
ATOM     14  C   UNL     1      46.542   2.517   7.060  0.00  0.00    +0.000 A 
ATOM     15  C   UNL     1      46.274   1.460   7.898  0.00  0.00    +0.000 A 
ATOM     16 CL   UNL     1      46.705  -0.185   7.639  0.00  0.00    +0.000 Cl
ATOM     17  O   UNL     1      45.599   1.892   9.002  0.00  0.00    +0.000 OA
ENDBRANCH   9  12
ENDBRANCH   7  10
ENDBRANCH   1   7
BRANCH   4  18
ATOM     18  C   UNL     1      48.582   8.240  15.100  0.00  0.00    +0.000 C 
BRANCH  18  19
ATOM     19  N   UNL     1      49.516   7.239  15.548  0.00  0.00    +0.000 N 
ATOM     20  C   UNL     1      49.584   6.863  16.867  0.00  0.00    +0.000 C 
ATOM     21  O   UNL     1      48.821   7.322  17.713  0.00  0.00    +0.000 OA
ATOM     22  H   UNL     1      50.288   7.021  14.928  0.00  0.00    +0.000 HD
BRANCH  20  23
ATOM     23  C   UNL     1      50.577   5.834  17.205  0.00  0.00    +0.000 A 
ATOM     24  C   UNL     1      51.857   6.213  17.587  0.00  0.00    +0.000 A 
ATOM     25  S   UNL     1      52.866   4.901  18.001  0.00  0.00    +0.000 S 
ATOM     26  C   UNL     1      51.645   3.776  17.634  0.00  0.00    +0.000 A 
ATOM     27  N   UNL     1      51.868   2.439  17.755  0.00  0.00    +0.000 NA
ATOM     28  C   UNL     1      50.867   1.699  17.413  0.00  0.00    +0.000 A 
ATOM     29  N   UNL     1      49.661   2.175  16.965  0.00  0.00    +0.000 N 
ATOM     30  C   UNL     1      49.382   3.516  16.852  0.00  0.00    +0.000 A 
ATOM     31  O   UNL     1      48.280   3.906  16.483  0.00  0.00    +0.000 OA
ATOM     32  C   UNL     1      50.478   4.393  17.217  0.00  0.00    +0.000 A 
ATOM     33  H   UNL     1      48.915   1.541  16.719  0.00  0.00    +0.000 HD
ENDBRANCH  20  23
ENDBRANCH  18  19
ENDBRANCH   4  18
TORSDOF 6
ENDMDL
MODEL 4
REMARK VINA RESULT:    -7.169      3.360      4.352
REMARK INTER + INTRA:         -10.688
REMARK INTER:                  -9.763
REMARK INTRA:                  -0.925
REMARK UNBOUND:                -1.005
REMARK  Name = 
REMARK  6 active torsions:
REMARK  status: ('A' for Active; 'I' for Inactive)
REMARK    1  A    between atoms: C_2  and  C_25
REMARK    2  A    between atoms: N_3  and  C_4
REMARK    3  A    between atoms: C_4  and  C_5
REMARK    4  A    between atoms: C_8  and  C_9
REMARK    5  A    between atoms: C_9  and  N_10
REMARK    6  A    between atoms: C_11  and  C_13
REMARK                            x       y       z     vdW  Elec       q    Type
REMARK                         _______ _______ _______ _____ _____    ______ ____
ROOT
ATOM      1  C   UNL     1      47.231   6.279  13.605  0.00  0.00    +0.000 A 
ATOM      2  C   UNL     1      48.172   6.905  14.433  0.00  0.00    +0.000 A 
ATOM      3  C   UNL     1      48.567   6.315  15.640  0.00  0.00    +0.000 A 
ATOM      4  C   UNL     1      48.042   5.077  16.034  0.00  0.00    +0.000 A 
ATOM      5  C   UNL     1      47.088   4.460  15.214  0.00  0.00    +0.000 A 
ATOM      6  C   UNL     1      46.696   5.048  14.007  0.00  0.00    +0.000 A 
ENDROOT
BRANCH   1   7
ATOM      7  C   UNL     1      46.789   6.921  12.317  0.00  0.00    +0.000 C 
BRANCH   7  10
ATOM      8  O   UNL     1      44.320   6.366  11.216  0.00  0.00    +0.000 OA
ATOM      9  C   UNL     1      45.292   5.761  10.768  0.00  0.00    +0.000 C 
ATOM     10  N   UNL     1      46.565   5.969  11.258  0.00  0.00    +0.000 N 
ATOM     11  H   UNL     1      47.338   5.448  10.860  0.00  0.00    +0.000 HD
BRANCH   9  12
ATOM     12  C   UNL     1      45.185   4.794   9.695  0.00  0.00    +0.000 A 
ATOM     13  C   UNL     1      44.312   3.733   9.531  0.00  0.00    +0.000 A 
ATOM     14  C   UNL     1      44.650   3.114   8.304  0.00  0.00    +0.000 A 
ATOM     15  C   UNL     1      45.710   3.825   7.790  0.00  0.00    +0.000 A 
ATOM     16 CL   UNL     1      46.532   3.510   6.313  0.00  0.00    +0.000 Cl
ATOM     17  O   UNL     1      46.040   4.851   8.627  0.00  0.00    +0.000 OA
ENDBRANCH   9  12
ENDBRANCH   7  10
ENDBRANCH   1   7
BRANCH   4  18
ATOM     18  C   UNL     1      48.459   4.436  17.333  0.00  0.00    +0.000 C 
BRANCH  18  19
ATOM     19  N   UNL     1      49.852   4.072  17.313  0.00  0.00    +0.000 N 
ATOM     20  C   UNL     1      50.641   4.197  18.429  0.00  0.00    +0.000 C 
ATOM     21  O   UNL     1      50.188   4.576  19.506  0.00  0.00    +0.000 OA
ATOM     22  H   UNL     1      50.290   3.978  16.402  0.00  0.00    +0.000 HD
BRANCH  20  23
ATOM     23  C   UNL     1      52.047   3.795  18.287  0.00  0.00    +0.000 A 
ATOM     24  C   UNL     1      53.055   4.716  18.541  0.00  0.00    +0.000 A 
ATOM     25  S   UNL     1      54.628   4.073  18.387  0.00  0.00    +0.000 S 
ATOM     26  C   UNL     1      54.019   2.554  17.924  0.00  0.00    +0.000 A 
ATOM     27  N   UNL     1      54.860   1.529  17.618  0.00  0.00    +0.000 NA
ATOM     28  C   UNL     1      54.265   0.443  17.252  0.00  0.00    +0.000 A 
ATOM     29  N   UNL     1      52.905   0.288  17.168  0.00  0.00    +0.000 N 
ATOM     30  C   UNL     1      52.018   1.286  17.491  0.00  0.00    +0.000 A 
ATOM     31  O   UNL     1      50.807   1.101  17.440  0.00  0.00    +0.000 OA
ATOM     32  C   UNL     1      52.636   2.533  17.903  0.00  0.00    +0.000 A 
ATOM     33  H   UNL     1      52.502  -0.591  16.879  0.00  0.00    +0.000 HD
ENDBRANCH  20  23
ENDBRANCH  18  19
ENDBRANCH   4  18
TORSDOF 6
ENDMDL
MODEL 5
REMARK VINA RESULT:    -6.920      4.709      8.640
REMARK INTER + INTRA:         -10.353
REMARK INTER:                  -9.260
REMARK INTRA:                  -1.093
REMARK UNBOUND:                -1.005
REMARK  Name = 
REMARK  6 active torsions:
REMARK  status: ('A' for Active; 'I' for Inactive)
REMARK    1  A    between atoms: C_2  and  C_25
REMARK    2  A    between atoms: N_3  and  C_4
REMARK    3  A    between atoms: C_4  and  C_5
REMARK    4  A    between atoms: C_8  and  C_9
REMARK    5  A    between atoms: C_9  and  N_10
REMARK    6  A    between atoms: C_11  and  C_13
REMARK                            x       y       z     vdW  Elec       q    Type
REMARK                         _______ _______ _______ _____ _____    ______ ____
ROOT
ATOM      1  C   UNL     1      49.798   4.620  17.608  0.00  0.00    +0.000 A 
ATOM      2  C   UNL     1      48.537   4.385  17.043  0.00  0.00    +0.000 A 
ATOM      3  C   UNL     1      48.037   5.224  16.040  0.00  0.00    +0.000 A 
ATOM      4  C   UNL     1      48.795   6.303  15.568  0.00  0.00    +0.000 A 
ATOM      5  C   UNL     1      50.048   6.546  16.145  0.00  0.00    +0.000 A 
ATOM      6  C   UNL     1      50.549   5.708  17.145  0.00  0.00    +0.000 A 
ENDROOT
BRANCH   1   7
ATOM      7  C   UNL     1      50.330   3.733  18.702  0.00  0.00    +0.000 C 
BRANCH   7  10
ATOM      8  O   UNL     1      50.754   1.416  17.265  0.00  0.00    +0.000 OA
ATOM      9  C   UNL     1      51.742   2.020  17.674  0.00  0.00    +0.000 C 
ATOM     10  N   UNL     1      51.630   3.186  18.405  0.00  0.00    +0.000 N 
ATOM     11  H   UNL     1      52.471   3.651  18.724  0.00  0.00    +0.000 HD
BRANCH   9  12
ATOM     12  C   UNL     1      53.096   1.569  17.422  0.00  0.00    +0.000 A 
ATOM     13  C   UNL     1      54.305   2.206  17.634  0.00  0.00    +0.000 A 
ATOM     14  C   UNL     1      55.316   1.313  17.209  0.00  0.00    +0.000 A 
ATOM     15  C   UNL     1      54.672   0.184  16.759  0.00  0.00    +0.000 A 
ATOM     16 CL   UNL     1      55.412  -1.231  16.120  0.00  0.00    +0.000 Cl
ATOM     17  O   UNL     1      53.321   0.328  16.887  0.00  0.00    +0.000 OA
ENDBRANCH   9  12
ENDBRANCH   7  10
ENDBRANCH   1   7
BRANCH   4  18
ATOM     18  C   UNL     1      48.263   7.212  14.490  0.00  0.00    +0.000 C 
BRANCH  18  19
ATOM     19  N   UNL     1      47.036   6.701  13.933  0.00  0.00    +0.000 N 
ATOM     20  C   UNL     1      46.732   6.862  12.604  0.00  0.00    +0.000 C 
ATOM     21  O   UNL     1      47.509   7.400  11.820  0.00  0.00    +0.000 OA
ATOM     22  H   UNL     1      46.298   6.464  14.587  0.00  0.00    +0.000 HD
BRANCH  20  23
ATOM     23  C   UNL     1      45.452   6.300  12.152  0.00  0.00    +0.000 A 
ATOM     24  C   UNL     1      44.486   7.138  11.609  0.00  0.00    +0.000 A 
ATOM     25  S   UNL     1      43.085   6.320  11.082  0.00  0.00    +0.000 S 
ATOM     26  C   UNL     1      43.697   4.822  11.608  0.00  0.00    +0.000 A 
ATOM     27  N   UNL     1      42.966   3.682  11.469  0.00  0.00    +0.000 NA
ATOM     28  C   UNL     1      43.537   2.623  11.939  0.00  0.00    +0.000 A 
ATOM     29  N   UNL     1      44.773   2.601  12.531  0.00  0.00    +0.000 N 
ATOM     30  C   UNL     1      45.557   3.721  12.668  0.00  0.00    +0.000 A 
ATOM     31  O   UNL     1      46.675   3.658  13.170  0.00  0.00    +0.000 OA
ATOM     32  C   UNL     1      44.959   4.942  12.163  0.00  0.00    +0.000 A 
ATOM     33  H   UNL     1      45.167   1.736  12.874  0.00  0.00    +0.000 HD
ENDBRANCH  20  23
ENDBRANCH  18  19
ENDBRANCH   4  18
TORSDOF 6
ENDMDL
MODEL 6
REMARK VINA RESULT:    -6.869      1.850      2.275
REMARK INTER + INTRA:         -10.283
REMARK INTER:                  -9.324
REMARK INTRA:                  -0.958
REMARK UNBOUND:                -1.005
REMARK  Name = 
REMARK  6 active torsions:
REMARK  status: ('A' for Active; 'I' for Inactive)
REMARK    1  A    between atoms: C_2  and  C_25
REMARK    2  A    between atoms: N_3  and  C_4
REMARK    3  A    between atoms: C_4  and  C_5
REMARK    4  A    between atoms: C_8  and  C_9
REMARK    5  A    between atoms: C_9  and  N_10
REMARK    6  A    between atoms: C_11  and  C_13
REMARK                            x       y       z     vdW  Elec       q    Type
REMARK                         _______ _______ _______ _____ _____    ______ ____
ROOT
ATOM      1  C   UNL     1      45.034   5.954  11.424  0.00  0.00    +0.000 A 
ATOM      2  C   UNL     1      45.461   5.368  12.623  0.00  0.00    +0.000 A 
ATOM      3  C   UNL     1      46.359   6.036  13.465  0.00  0.00    +0.000 A 
ATOM      4  C   UNL     1      46.833   7.312  13.133  0.00  0.00    +0.000 A 
ATOM      5  C   UNL     1      46.419   7.889  11.926  0.00  0.00    +0.000 A 
ATOM      6  C   UNL     1      45.521   7.223  11.086  0.00  0.00    +0.000 A 
ENDROOT
BRANCH   1   7
ATOM      7  C   UNL     1      44.086   5.229  10.506  0.00  0.00    +0.000 C 
BRANCH   7  10
ATOM      8  O   UNL     1      44.796   2.565  10.634  0.00  0.00    +0.000 OA
ATOM      9  C   UNL     1      45.071   3.178   9.605  0.00  0.00    +0.000 C 
ATOM     10  N   UNL     1      44.759   4.513   9.450  0.00  0.00    +0.000 N 
ATOM     11  H   UNL     1      45.004   4.980   8.585  0.00  0.00    +0.000 HD
BRANCH   9  12
ATOM     12  C   UNL     1      45.732   2.556   8.476  0.00  0.00    +0.000 A 
ATOM     13  C   UNL     1      46.109   1.240   8.275  0.00  0.00    +0.000 A 
ATOM     14  C   UNL     1      46.719   1.181   7.000  0.00  0.00    +0.000 A 
ATOM     15  C   UNL     1      46.684   2.461   6.495  0.00  0.00    +0.000 A 
ATOM     16 CL   UNL     1      47.294   2.976   4.972  0.00  0.00    +0.000 Cl
ATOM     17  O   UNL     1      46.082   3.303   7.383  0.00  0.00    +0.000 OA
ENDBRANCH   9  12
ENDBRANCH   7  10
ENDBRANCH   1   7
BRANCH   4  18
ATOM     18  C   UNL     1      47.802   8.037  14.032  0.00  0.00    +0.000 C 
BRANCH  18  19
ATOM     19  N   UNL     1      47.859   7.431  15.337  0.00  0.00    +0.000 N 
ATOM     20  C   UNL     1      48.979   6.764  15.768  0.00  0.00    +0.000 C 
ATOM     21  O   UNL     1      49.997   6.696  15.085  0.00  0.00    +0.000 OA
ATOM     22  H   UNL     1      46.976   7.279  15.812  0.00  0.00    +0.000 HD
BRANCH  20  23
ATOM     23  C   UNL     1      48.920   6.186  17.117  0.00  0.00    +0.000 A 
ATOM     24  C   UNL     1      49.336   4.877  17.324  0.00  0.00    +0.000 A 
ATOM     25  S   UNL     1      49.257   4.380  18.954  0.00  0.00    +0.000 S 
ATOM     26  C   UNL     1      48.614   5.880  19.435  0.00  0.00    +0.000 A 
ATOM     27  N   UNL     1      48.291   6.115  20.736  0.00  0.00    +0.000 NA
ATOM     28  C   UNL     1      47.784   7.282  20.956  0.00  0.00    +0.000 A 
ATOM     29  N   UNL     1      47.574   8.236  19.993  0.00  0.00    +0.000 N 
ATOM     30  C   UNL     1      47.909   8.052  18.673  0.00  0.00    +0.000 A 
ATOM     31  O   UNL     1      47.741   8.942  17.845  0.00  0.00    +0.000 OA
ATOM     32  C   UNL     1      48.477   6.752  18.370  0.00  0.00    +0.000 A 
ATOM     33  H   UNL     1      47.177   9.133  20.233  0.00  0.00    +0.000 HD
ENDBRANCH  20  23
ENDBRANCH  18  19
ENDBRANCH   4  18
TORSDOF 6
ENDMDL
MODEL 7
REMARK VINA RESULT:    -6.862      4.570      8.516
REMARK INTER + INTRA:         -10.274
REMARK INTER:                  -9.326
REMARK INTRA:                  -0.948
REMARK UNBOUND:                -1.005
REMARK  Name = 
REMARK  6 active torsions:
REMARK  status: ('A' for Active; 'I' for Inactive)
REMARK    1  A    between atoms: C_2  and  C_25
REMARK    2  A    between atoms: N_3  and  C_4
REMARK    3  A    between atoms: C_4  and  C_5
REMARK    4  A    between atoms: C_8  and  C_9
REMARK    5  A    between atoms: C_9  and  N_10
REMARK    6  A    between atoms: C_11  and  C_13
REMARK                            x       y       z     vdW  Elec       q    Type
REMARK                         _______ _______ _______ _____ _____    ______ ____
ROOT
ATOM      1  C   UNL     1      49.881   6.667  16.213  0.00  0.00    +0.000 A 
ATOM      2  C   UNL     1      50.610   7.526  15.380  0.00  0.00    +0.000 A 
ATOM      3  C   UNL     1      50.113   7.896  14.125  0.00  0.00    +0.000 A 
ATOM      4  C   UNL     1      48.868   7.430  13.684  0.00  0.00    +0.000 A 
ATOM      5  C   UNL     1      48.147   6.558  14.511  0.00  0.00    +0.000 A 
ATOM      6  C   UNL     1      48.643   6.190  15.766  0.00  0.00    +0.000 A 
ENDROOT
BRANCH   1   7
ATOM      7  C   UNL     1      50.423   6.249  17.554  0.00  0.00    +0.000 C 
BRANCH   7  10
ATOM      8  O   UNL     1      49.535   3.749  18.311  0.00  0.00    +0.000 OA
ATOM      9  C   UNL     1      50.686   3.840  17.891  0.00  0.00    +0.000 C 
ATOM     10  N   UNL     1      51.220   5.049  17.492  0.00  0.00    +0.000 N 
ATOM     11  H   UNL     1      52.174   5.079  17.153  0.00  0.00    +0.000 HD
BRANCH   9  12
ATOM     12  C   UNL     1      51.570   2.698  17.773  0.00  0.00    +0.000 A 
ATOM     13  C   UNL     1      51.300   1.394  17.399  0.00  0.00    +0.000 A 
ATOM     14  C   UNL     1      52.527   0.691  17.457  0.00  0.00    +0.000 A 
ATOM     15  C   UNL     1      53.475   1.601  17.866  0.00  0.00    +0.000 A 
ATOM     16 CL   UNL     1      55.149   1.292  18.113  0.00  0.00    +0.000 Cl
ATOM     17  O   UNL     1      52.904   2.825  18.057  0.00  0.00    +0.000 OA
ENDBRANCH   9  12
ENDBRANCH   7  10
ENDBRANCH   1   7
BRANCH   4  18
ATOM     18  C   UNL     1      48.326   7.822  12.334  0.00  0.00    +0.000 C 
BRANCH  18  19
ATOM     19  N   UNL     1      47.595   6.738  11.729  0.00  0.00    +0.000 N 
ATOM     20  C   UNL     1      46.266   6.861  11.410  0.00  0.00    +0.000 C 
ATOM     21  O   UNL     1      45.652   7.912  11.577  0.00  0.00    +0.000 OA
ATOM     22  H   UNL     1      48.008   5.814  11.792  0.00  0.00    +0.000 HD
BRANCH  20  23
ATOM     23  C   UNL     1      45.626   5.689  10.798  0.00  0.00    +0.000 A 
ATOM     24  C   UNL     1      45.747   5.474   9.431  0.00  0.00    +0.000 A 
ATOM     25  S   UNL     1      44.996   4.041   8.892  0.00  0.00    +0.000 S 
ATOM     26  C   UNL     1      44.437   3.681  10.458  0.00  0.00    +0.000 A 
ATOM     27  N   UNL     1      43.688   2.570  10.693  0.00  0.00    +0.000 NA
ATOM     28  C   UNL     1      43.304   2.436  11.919  0.00  0.00    +0.000 A 
ATOM     29  N   UNL     1      43.605   3.311  12.931  0.00  0.00    +0.000 N 
ATOM     30  C   UNL     1      44.380   4.431  12.745  0.00  0.00    +0.000 A 
ATOM     31  O   UNL     1      44.660   5.172  13.681  0.00  0.00    +0.000 OA
ATOM     32  C   UNL     1      44.831   4.633  11.382  0.00  0.00    +0.000 A 
ATOM     33  H   UNL     1      43.278   3.145  13.871  0.00  0.00    +0.000 HD
ENDBRANCH  20  23
ENDBRANCH  18  19
ENDBRANCH   4  18
TORSDOF 6
ENDMDL
MODEL 8
REMARK VINA RESULT:    -6.660      1.584      2.231
REMARK INTER + INTRA:         -10.001
REMARK INTER:                  -9.001
REMARK INTRA:                  -1.000
REMARK UNBOUND:                -1.005
REMARK  Name = 
REMARK  6 active torsions:
REMARK  status: ('A' for Active; 'I' for Inactive)
REMARK    1  A    between atoms: C_2  and  C_25
REMARK    2  A    between atoms: N_3  and  C_4
REMARK    3  A    between atoms: C_4  and  C_5
REMARK    4  A    between atoms: C_8  and  C_9
REMARK    5  A    between atoms: C_9  and  N_10
REMARK    6  A    between atoms: C_11  and  C_13
REMARK                            x       y       z     vdW  Elec       q    Type
REMARK                         _______ _______ _______ _____ _____    ______ ____
ROOT
ATOM      1  C   UNL     1      46.301   7.637  12.163  0.00  0.00    +0.000 A 
ATOM      2  C   UNL     1      47.512   7.031  11.802  0.00  0.00    +0.000 A 
ATOM      3  C   UNL     1      48.696   7.339  12.482  0.00  0.00    +0.000 A 
ATOM      4  C   UNL     1      48.691   8.244  13.551  0.00  0.00    +0.000 A 
ATOM      5  C   UNL     1      47.483   8.862  13.901  0.00  0.00    +0.000 A 
ATOM      6  C   UNL     1      46.300   8.554  13.222  0.00  0.00    +0.000 A 
ENDROOT
BRANCH   1   7
ATOM      7  C   UNL     1      45.031   7.326  11.419  0.00  0.00    +0.000 C 
BRANCH   7  10
ATOM      8  O   UNL     1      44.207   4.718  11.786  0.00  0.00    +0.000 OA
ATOM      9  C   UNL     1      44.742   5.000  10.717  0.00  0.00    +0.000 C 
ATOM     10  N   UNL     1      45.190   6.276  10.443  0.00  0.00    +0.000 N 
ATOM     11  H   UNL     1      45.627   6.465   9.549  0.00  0.00    +0.000 HD
BRANCH   9  12
ATOM     12  C   UNL     1      44.940   4.028   9.661  0.00  0.00    +0.000 A 
ATOM     13  C   UNL     1      44.551   2.703   9.580  0.00  0.00    +0.000 A 
ATOM     14  C   UNL     1      45.004   2.221   8.329  0.00  0.00    +0.000 A 
ATOM     15  C   UNL     1      45.646   3.273   7.718  0.00  0.00    +0.000 A 
ATOM     16 CL   UNL     1      46.398   3.252   6.172  0.00  0.00    +0.000 Cl
ATOM     17  O   UNL     1      45.609   4.378   8.517  0.00  0.00    +0.000 OA
ENDBRANCH   9  12
ENDBRANCH   7  10
ENDBRANCH   1   7
BRANCH   4  18
ATOM     18  C   UNL     1      49.961   8.582  14.288  0.00  0.00    +0.000 C 
BRANCH  18  19
ATOM     19  N   UNL     1      49.973   8.001  15.605  0.00  0.00    +0.000 N 
ATOM     20  C   UNL     1      51.087   7.369  16.099  0.00  0.00    +0.000 C 
ATOM     21  O   UNL     1      52.138   7.315  15.465  0.00  0.00    +0.000 OA
ATOM     22  H   UNL     1      49.073   7.836  16.043  0.00  0.00    +0.000 HD
BRANCH  20  23
ATOM     23  C   UNL     1      50.980   6.814  17.455  0.00  0.00    +0.000 A 
ATOM     24  C   UNL     1      51.860   7.236  18.443  0.00  0.00    +0.000 A 
ATOM     25  S   UNL     1      51.563   6.538  19.971  0.00  0.00    +0.000 S 
ATOM     26  C   UNL     1      50.280   5.606  19.356  0.00  0.00    +0.000 A 
ATOM     27  N   UNL     1      49.591   4.751  20.159  0.00  0.00    +0.000 NA
ATOM     28  C   UNL     1      48.664   4.084  19.556  0.00  0.00    +0.000 A 
ATOM     29  N   UNL     1      48.362   4.198  18.223  0.00  0.00    +0.000 N 
ATOM     30  C   UNL     1      49.012   5.067  17.381  0.00  0.00    +0.000 A 
ATOM     31  O   UNL     1      48.691   5.169  16.202  0.00  0.00    +0.000 OA
ATOM     32  C   UNL     1      50.070   5.836  18.008  0.00  0.00    +0.000 A 
ATOM     33  H   UNL     1      47.620   3.650  17.813  0.00  0.00    +0.000 HD
ENDBRANCH  20  23
ENDBRANCH  18  19
ENDBRANCH   4  18
TORSDOF 6
ENDMDL
MODEL 9
REMARK VINA RESULT:    -6.533      3.958      8.679
REMARK INTER + INTRA:          -9.829
REMARK INTER:                  -8.870
REMARK INTRA:                  -0.958
REMARK UNBOUND:                -1.005
REMARK  Name = 
REMARK  6 active torsions:
REMARK  status: ('A' for Active; 'I' for Inactive)
REMARK    1  A    between atoms: C_2  and  C_25
REMARK    2  A    between atoms: N_3  and  C_4
REMARK    3  A    between atoms: C_4  and  C_5
REMARK    4  A    between atoms: C_8  and  C_9
REMARK    5  A    between atoms: C_9  and  N_10
REMARK    6  A    between atoms: C_11  and  C_13
REMARK                            x       y       z     vdW  Elec       q    Type
REMARK                         _______ _______ _______ _____ _____    ______ ____
ROOT
ATOM      1  C   UNL     1      49.521   8.220  15.450  0.00  0.00    +0.000 A 
ATOM      2  C   UNL     1      48.286   8.876  15.358  0.00  0.00    +0.000 A 
ATOM      3  C   UNL     1      47.547   8.845  14.170  0.00  0.00    +0.000 A 
ATOM      4  C   UNL     1      48.019   8.141  13.054  0.00  0.00    +0.000 A 
ATOM      5  C   UNL     1      49.261   7.499  13.141  0.00  0.00    +0.000 A 
ATOM      6  C   UNL     1      49.999   7.529  14.329  0.00  0.00    +0.000 A 
ENDROOT
BRANCH   1   7
ATOM      7  C   UNL     1      50.329   8.270  16.719  0.00  0.00    +0.000 C 
BRANCH   7  10
ATOM      8  O   UNL     1      49.287   6.099  18.066  0.00  0.00    +0.000 OA
ATOM      9  C   UNL     1      50.443   6.014  17.659  0.00  0.00    +0.000 C 
ATOM     10  N   UNL     1      51.051   7.050  16.979  0.00  0.00    +0.000 N 
ATOM     11  H   UNL     1      52.006   6.938  16.662  0.00  0.00    +0.000 HD
BRANCH   9  12
ATOM     12  C   UNL     1      51.256   4.830  17.851  0.00  0.00    +0.000 A 
ATOM     13  C   UNL     1      52.496   4.684  18.446  0.00  0.00    +0.000 A 
ATOM     14  C   UNL     1      52.829   3.311  18.361  0.00  0.00    +0.000 A 
ATOM     15  C   UNL     1      51.779   2.697  17.718  0.00  0.00    +0.000 A 
ATOM     16 CL   UNL     1      51.650   1.025  17.340  0.00  0.00    +0.000 Cl
ATOM     17  O   UNL     1      50.816   3.612  17.408  0.00  0.00    +0.000 OA
ENDBRANCH   9  12
ENDBRANCH   7  10
ENDBRANCH   1   7
BRANCH   4  18
ATOM     18  C   UNL     1      47.231   8.104  11.770  0.00  0.00    +0.000 C 
BRANCH  18  19
ATOM     19  N   UNL     1      46.609   6.820  11.574  0.00  0.00    +0.000 N 
ATOM     20  C   UNL     1      45.244   6.685  11.527  0.00  0.00    +0.000 C 
ATOM     21  O   UNL     1      44.493   7.654  11.597  0.00  0.00    +0.000 OA
ATOM     22  H   UNL     1      47.184   6.001  11.740  0.00  0.00    +0.000 HD
BRANCH  20  23
ATOM     23  C   UNL     1      44.725   5.325  11.323  0.00  0.00    +0.000 A 
ATOM     24  C   UNL     1      43.951   4.729  12.311  0.00  0.00    +0.000 A 
ATOM     25  S   UNL     1      43.382   3.176  11.894  0.00  0.00    +0.000 S 
ATOM     26  C   UNL     1      44.194   3.222  10.399  0.00  0.00    +0.000 A 
ATOM     27  N   UNL     1      44.136   2.167   9.542  0.00  0.00    +0.000 NA
ATOM     28  C   UNL     1      44.822   2.323   8.459  0.00  0.00    +0.000 A 
ATOM     29  N   UNL     1      45.558   3.439   8.156  0.00  0.00    +0.000 N 
ATOM     30  C   UNL     1      45.625   4.538   8.978  0.00  0.00    +0.000 A 
ATOM     31  O   UNL     1      46.263   5.535   8.658  0.00  0.00    +0.000 OA
ATOM     32  C   UNL     1      44.875   4.412  10.214  0.00  0.00    +0.000 A 
ATOM     33  H   UNL     1      46.070   3.501   7.287  0.00  0.00    +0.000 HD
ENDBRANCH  20  23
ENDBRANCH  18  19
ENDBRANCH   4  18
TORSDOF 6
ENDMDL
