MODEL 1
REMARK VINA RESULT:    -8.715      0.000      0.000
REMARK INTER + INTRA:         -11.606
REMARK INTER:                 -11.262
REMARK INTRA:                  -0.344
REMARK UNBOUND:                -0.344
REMARK  Name = 
REMARK  6 active torsions:
REMARK  status: ('A' for Active; 'I' for Inactive)
REMARK    1  A    between atoms: C_1  and  C_2
REMARK    2  A    between atoms: C_6  and  C_7
REMARK    3  A    between atoms: C_7  and  C_8
REMARK    4  A    between atoms: C_11  and  C_12
REMARK    5  A    between atoms: C_12  and  N_13
REMARK    6  A    between atoms: C_14  and  C_16
REMARK                            x       y       z     vdW  Elec       q    Type
REMARK                         _______ _______ _______ _____ _____    ______ ____
ROOT
ATOM      1  C   UNL     1      46.595   7.874  13.072  0.00  0.00    +0.000 C 
ENDROOT
BRANCH   1   5
ATOM      2  C   UNL     1      44.894   4.640  10.754  0.00  0.00    +0.000 A 
ATOM      3  C   UNL     1      45.797   5.537  10.166  0.00  0.00    +0.000 A 
ATOM      4  C   UNL     1      46.335   6.594  10.907  0.00  0.00    +0.000 A 
ATOM      5  C   UNL     1      45.973   6.779  12.247  0.00  0.00    +0.000 A 
ATOM      6  C   UNL     1      45.013   5.927  12.810  0.00  0.00    +0.000 A 
ATOM      7  C   UNL     1      44.489   4.860  12.075  0.00  0.00    +0.000 A 
BRANCH   2   8
ATOM      8  C   UNL     1      44.402   3.429   9.990  0.00  0.00    +0.000 C 
BRANCH   8  14
ATOM      9  C   UNL     1      46.775  -0.182   7.724  0.00  0.00    +0.000 C 
ATOM     10  C   UNL     1      46.392   1.267   7.736  0.00  0.00    +0.000 A 
ATOM     11  C   UNL     1      46.804   2.118   6.718  0.00  0.00    +0.000 A 
ATOM     12  C   UNL     1      46.447   3.458   6.785  0.00  0.00    +0.000 A 
ATOM     13  C   UNL     1      45.684   3.908   7.857  0.00  0.00    +0.000 A 
ATOM     14  C   UNL     1      45.293   3.001   8.840  0.00  0.00    +0.000 A 
ATOM     15  N   UNL     1      45.641   1.689   8.784  0.00  0.00    +0.000 NA
ENDBRANCH   8  14
ENDBRANCH   2   8
ENDBRANCH   1   5
BRANCH   1  16
ATOM     16  N   UNL     1      47.134   7.368  14.307  0.00  0.00    +0.000 N 
ATOM     17  C   UNL     1      48.352   6.738  14.337  0.00  0.00    +0.000 C 
ATOM     18  O   UNL     1      49.055   6.629  13.336  0.00  0.00    +0.000 OA
ATOM     19  H   UNL     1      46.483   7.237  15.075  0.00  0.00    +0.000 HD
BRANCH  17  20
ATOM     20  C   UNL     1      48.806   6.251  15.646  0.00  0.00    +0.000 A 
ATOM     21  C   UNL     1      49.807   6.934  16.324  0.00  0.00    +0.000 A 
ATOM     22  S   UNL     1      50.196   6.252  17.838  0.00  0.00    +0.000 S 
ATOM     23  C   UNL     1      49.072   4.993  17.622  0.00  0.00    +0.000 A 
ATOM     24  N   UNL     1      48.923   4.019  18.558  0.00  0.00    +0.000 NA
ATOM     25  C   UNL     1      48.056   3.113  18.253  0.00  0.00    +0.000 A 
ATOM     26  N   UNL     1      47.316   3.097  17.098  0.00  0.00    +0.000 N 
ATOM     27  C   UNL     1      47.414   4.074  16.137  0.00  0.00    +0.000 A 
ATOM     28  O   UNL     1      46.702   4.055  15.135  0.00  0.00    +0.000 OA
ATOM     29  C   UNL     1      48.390   5.105  16.421  0.00  0.00    +0.000 A 
ATOM     30  H   UNL     1      46.641   2.367  16.927  0.00  0.00    +0.000 HD
ENDBRANCH  17  20
ENDBRANCH   1  16
TORSDOF 5
ENDMDL
MODEL 2
REMARK VINA RESULT:    -8.182      2.222      3.805
REMARK INTER + INTRA:         -10.917
REMARK INTER:                  -9.823
REMARK INTRA:                  -1.094
REMARK UNBOUND:                -0.344
REMARK  Name = 
REMARK  6 active torsions:
REMARK  status: ('A' for Active; 'I' for Inactive)
REMARK    1  A    between atoms: C_1  and  C_2
REMARK    2  A    between atoms: C_6  and  C_7
REMARK    3  A    between atoms: C_7  and  C_8
REMARK    4  A    between atoms: C_11  and  C_12
REMARK    5  A    between atoms: C_12  and  N_13
REMARK    6  A    between atoms: C_14  and  C_16
REMARK                            x       y       z     vdW  Elec       q    Type
REMARK                         _______ _______ _______ _____ _____    ______ ____
ROOT
ATOM      1  C   UNL     1      46.612   5.029  14.358  0.00  0.00    +0.000 C 
ENDROOT
BRANCH   1   5
ATOM      2  C   UNL     1      45.004   4.246  10.417  0.00  0.00    +0.000 A 
ATOM      3  C   UNL     1      45.562   5.496  10.721  0.00  0.00    +0.000 A 
ATOM      4  C   UNL     1      46.066   5.759  11.999  0.00  0.00    +0.000 A 
ATOM      5  C   UNL     1      46.013   4.779  12.998  0.00  0.00    +0.000 A 
ATOM      6  C   UNL     1      45.387   3.559  12.714  0.00  0.00    +0.000 A 
ATOM      7  C   UNL     1      44.899   3.289  11.433  0.00  0.00    +0.000 A 
BRANCH   2   8
ATOM      8  C   UNL     1      44.565   3.920   9.005  0.00  0.00    +0.000 C 
BRANCH   8  14
ATOM      9  C   UNL     1      46.731  -0.248   7.686  0.00  0.00    +0.000 C 
ATOM     10  C   UNL     1      46.623   1.235   7.498  0.00  0.00    +0.000 A 
ATOM     11  C   UNL     1      47.417   1.892   6.565  0.00  0.00    +0.000 A 
ATOM     12  C   UNL     1      47.301   3.271   6.446  0.00  0.00    +0.000 A 
ATOM     13  C   UNL     1      46.393   3.951   7.249  0.00  0.00    +0.000 A 
ATOM     14  C   UNL     1      45.618   3.232   8.158  0.00  0.00    +0.000 A 
ATOM     15  N   UNL     1      45.728   1.884   8.285  0.00  0.00    +0.000 NA
ENDBRANCH   8  14
ENDBRANCH   2   8
ENDBRANCH   1   5
BRANCH   1  16
ATOM     16  N   UNL     1      47.381   6.245  14.385  0.00  0.00    +0.000 N 
ATOM     17  C   UNL     1      48.484   6.361  15.193  0.00  0.00    +0.000 C 
ATOM     18  O   UNL     1      48.893   5.428  15.877  0.00  0.00    +0.000 OA
ATOM     19  H   UNL     1      46.934   7.081  14.022  0.00  0.00    +0.000 HD
BRANCH  17  20
ATOM     20  C   UNL     1      49.192   7.647  15.152  0.00  0.00    +0.000 A 
ATOM     21  C   UNL     1      49.359   8.376  16.323  0.00  0.00    +0.000 A 
ATOM     22  S   UNL     1      50.225   9.829  16.106  0.00  0.00    +0.000 S 
ATOM     23  C   UNL     1      50.369   9.558  14.432  0.00  0.00    +0.000 A 
ATOM     24  N   UNL     1      50.989  10.462  13.628  0.00  0.00    +0.000 NA
ATOM     25  C   UNL     1      51.001  10.143  12.377  0.00  0.00    +0.000 A 
ATOM     26  N   UNL     1      50.458   8.996  11.858  0.00  0.00    +0.000 N 
ATOM     27  C   UNL     1      49.846   8.043  12.636  0.00  0.00    +0.000 A 
ATOM     28  O   UNL     1      49.411   7.004  12.145  0.00  0.00    +0.000 OA
ATOM     29  C   UNL     1      49.786   8.362  14.047  0.00  0.00    +0.000 A 
ATOM     30  H   UNL     1      50.516   8.797  10.871  0.00  0.00    +0.000 HD
ENDBRANCH  17  20
ENDBRANCH   1  16
TORSDOF 5
ENDMDL
MODEL 3
REMARK VINA RESULT:    -7.513      2.404      3.119
REMARK INTER + INTRA:         -10.052
REMARK INTER:                  -9.155
REMARK INTRA:                  -0.897
REMARK UNBOUND:                -0.344
REMARK  Name = 
REMARK  6 active torsions:
REMARK  status: ('A' for Active; 'I' for Inactive)
REMARK    1  A    between atoms: C_1  and  C_2
REMARK    2  A    between atoms: C_6  and  C_7
REMARK    3  A    between atoms: C_7  and  C_8
REMARK    4  A    between atoms: C_11  and  C_12
REMARK    5  A    between atoms: C_12  and  N_13
REMARK    6  A    between atoms: C_14  and  C_16
REMARK                            x       y       z     vdW  Elec       q    Type
REMARK                         _______ _______ _______ _____ _____    ______ ____
ROOT
ATOM      1  C   UNL     1      48.815   7.127  14.262  0.00  0.00    +0.000 C 
ENDROOT
BRANCH   1   5
ATOM      2  C   UNL     1      45.688   5.601  11.689  0.00  0.00    +0.000 A 
ATOM      3  C   UNL     1      45.973   4.973  12.910  0.00  0.00    +0.000 A 
ATOM      4  C   UNL     1      46.995   5.452  13.735  0.00  0.00    +0.000 A 
ATOM      5  C   UNL     1      47.757   6.563  13.351  0.00  0.00    +0.000 A 
ATOM      6  C   UNL     1      47.520   7.142  12.097  0.00  0.00    +0.000 A 
ATOM      7  C   UNL     1      46.487   6.675  11.280  0.00  0.00    +0.000 A 
BRANCH   2   8
ATOM      8  C   UNL     1      44.508   5.157  10.850  0.00  0.00    +0.000 C 
BRANCH   8  14
ATOM      9  C   UNL     1      46.745   3.773   6.740  0.00  0.00    +0.000 C 
ATOM     10  C   UNL     1      45.918   3.375   7.925  0.00  0.00    +0.000 A 
ATOM     11  C   UNL     1      45.519   2.055   8.102  0.00  0.00    +0.000 A 
ATOM     12  C   UNL     1      44.731   1.739   9.201  0.00  0.00    +0.000 A 
ATOM     13  C   UNL     1      44.373   2.742  10.094  0.00  0.00    +0.000 A 
ATOM     14  C   UNL     1      44.814   4.044   9.866  0.00  0.00    +0.000 A 
ATOM     15  N   UNL     1      45.582   4.363   8.792  0.00  0.00    +0.000 NA
ENDBRANCH   8  14
ENDBRANCH   2   8
ENDBRANCH   1   5
BRANCH   1  16
ATOM     16  N   UNL     1      48.312   7.342  15.593  0.00  0.00    +0.000 N 
ATOM     17  C   UNL     1      49.059   8.011  16.528  0.00  0.00    +0.000 C 
ATOM     18  O   UNL     1      50.152   8.502  16.260  0.00  0.00    +0.000 OA
ATOM     19  H   UNL     1      47.541   6.754  15.894  0.00  0.00    +0.000 HD
BRANCH  17  20
ATOM     20  C   UNL     1      48.458   8.168  17.858  0.00  0.00    +0.000 A 
ATOM     21  C   UNL     1      48.097   9.432  18.304  0.00  0.00    +0.000 A 
ATOM     22  S   UNL     1      47.389   9.434  19.856  0.00  0.00    +0.000 S 
ATOM     23  C   UNL     1      47.580   7.750  20.006  0.00  0.00    +0.000 A 
ATOM     24  N   UNL     1      47.200   7.101  21.138  0.00  0.00    +0.000 NA
ATOM     25  C   UNL     1      47.428   5.830  21.126  0.00  0.00    +0.000 A 
ATOM     26  N   UNL     1      47.994   5.148  20.080  0.00  0.00    +0.000 N 
ATOM     27  C   UNL     1      48.368   5.758  18.908  0.00  0.00    +0.000 A 
ATOM     28  O   UNL     1      48.830   5.109  17.971  0.00  0.00    +0.000 OA
ATOM     29  C   UNL     1      48.154   7.189  18.876  0.00  0.00    +0.000 A 
ATOM     30  H   UNL     1      48.130   4.149  20.127  0.00  0.00    +0.000 HD
ENDBRANCH  17  20
ENDBRANCH   1  16
TORSDOF 5
ENDMDL
MODEL 4
REMARK VINA RESULT:    -7.310      4.832      7.460
REMARK INTER + INTRA:          -9.790
REMARK INTER:                  -8.862
REMARK INTRA:                  -0.928
REMARK UNBOUND:                -0.344
REMARK  Name = 
REMARK  6 active torsions:
REMARK  status: ('A' for Active; 'I' for Inactive)
REMARK    1  A    between atoms: C_1  and  C_2
REMARK    2  A    between atoms: C_6  and  C_7
REMARK    3  A    between atoms: C_7  and  C_8
REMARK    4  A    between atoms: C_11  and  C_12
REMARK    5  A    between atoms: C_12  and  N_13
REMARK    6  A    between atoms: C_14  and  C_16
REMARK                            x       y       z     vdW  Elec       q    Type
REMARK                         _______ _______ _______ _____ _____    ______ ____
ROOT
ATOM      1  C   UNL     1      46.808   8.381  12.426  0.00  0.00    +0.000 C 
ENDROOT
BRANCH   1   5
ATOM      2  C   UNL     1      50.938   8.723  11.178  0.00  0.00    +0.000 A 
ATOM      3  C   UNL     1      50.118   9.859  11.241  0.00  0.00    +0.000 A 
ATOM      4  C   UNL     1      48.778   9.750  11.626  0.00  0.00    +0.000 A 
ATOM      5  C   UNL     1      48.231   8.502  11.947  0.00  0.00    +0.000 A 
ATOM      6  C   UNL     1      49.030   7.359  11.811  0.00  0.00    +0.000 A 
ATOM      7  C   UNL     1      50.374   7.469  11.443  0.00  0.00    +0.000 A 
BRANCH   2   8
ATOM      8  C   UNL     1      52.415   8.854  10.875  0.00  0.00    +0.000 C 
BRANCH   8  14
ATOM      9  C   UNL     1      55.121   4.797  10.710  0.00  0.00    +0.000 C 
ATOM     10  C   UNL     1      54.251   5.767   9.970  0.00  0.00    +0.000 A 
ATOM     11  C   UNL     1      53.974   5.586   8.620  0.00  0.00    +0.000 A 
ATOM     12  C   UNL     1      53.185   6.526   7.970  0.00  0.00    +0.000 A 
ATOM     13  C   UNL     1      52.687   7.610   8.684  0.00  0.00    +0.000 A 
ATOM     14  C   UNL     1      52.992   7.728  10.039  0.00  0.00    +0.000 A 
ATOM     15  N   UNL     1      53.767   6.816  10.682  0.00  0.00    +0.000 NA
ENDBRANCH   8  14
ENDBRANCH   2   8
ENDBRANCH   1   5
BRANCH   1  16
ATOM     16  N   UNL     1      46.290   7.053  12.226  0.00  0.00    +0.000 N 
ATOM     17  C   UNL     1      45.093   6.854  11.587  0.00  0.00    +0.000 C 
ATOM     18  O   UNL     1      44.444   7.782  11.114  0.00  0.00    +0.000 OA
ATOM     19  H   UNL     1      46.680   6.315  12.804  0.00  0.00    +0.000 HD
BRANCH  17  20
ATOM     20  C   UNL     1      44.651   5.461  11.443  0.00  0.00    +0.000 A 
ATOM     21  C   UNL     1      43.915   4.865  12.460  0.00  0.00    +0.000 A 
ATOM     22  S   UNL     1      43.460   3.257  12.122  0.00  0.00    +0.000 S 
ATOM     23  C   UNL     1      44.267   3.284  10.624  0.00  0.00    +0.000 A 
ATOM     24  N   UNL     1      44.297   2.185   9.825  0.00  0.00    +0.000 NA
ATOM     25  C   UNL     1      44.968   2.337   8.732  0.00  0.00    +0.000 A 
ATOM     26  N   UNL     1      45.604   3.494   8.362  0.00  0.00    +0.000 N 
ATOM     27  C   UNL     1      45.578   4.637   9.124  0.00  0.00    +0.000 A 
ATOM     28  O   UNL     1      46.120   5.671   8.740  0.00  0.00    +0.000 OA
ATOM     29  C   UNL     1      44.856   4.513  10.373  0.00  0.00    +0.000 A 
ATOM     30  H   UNL     1      46.099   3.554   7.484  0.00  0.00    +0.000 HD
ENDBRANCH  17  20
ENDBRANCH   1  16
TORSDOF 5
ENDMDL
MODEL 5
REMARK VINA RESULT:    -7.282      1.978      3.223
REMARK INTER + INTRA:          -9.754
REMARK INTER:                  -8.501
REMARK INTRA:                  -1.253
REMARK UNBOUND:                -0.344
REMARK  Name = 
REMARK  6 active torsions:
REMARK  status: ('A' for Active; 'I' for Inactive)
REMARK    1  A    between atoms: C_1  and  C_2
REMARK    2  A    between atoms: C_6  and  C_7
REMARK    3  A    between atoms: C_7  and  C_8
REMARK    4  A    between atoms: C_11  and  C_12
REMARK    5  A    between atoms: C_12  and  N_13
REMARK    6  A    between atoms: C_14  and  C_16
REMARK                            x       y       z     vdW  Elec       q    Type
REMARK                         _______ _______ _______ _____ _____    ______ ____
ROOT
ATOM      1  C   UNL     1      49.254   8.468  14.031  0.00  0.00    +0.000 C 
ENDROOT
BRANCH   1   5
ATOM      2  C   UNL     1      45.675   7.423  11.832  0.00  0.00    +0.000 A 
ATOM      3  C   UNL     1      46.832   6.637  11.723  0.00  0.00    +0.000 A 
ATOM      4  C   UNL     1      47.995   6.982  12.417  0.00  0.00    +0.000 A 
ATOM      5  C   UNL     1      48.028   8.124  13.227  0.00  0.00    +0.000 A 
ATOM      6  C   UNL     1      46.896   8.948  13.275  0.00  0.00    +0.000 A 
ATOM      7  C   UNL     1      45.727   8.595  12.596  0.00  0.00    +0.000 A 
BRANCH   2   8
ATOM      8  C   UNL     1      44.383   6.988  11.176  0.00  0.00    +0.000 C 
BRANCH   8  14
ATOM      9  C   UNL     1      44.492   2.587   9.071  0.00  0.00    +0.000 C 
ATOM     10  C   UNL     1      44.177   3.397  10.292  0.00  0.00    +0.000 A 
ATOM     11  C   UNL     1      43.694   2.787  11.444  0.00  0.00    +0.000 A 
ATOM     12  C   UNL     1      43.391   3.582  12.541  0.00  0.00    +0.000 A 
ATOM     13  C   UNL     1      43.587   4.956  12.464  0.00  0.00    +0.000 A 
ATOM     14  C   UNL     1      44.085   5.505  11.284  0.00  0.00    +0.000 A 
ATOM     15  N   UNL     1      44.381   4.736  10.204  0.00  0.00    +0.000 NA
ENDBRANCH   8  14
ENDBRANCH   2   8
ENDBRANCH   1   5
BRANCH   1  16
ATOM     16  N   UNL     1      49.366   7.646  15.207  0.00  0.00    +0.000 N 
ATOM     17  C   UNL     1      48.836   8.056  16.404  0.00  0.00    +0.000 C 
ATOM     18  O   UNL     1      48.201   9.100  16.513  0.00  0.00    +0.000 OA
ATOM     19  H   UNL     1      50.073   6.918  15.195  0.00  0.00    +0.000 HD
BRANCH  17  20
ATOM     20  C   UNL     1      49.014   7.148  17.544  0.00  0.00    +0.000 A 
ATOM     21  C   UNL     1      49.529   7.637  18.738  0.00  0.00    +0.000 A 
ATOM     22  S   UNL     1      49.646   6.460  19.966  0.00  0.00    +0.000 S 
ATOM     23  C   UNL     1      49.055   5.244  18.933  0.00  0.00    +0.000 A 
ATOM     24  N   UNL     1      48.936   3.959  19.361  0.00  0.00    +0.000 NA
ATOM     25  C   UNL     1      48.502   3.136  18.466  0.00  0.00    +0.000 A 
ATOM     26  N   UNL     1      48.167   3.484  17.183  0.00  0.00    +0.000 N 
ATOM     27  C   UNL     1      48.246   4.773  16.715  0.00  0.00    +0.000 A 
ATOM     28  O   UNL     1      47.894   5.059  15.572  0.00  0.00    +0.000 OA
ATOM     29  C   UNL     1      48.749   5.734  17.674  0.00  0.00    +0.000 A 
ATOM     30  H   UNL     1      47.817   2.794  16.535  0.00  0.00    +0.000 HD
ENDBRANCH  17  20
ENDBRANCH   1  16
TORSDOF 5
ENDMDL
MODEL 6
REMARK VINA RESULT:    -7.184      2.752      4.166
REMARK INTER + INTRA:          -9.628
REMARK INTER:                  -8.729
REMARK INTRA:                  -0.899
REMARK UNBOUND:                -0.344
REMARK  Name = 
REMARK  6 active torsions:
REMARK  status: ('A' for Active; 'I' for Inactive)
REMARK    1  A    between atoms: C_1  and  C_2
REMARK    2  A    between atoms: C_6  and  C_7
REMARK    3  A    between atoms: C_7  and  C_8
REMARK    4  A    between atoms: C_11  and  C_12
REMARK    5  A    between atoms: C_12  and  N_13
REMARK    6  A    between atoms: C_14  and  C_16
REMARK                            x       y       z     vdW  Elec       q    Type
REMARK                         _______ _______ _______ _____ _____    ______ ____
ROOT
ATOM      1  C   UNL     1      45.300   7.104  12.958  0.00  0.00    +0.000 C 
ENDROOT
BRANCH   1   5
ATOM      2  C   UNL     1      44.521   4.601   9.514  0.00  0.00    +0.000 A 
ATOM      3  C   UNL     1      43.568   4.721  10.536  0.00  0.00    +0.000 A 
ATOM      4  C   UNL     1      43.823   5.514  11.659  0.00  0.00    +0.000 A 
ATOM      5  C   UNL     1      45.040   6.195  11.786  0.00  0.00    +0.000 A 
ATOM      6  C   UNL     1      46.020   6.014  10.801  0.00  0.00    +0.000 A 
ATOM      7  C   UNL     1      45.759   5.236   9.670  0.00  0.00    +0.000 A 
BRANCH   2   8
ATOM      8  C   UNL     1      44.201   3.839   8.247  0.00  0.00    +0.000 C 
BRANCH   8  14
ATOM      9  C   UNL     1      47.827   2.691   5.190  0.00  0.00    +0.000 C 
ATOM     10  C   UNL     1      47.018   2.308   6.392  0.00  0.00    +0.000 A 
ATOM     11  C   UNL     1      47.281   1.129   7.079  0.00  0.00    +0.000 A 
ATOM     12  C   UNL     1      46.486   0.802   8.170  0.00  0.00    +0.000 A 
ATOM     13  C   UNL     1      45.463   1.662   8.550  0.00  0.00    +0.000 A 
ATOM     14  C   UNL     1      45.258   2.836   7.827  0.00  0.00    +0.000 A 
ATOM     15  N   UNL     1      46.027   3.161   6.756  0.00  0.00    +0.000 NA
ENDBRANCH   8  14
ENDBRANCH   2   8
ENDBRANCH   1   5
BRANCH   1  16
ATOM     16  N   UNL     1      46.679   7.063  13.368  0.00  0.00    +0.000 N 
ATOM     17  C   UNL     1      47.375   8.220  13.610  0.00  0.00    +0.000 C 
ATOM     18  O   UNL     1      46.846   9.325  13.546  0.00  0.00    +0.000 OA
ATOM     19  H   UNL     1      47.184   6.199  13.197  0.00  0.00    +0.000 HD
BRANCH  17  20
ATOM     20  C   UNL     1      48.779   8.067  14.013  0.00  0.00    +0.000 A 
ATOM     21  C   UNL     1      49.083   7.485  15.237  0.00  0.00    +0.000 A 
ATOM     22  S   UNL     1      50.757   7.360  15.538  0.00  0.00    +0.000 S 
ATOM     23  C   UNL     1      51.135   8.119  14.063  0.00  0.00    +0.000 A 
ATOM     24  N   UNL     1      52.426   8.358  13.710  0.00  0.00    +0.000 NA
ATOM     25  C   UNL     1      52.566   8.965  12.579  0.00  0.00    +0.000 A 
ATOM     26  N   UNL     1      51.532   9.347  11.764  0.00  0.00    +0.000 N 
ATOM     27  C   UNL     1      50.214   9.103  12.068  0.00  0.00    +0.000 A 
ATOM     28  O   UNL     1      49.314   9.417  11.293  0.00  0.00    +0.000 OA
ATOM     29  C   UNL     1      49.999   8.442  13.338  0.00  0.00    +0.000 A 
ATOM     30  H   UNL     1      51.710   9.804  10.883  0.00  0.00    +0.000 HD
ENDBRANCH  17  20
ENDBRANCH   1  16
TORSDOF 5
ENDMDL
MODEL 7
REMARK VINA RESULT:    -7.052      3.341      5.017
REMARK INTER + INTRA:          -9.457
REMARK INTER:                  -8.713
REMARK INTRA:                  -0.744
REMARK UNBOUND:                -0.344
REMARK  Name = 
REMARK  6 active torsions:
REMARK  status: ('A' for Active; 'I' for Inactive)
REMARK    1  A    between atoms: C_1  and  C_2
REMARK    2  A    between atoms: C_6  and  C_7
REMARK    3  A    between atoms: C_7  and  C_8
REMARK    4  A    between atoms: C_11  and  C_12
REMARK    5  A    between atoms: C_12  and  N_13
REMARK    6  A    between atoms: C_14  and  C_16
REMARK                            x       y       z     vdW  Elec       q    Type
REMARK                         _______ _______ _______ _____ _____    ______ ____
ROOT
ATOM      1  C   UNL     1      48.261   4.527  17.239  0.00  0.00    +0.000 C 
ENDROOT
BRANCH   1   5
ATOM      2  C   UNL     1      47.255   6.068  13.321  0.00  0.00    +0.000 A 
ATOM      3  C   UNL     1      46.783   4.813  13.735  0.00  0.00    +0.000 A 
ATOM      4  C   UNL     1      47.121   4.304  14.992  0.00  0.00    +0.000 A 
ATOM      5  C   UNL     1      47.944   5.036  15.857  0.00  0.00    +0.000 A 
ATOM      6  C   UNL     1      48.476   6.254  15.413  0.00  0.00    +0.000 A 
ATOM      7  C   UNL     1      48.124   6.771  14.163  0.00  0.00    +0.000 A 
BRANCH   2   8
ATOM      8  C   UNL     1      46.796   6.671  12.011  0.00  0.00    +0.000 C 
BRANCH   8  14
ATOM      9  C   UNL     1      44.826   3.785   8.606  0.00  0.00    +0.000 C 
ATOM     10  C   UNL     1      44.612   4.629   9.825  0.00  0.00    +0.000 A 
ATOM     11  C   UNL     1      43.346   4.761  10.384  0.00  0.00    +0.000 A 
ATOM     12  C   UNL     1      43.192   5.576  11.498  0.00  0.00    +0.000 A 
ATOM     13  C   UNL     1      44.301   6.225  12.028  0.00  0.00    +0.000 A 
ATOM     14  C   UNL     1      45.546   6.041  11.427  0.00  0.00    +0.000 A 
ATOM     15  N   UNL     1      45.705   5.250  10.335  0.00  0.00    +0.000 NA
ENDBRANCH   8  14
ENDBRANCH   2   8
ENDBRANCH   1   5
BRANCH   1  16
ATOM     16  N   UNL     1      49.622   4.071  17.338  0.00  0.00    +0.000 N 
ATOM     17  C   UNL     1      50.380   4.356  18.445  0.00  0.00    +0.000 C 
ATOM     18  O   UNL     1      49.922   4.956  19.413  0.00  0.00    +0.000 OA
ATOM     19  H   UNL     1      50.079   3.792  16.475  0.00  0.00    +0.000 HD
BRANCH  17  20
ATOM     20  C   UNL     1      51.759   3.853  18.442  0.00  0.00    +0.000 A 
ATOM     21  C   UNL     1      52.786   4.659  18.917  0.00  0.00    +0.000 A 
ATOM     22  S   UNL     1      54.319   3.914  18.869  0.00  0.00    +0.000 S 
ATOM     23  C   UNL     1      53.673   2.503  18.170  0.00  0.00    +0.000 A 
ATOM     24  N   UNL     1      54.475   1.458  17.835  0.00  0.00    +0.000 NA
ATOM     25  C   UNL     1      53.856   0.465  17.288  0.00  0.00    +0.000 A 
ATOM     26  N   UNL     1      52.506   0.419  17.054  0.00  0.00    +0.000 N 
ATOM     27  C   UNL     1      51.654   1.440  17.400  0.00  0.00    +0.000 A 
ATOM     28  O   UNL     1      50.442   1.347  17.218  0.00  0.00    +0.000 OA
ATOM     29  C   UNL     1      52.301   2.589  17.998  0.00  0.00    +0.000 A 
ATOM     30  H   UNL     1      52.081  -0.395  16.637  0.00  0.00    +0.000 HD
ENDBRANCH  17  20
ENDBRANCH   1  16
TORSDOF 5
ENDMDL
MODEL 8
REMARK VINA RESULT:    -7.015      3.331      4.589
REMARK INTER + INTRA:          -9.409
REMARK INTER:                  -8.638
REMARK INTRA:                  -0.772
REMARK UNBOUND:                -0.344
REMARK  Name = 
REMARK  6 active torsions:
REMARK  status: ('A' for Active; 'I' for Inactive)
REMARK    1  A    between atoms: C_1  and  C_2
REMARK    2  A    between atoms: C_6  and  C_7
REMARK    3  A    between atoms: C_7  and  C_8
REMARK    4  A    between atoms: C_11  and  C_12
REMARK    5  A    between atoms: C_12  and  N_13
REMARK    6  A    between atoms: C_14  and  C_16
REMARK                            x       y       z     vdW  Elec       q    Type
REMARK                         _______ _______ _______ _____ _____    ______ ____
ROOT
ATOM      1  C   UNL     1      46.551   7.738  13.506  0.00  0.00    +0.000 C 
ENDROOT
BRANCH   1   5
ATOM      2  C   UNL     1      45.156   4.612  10.859  0.00  0.00    +0.000 A 
ATOM      3  C   UNL     1      45.250   4.384  12.240  0.00  0.00    +0.000 A 
ATOM      4  C   UNL     1      45.718   5.386  13.096  0.00  0.00    +0.000 A 
ATOM      5  C   UNL     1      46.108   6.631  12.587  0.00  0.00    +0.000 A 
ATOM      6  C   UNL     1      46.085   6.829  11.200  0.00  0.00    +0.000 A 
ATOM      7  C   UNL     1      45.601   5.835  10.345  0.00  0.00    +0.000 A 
BRANCH   2   8
ATOM      8  C   UNL     1      44.541   3.572   9.946  0.00  0.00    +0.000 C 
BRANCH   8  14
ATOM      9  C   UNL     1      46.763  -0.133   7.679  0.00  0.00    +0.000 C 
ATOM     10  C   UNL     1      46.466   1.336   7.708  0.00  0.00    +0.000 A 
ATOM     11  C   UNL     1      46.959   2.179   6.720  0.00  0.00    +0.000 A 
ATOM     12  C   UNL     1      46.680   3.537   6.804  0.00  0.00    +0.000 A 
ATOM     13  C   UNL     1      45.913   4.012   7.862  0.00  0.00    +0.000 A 
ATOM     14  C   UNL     1      45.440   3.112   8.815  0.00  0.00    +0.000 A 
ATOM     15  N   UNL     1      45.711   1.783   8.743  0.00  0.00    +0.000 NA
ENDBRANCH   8  14
ENDBRANCH   2   8
ENDBRANCH   1   5
BRANCH   1  16
ATOM     16  N   UNL     1      47.940   8.063  13.317  0.00  0.00    +0.000 N 
ATOM     17  C   UNL     1      48.322   9.324  12.935  0.00  0.00    +0.000 C 
ATOM     18  O   UNL     1      47.512  10.236  12.794  0.00  0.00    +0.000 OA
ATOM     19  H   UNL     1      48.583   7.286  13.196  0.00  0.00    +0.000 HD
BRANCH  17  20
ATOM     20  C   UNL     1      49.762   9.548  12.759  0.00  0.00    +0.000 A 
ATOM     21  C   UNL     1      50.366  10.641  13.368  0.00  0.00    +0.000 A 
ATOM     22  S   UNL     1      52.046  10.739  13.086  0.00  0.00    +0.000 S 
ATOM     23  C   UNL     1      52.018   9.350  12.104  0.00  0.00    +0.000 A 
ATOM     24  N   UNL     1      53.149   8.895  11.503  0.00  0.00    +0.000 NA
ATOM     25  C   UNL     1      52.978   7.849  10.765  0.00  0.00    +0.000 A 
ATOM     26  N   UNL     1      51.779   7.211  10.581  0.00  0.00    +0.000 N 
ATOM     27  C   UNL     1      50.616   7.619  11.189  0.00  0.00    +0.000 A 
ATOM     28  O   UNL     1      49.567   6.996  11.039  0.00  0.00    +0.000 OA
ATOM     29  C   UNL     1      50.748   8.803  12.012  0.00  0.00    +0.000 A 
ATOM     30  H   UNL     1      51.715   6.386  10.003  0.00  0.00    +0.000 HD
ENDBRANCH  17  20
ENDBRANCH   1  16
TORSDOF 5
ENDMDL
MODEL 9
REMARK VINA RESULT:    -6.877      2.768      3.686
REMARK INTER + INTRA:          -9.231
REMARK INTER:                  -8.619
REMARK INTRA:                  -0.612
REMARK UNBOUND:                -0.344
REMARK  Name = 
REMARK  6 active torsions:
REMARK  status: ('A' for Active; 'I' for Inactive)
REMARK    1  A    between atoms: C_1  and  C_2
REMARK    2  A    between atoms: C_6  and  C_7
REMARK    3  A    between atoms: C_7  and  C_8
REMARK    4  A    between atoms: C_11  and  C_12
REMARK    5  A    between atoms: C_12  and  N_13
REMARK    6  A    between atoms: C_14  and  C_16
REMARK                            x       y       z     vdW  Elec       q    Type
REMARK                         _______ _______ _______ _____ _____    ______ ____
ROOT
ATOM      1  C   UNL     1      45.232   7.010  12.951  0.00  0.00    +0.000 C 
ENDROOT
BRANCH   1   5
ATOM      2  C   UNL     1      44.642   4.544   9.443  0.00  0.00    +0.000 A 
ATOM      3  C   UNL     1      43.659   4.606  10.442  0.00  0.00    +0.000 A 
ATOM      4  C   UNL     1      43.854   5.387  11.586  0.00  0.00    +0.000 A 
ATOM      5  C   UNL     1      45.039   6.114  11.756  0.00  0.00    +0.000 A 
ATOM      6  C   UNL     1      46.050   5.991  10.793  0.00  0.00    +0.000 A 
ATOM      7  C   UNL     1      45.849   5.225   9.642  0.00  0.00    +0.000 A 
BRANCH   2   8
ATOM      8  C   UNL     1      44.385   3.794   8.154  0.00  0.00    +0.000 C 
BRANCH   8  14
ATOM      9  C   UNL     1      46.798  -0.428   7.749  0.00  0.00    +0.000 C 
ATOM     10  C   UNL     1      46.715   1.022   7.377  0.00  0.00    +0.000 A 
ATOM     11  C   UNL     1      47.667   1.597   6.543  0.00  0.00    +0.000 A 
ATOM     12  C   UNL     1      47.565   2.950   6.249  0.00  0.00    +0.000 A 
ATOM     13  C   UNL     1      46.514   3.687   6.785  0.00  0.00    +0.000 A 
ATOM     14  C   UNL     1      45.586   3.048   7.605  0.00  0.00    +0.000 A 
ATOM     15  N   UNL     1      45.681   1.726   7.902  0.00  0.00    +0.000 NA
ENDBRANCH   8  14
ENDBRANCH   2   8
ENDBRANCH   1   5
BRANCH   1  16
ATOM     16  N   UNL     1      46.588   7.482  13.048  0.00  0.00    +0.000 N 
ATOM     17  C   UNL     1      46.884   8.811  12.884  0.00  0.00    +0.000 C 
ATOM     18  O   UNL     1      46.012   9.656  12.705  0.00  0.00    +0.000 OA
ATOM     19  H   UNL     1      47.324   6.788  12.958  0.00  0.00    +0.000 HD
BRANCH  17  20
ATOM     20  C   UNL     1      48.300   9.185  12.994  0.00  0.00    +0.000 A 
ATOM     21  C   UNL     1      48.798  10.221  12.215  0.00  0.00    +0.000 A 
ATOM     22  S   UNL     1      50.451  10.545  12.483  0.00  0.00    +0.000 S 
ATOM     23  C   UNL     1      50.571   9.282  13.618  0.00  0.00    +0.000 A 
ATOM     24  N   UNL     1      51.755   8.991  14.218  0.00  0.00    +0.000 NA
ATOM     25  C   UNL     1      51.708   7.992  15.035  0.00  0.00    +0.000 A 
ATOM     26  N   UNL     1      50.580   7.264  15.313  0.00  0.00    +0.000 N 
ATOM     27  C   UNL     1      49.357   7.538  14.750  0.00  0.00    +0.000 A 
ATOM     28  O   UNL     1      48.357   6.894  15.057  0.00  0.00    +0.000 OA
ATOM     29  C   UNL     1      49.359   8.638  13.808  0.00  0.00    +0.000 A 
ATOM     30  H   UNL     1      50.606   6.503  15.976  0.00  0.00    +0.000 HD
ENDBRANCH  17  20
ENDBRANCH   1  16
TORSDOF 5
ENDMDL
