MODEL 1
REMARK VINA RESULT:    -8.916      0.000      0.000
REMARK INTER + INTRA:         -12.129
REMARK INTER:                 -11.522
REMARK INTRA:                  -0.607
REMARK UNBOUND:                -0.607
REMARK  Name = 
REMARK  5 active torsions:
REMARK  status: ('A' for Active; 'I' for Inactive)
REMARK    1  A    between atoms: C_2  and  C_18
REMARK    2  A    between atoms: N_3  and  C_4
REMARK    3  A    between atoms: C_4  and  C_5
REMARK    4  A    between atoms: N_8  and  C_9
REMARK    5  A    between atoms: C_9  and  C_10
REMARK                            x       y       z     vdW  Elec       q    Type
REMARK                         _______ _______ _______ _____ _____    ______ ____
ROOT
ATOM      1  O   UNL     1      47.828   2.883  15.183  0.00  0.00    +0.000 OA
ATOM      2  C   UNL     1      47.381   4.000  15.422  0.00  0.00    +0.000 C 
ATOM      3  N   UNL     1      46.491   4.637  14.592  0.00  0.00    +0.000 N 
ATOM      4  H   UNL     1      46.049   5.489  14.915  0.00  0.00    +0.000 HD
ENDROOT
BRANCH   2   5
ATOM      5  C   UNL     1      47.811   4.772  16.596  0.00  0.00    +0.000 A 
ATOM      6  C   UNL     1      47.399   4.398  17.867  0.00  0.00    +0.000 A 
ATOM      7  S   UNL     1      48.076   5.352  19.111  0.00  0.00    +0.000 S 
ATOM      8  C   UNL     1      48.902   6.331  17.990  0.00  0.00    +0.000 A 
ATOM      9  N   UNL     1      49.699   7.354  18.400  0.00  0.00    +0.000 NA
ATOM     10  C   UNL     1      50.230   8.036  17.441  0.00  0.00    +0.000 A 
ATOM     11  N   UNL     1      50.027   7.796  16.107  0.00  0.00    +0.000 N 
ATOM     12  C   UNL     1      49.258   6.755  15.646  0.00  0.00    +0.000 A 
ATOM     13  O   UNL     1      49.144   6.537  14.444  0.00  0.00    +0.000 OA
ATOM     14  C   UNL     1      48.648   5.948  16.685  0.00  0.00    +0.000 A 
ATOM     15  H   UNL     1      50.470   8.368  15.404  0.00  0.00    +0.000 HD
ENDBRANCH   2   5
BRANCH   3  16
ATOM     16  C   UNL     1      45.902   4.020  13.424  0.00  0.00    +0.000 C 
BRANCH  16  17
ATOM     17  C   UNL     1      44.691   4.792  12.877  0.00  0.00    +0.000 C 
ATOM     18  C   UNL     1      43.440   3.919  12.694  0.00  0.00    +0.000 C 
ATOM     19  C   UNL     1      43.619   2.873  11.592  0.00  0.00    +0.000 C 
ATOM     20  N   UNL     1      43.987   3.471  10.301  0.00  0.00    +0.000 NA
ATOM     21  C   UNL     1      45.137   4.387  10.397  0.00  0.00    +0.000 C 
ATOM     22  C   UNL     1      45.012   5.426  11.519  0.00  0.00    +0.000 C 
BRANCH  20  23
ATOM     23  C   UNL     1      44.266   2.435   9.279  0.00  0.00    +0.000 C 
BRANCH  23  24
ATOM     24  C   UNL     1      45.628   2.548   8.547  0.00  0.00    +0.000 C 
ATOM     25  C   UNL     1      45.481   3.464   7.315  0.00  0.00    +0.000 C 
ATOM     26  C   UNL     1      46.727   3.487   6.428  0.00  0.00    +0.000 C 
ATOM     27  C   UNL     1      47.171   2.080   6.049  0.00  0.00    +0.000 C 
ATOM     28  C   UNL     1      47.424   1.246   7.298  0.00  0.00    +0.000 C 
ATOM     29  C   UNL     1      46.170   1.162   8.162  0.00  0.00    +0.000 C 
ENDBRANCH  23  24
ENDBRANCH  20  23
ENDBRANCH  16  17
ENDBRANCH   3  16
TORSDOF 5
ENDMDL
MODEL 2
REMARK VINA RESULT:    -8.853      1.600      2.294
REMARK INTER + INTRA:         -12.047
REMARK INTER:                 -11.477
REMARK INTRA:                  -0.571
REMARK UNBOUND:                -0.607
REMARK  Name = 
REMARK  5 active torsions:
REMARK  status: ('A' for Active; 'I' for Inactive)
REMARK    1  A    between atoms: C_2  and  C_18
REMARK    2  A    between atoms: N_3  and  C_4
REMARK    3  A    between atoms: C_4  and  C_5
REMARK    4  A    between atoms: N_8  and  C_9
REMARK    5  A    between atoms: C_9  and  C_10
REMARK                            x       y       z     vdW  Elec       q    Type
REMARK                         _______ _______ _______ _____ _____    ______ ____
ROOT
ATOM      1  O   UNL     1      47.384   3.260  14.447  0.00  0.00    +0.000 OA
ATOM      2  C   UNL     1      47.153   4.398  14.842  0.00  0.00    +0.000 C 
ATOM      3  N   UNL     1      46.149   5.176  14.319  0.00  0.00    +0.000 N 
ATOM      4  H   UNL     1      45.916   6.045  14.784  0.00  0.00    +0.000 HD
ENDROOT
BRANCH   2   5
ATOM      5  C   UNL     1      47.977   5.043  15.874  0.00  0.00    +0.000 A 
ATOM      6  C   UNL     1      48.657   6.219  15.592  0.00  0.00    +0.000 A 
ATOM      7  S   UNL     1      49.480   6.870  16.938  0.00  0.00    +0.000 S 
ATOM      8  C   UNL     1      48.999   5.575  17.933  0.00  0.00    +0.000 A 
ATOM      9  N   UNL     1      49.359   5.520  19.243  0.00  0.00    +0.000 NA
ATOM     10  C   UNL     1      48.957   4.462  19.864  0.00  0.00    +0.000 A 
ATOM     11  N   UNL     1      48.238   3.446  19.291  0.00  0.00    +0.000 N 
ATOM     12  C   UNL     1      47.825   3.472  17.982  0.00  0.00    +0.000 A 
ATOM     13  O   UNL     1      47.135   2.571  17.518  0.00  0.00    +0.000 OA
ATOM     14  C   UNL     1      48.238   4.649  17.241  0.00  0.00    +0.000 A 
ATOM     15  H   UNL     1      47.956   2.642  19.832  0.00  0.00    +0.000 HD
ENDBRANCH   2   5
BRANCH   3  16
ATOM     16  C   UNL     1      45.193   4.702  13.344  0.00  0.00    +0.000 C 
BRANCH  16  17
ATOM     17  C   UNL     1      44.675   5.811  12.414  0.00  0.00    +0.000 C 
ATOM     18  C   UNL     1      43.274   5.532  11.850  0.00  0.00    +0.000 C 
ATOM     19  C   UNL     1      43.262   4.340  10.890  0.00  0.00    +0.000 C 
ATOM     20  N   UNL     1      44.209   4.501   9.779  0.00  0.00    +0.000 NA
ATOM     21  C   UNL     1      45.569   4.847  10.227  0.00  0.00    +0.000 C 
ATOM     22  C   UNL     1      45.619   6.013  11.223  0.00  0.00    +0.000 C 
BRANCH  20  23
ATOM     23  C   UNL     1      44.263   3.290   8.926  0.00  0.00    +0.000 C 
BRANCH  23  24
ATOM     24  C   UNL     1      45.666   2.886   8.404  0.00  0.00    +0.000 C 
ATOM     25  C   UNL     1      45.922   3.551   7.036  0.00  0.00    +0.000 C 
ATOM     26  C   UNL     1      47.203   3.063   6.358  0.00  0.00    +0.000 C 
ATOM     27  C   UNL     1      47.250   1.542   6.277  0.00  0.00    +0.000 C 
ATOM     28  C   UNL     1      47.118   0.930   7.665  0.00  0.00    +0.000 C 
ATOM     29  C   UNL     1      45.813   1.357   8.329  0.00  0.00    +0.000 C 
ENDBRANCH  23  24
ENDBRANCH  20  23
ENDBRANCH  16  17
ENDBRANCH   3  16
TORSDOF 5
ENDMDL
MODEL 3
REMARK VINA RESULT:    -8.824      1.560      2.421
REMARK INTER + INTRA:         -12.010
REMARK INTER:                 -11.026
REMARK INTRA:                  -0.984
REMARK UNBOUND:                -0.607
REMARK  Name = 
REMARK  5 active torsions:
REMARK  status: ('A' for Active; 'I' for Inactive)
REMARK    1  A    between atoms: C_2  and  C_18
REMARK    2  A    between atoms: N_3  and  C_4
REMARK    3  A    between atoms: C_4  and  C_5
REMARK    4  A    between atoms: N_8  and  C_9
REMARK    5  A    between atoms: C_9  and  C_10
REMARK                            x       y       z     vdW  Elec       q    Type
REMARK                         _______ _______ _______ _____ _____    ______ ____
ROOT
ATOM      1  O   UNL     1      48.327   5.897  12.854  0.00  0.00    +0.000 OA
ATOM      2  C   UNL     1      47.722   6.029  13.913  0.00  0.00    +0.000 C 
ATOM      3  N   UNL     1      46.355   6.140  13.979  0.00  0.00    +0.000 N 
ATOM      4  H   UNL     1      45.907   6.099  14.886  0.00  0.00    +0.000 HD
ENDROOT
BRANCH   2   5
ATOM      5  C   UNL     1      48.426   6.134  15.199  0.00  0.00    +0.000 A 
ATOM      6  C   UNL     1      49.399   7.106  15.386  0.00  0.00    +0.000 A 
ATOM      7  S   UNL     1      50.035   7.138  16.970  0.00  0.00    +0.000 S 
ATOM      8  C   UNL     1      49.068   5.821  17.447  0.00  0.00    +0.000 A 
ATOM      9  N   UNL     1      49.112   5.338  18.718  0.00  0.00    +0.000 NA
ATOM     10  C   UNL     1      48.356   4.313  18.927  0.00  0.00    +0.000 A 
ATOM     11  N   UNL     1      47.568   3.717  17.977  0.00  0.00    +0.000 N 
ATOM     12  C   UNL     1      47.466   4.188  16.691  0.00  0.00    +0.000 A 
ATOM     13  O   UNL     1      46.708   3.663  15.883  0.00  0.00    +0.000 OA
ATOM     14  C   UNL     1      48.287   5.351  16.406  0.00  0.00    +0.000 A 
ATOM     15  H   UNL     1      47.000   2.914  18.203  0.00  0.00    +0.000 HD
ENDBRANCH   2   5
BRANCH   3  16
ATOM     16  C   UNL     1      45.483   5.998  12.834  0.00  0.00    +0.000 C 
BRANCH  16  17
ATOM     17  C   UNL     1      44.409   4.914  13.021  0.00  0.00    +0.000 C 
ATOM     18  C   UNL     1      44.898   3.501  12.668  0.00  0.00    +0.000 C 
ATOM     19  C   UNL     1      45.189   3.345  11.174  0.00  0.00    +0.000 C 
ATOM     20  N   UNL     1      44.030   3.682  10.335  0.00  0.00    +0.000 NA
ATOM     21  C   UNL     1      43.448   4.996  10.659  0.00  0.00    +0.000 C 
ATOM     22  C   UNL     1      43.179   5.206  12.155  0.00  0.00    +0.000 C 
BRANCH  20  23
ATOM     23  C   UNL     1      44.367   3.633   8.893  0.00  0.00    +0.000 C 
BRANCH  23  24
ATOM     24  C   UNL     1      45.716   2.959   8.530  0.00  0.00    +0.000 C 
ATOM     25  C   UNL     1      46.333   3.663   7.304  0.00  0.00    +0.000 C 
ATOM     26  C   UNL     1      47.573   2.950   6.761  0.00  0.00    +0.000 C 
ATOM     27  C   UNL     1      47.302   1.474   6.502  0.00  0.00    +0.000 C 
ATOM     28  C   UNL     1      46.812   0.791   7.771  0.00  0.00    +0.000 C 
ATOM     29  C   UNL     1      45.538   1.451   8.290  0.00  0.00    +0.000 C 
ENDBRANCH  23  24
ENDBRANCH  20  23
ENDBRANCH  16  17
ENDBRANCH   3  16
TORSDOF 5
ENDMDL
MODEL 4
REMARK VINA RESULT:    -7.067      3.320      8.993
REMARK INTER + INTRA:          -9.739
REMARK INTER:                  -8.800
REMARK INTRA:                  -0.939
REMARK UNBOUND:                -0.607
REMARK  Name = 
REMARK  5 active torsions:
REMARK  status: ('A' for Active; 'I' for Inactive)
REMARK    1  A    between atoms: C_2  and  C_18
REMARK    2  A    between atoms: N_3  and  C_4
REMARK    3  A    between atoms: C_4  and  C_5
REMARK    4  A    between atoms: N_8  and  C_9
REMARK    5  A    between atoms: C_9  and  C_10
REMARK                            x       y       z     vdW  Elec       q    Type
REMARK                         _______ _______ _______ _____ _____    ______ ____
ROOT
ATOM      1  O   UNL     1      48.557   5.979  13.234  0.00  0.00    +0.000 OA
ATOM      2  C   UNL     1      47.427   5.794  13.674  0.00  0.00    +0.000 C 
ATOM      3  N   UNL     1      47.189   5.410  14.972  0.00  0.00    +0.000 N 
ATOM      4  H   UNL     1      46.235   5.415  15.313  0.00  0.00    +0.000 HD
ENDROOT
BRANCH   2   5
ATOM      5  C   UNL     1      46.234   5.914  12.823  0.00  0.00    +0.000 A 
ATOM      6  C   UNL     1      45.785   7.164  12.423  0.00  0.00    +0.000 A 
ATOM      7  S   UNL     1      44.449   7.100  11.361  0.00  0.00    +0.000 S 
ATOM      8  C   UNL     1      44.393   5.401  11.441  0.00  0.00    +0.000 A 
ATOM      9  N   UNL     1      43.471   4.692  10.737  0.00  0.00    +0.000 NA
ATOM     10  C   UNL     1      43.520   3.415  10.925  0.00  0.00    +0.000 A 
ATOM     11  N   UNL     1      44.400   2.783  11.763  0.00  0.00    +0.000 N 
ATOM     12  C   UNL     1      45.369   3.453  12.469  0.00  0.00    +0.000 A 
ATOM     13  O   UNL     1      46.176   2.847  13.167  0.00  0.00    +0.000 OA
ATOM     14  C   UNL     1      45.367   4.891  12.282  0.00  0.00    +0.000 A 
ATOM     15  H   UNL     1      44.386   1.779  11.868  0.00  0.00    +0.000 HD
ENDBRANCH   2   5
BRANCH   3  16
ATOM     16  C   UNL     1      48.221   5.300  15.978  0.00  0.00    +0.000 C 
BRANCH  16  17
ATOM     17  C   UNL     1      47.825   4.398  17.157  0.00  0.00    +0.000 C 
ATOM     18  C   UNL     1      47.948   5.088  18.524  0.00  0.00    +0.000 C 
ATOM     19  C   UNL     1      49.402   5.394  18.889  0.00  0.00    +0.000 C 
ATOM     20  N   UNL     1      50.253   4.197  18.871  0.00  0.00    +0.000 NA
ATOM     21  C   UNL     1      50.140   3.428  17.619  0.00  0.00    +0.000 C 
ATOM     22  C   UNL     1      48.693   3.135  17.198  0.00  0.00    +0.000 C 
BRANCH  20  23
ATOM     23  C   UNL     1      51.675   4.533  19.117  0.00  0.00    +0.000 C 
BRANCH  23  24
ATOM     24  C   UNL     1      52.584   4.612  17.862  0.00  0.00    +0.000 C 
ATOM     25  C   UNL     1      53.962   3.997  18.180  0.00  0.00    +0.000 C 
ATOM     26  C   UNL     1      54.985   4.198  17.061  0.00  0.00    +0.000 C 
ATOM     27  C   UNL     1      55.088   5.662  16.652  0.00  0.00    +0.000 C 
ATOM     28  C   UNL     1      53.726   6.194  16.227  0.00  0.00    +0.000 C 
ATOM     29  C   UNL     1      52.710   6.059  17.357  0.00  0.00    +0.000 C 
ENDBRANCH  23  24
ENDBRANCH  20  23
ENDBRANCH  16  17
ENDBRANCH   3  16
TORSDOF 5
ENDMDL
MODEL 5
REMARK VINA RESULT:    -7.043      3.358      8.891
REMARK INTER + INTRA:          -9.708
REMARK INTER:                  -9.059
REMARK INTRA:                  -0.649
REMARK UNBOUND:                -0.607
REMARK  Name = 
REMARK  5 active torsions:
REMARK  status: ('A' for Active; 'I' for Inactive)
REMARK    1  A    between atoms: C_2  and  C_18
REMARK    2  A    between atoms: N_3  and  C_4
REMARK    3  A    between atoms: C_4  and  C_5
REMARK    4  A    between atoms: N_8  and  C_9
REMARK    5  A    between atoms: C_9  and  C_10
REMARK                            x       y       z     vdW  Elec       q    Type
REMARK                         _______ _______ _______ _____ _____    ______ ____
ROOT
ATOM      1  O   UNL     1      48.599   6.024  13.295  0.00  0.00    +0.000 OA
ATOM      2  C   UNL     1      47.462   5.816  13.708  0.00  0.00    +0.000 C 
ATOM      3  N   UNL     1      47.205   5.376  14.984  0.00  0.00    +0.000 N 
ATOM      4  H   UNL     1      46.246   5.364  15.309  0.00  0.00    +0.000 HD
ENDROOT
BRANCH   2   5
ATOM      5  C   UNL     1      46.284   5.968  12.844  0.00  0.00    +0.000 A 
ATOM      6  C   UNL     1      45.861   7.231  12.454  0.00  0.00    +0.000 A 
ATOM      7  S   UNL     1      44.539   7.204  11.375  0.00  0.00    +0.000 S 
ATOM      8  C   UNL     1      44.452   5.505  11.431  0.00  0.00    +0.000 A 
ATOM      9  N   UNL     1      43.527   4.822  10.705  0.00  0.00    +0.000 NA
ATOM     10  C   UNL     1      43.552   3.543  10.876  0.00  0.00    +0.000 A 
ATOM     11  N   UNL     1      44.410   2.883  11.717  0.00  0.00    +0.000 N 
ATOM     12  C   UNL     1      45.381   3.527  12.444  0.00  0.00    +0.000 A 
ATOM     13  O   UNL     1      46.168   2.898  13.144  0.00  0.00    +0.000 OA
ATOM     14  C   UNL     1      45.406   4.968  12.278  0.00  0.00    +0.000 A 
ATOM     15  H   UNL     1      44.377   1.879  11.808  0.00  0.00    +0.000 HD
ENDBRANCH   2   5
BRANCH   3  16
ATOM     16  C   UNL     1      48.221   5.227  16.001  0.00  0.00    +0.000 C 
BRANCH  16  17
ATOM     17  C   UNL     1      48.630   6.559  16.650  0.00  0.00    +0.000 C 
ATOM     18  C   UNL     1      50.074   6.977  16.332  0.00  0.00    +0.000 C 
ATOM     19  C   UNL     1      51.102   6.036  16.965  0.00  0.00    +0.000 C 
ATOM     20  N   UNL     1      50.939   5.919  18.421  0.00  0.00    +0.000 NA
ATOM     21  C   UNL     1      49.559   5.593  18.822  0.00  0.00    +0.000 C 
ATOM     22  C   UNL     1      48.495   6.490  18.175  0.00  0.00    +0.000 C 
BRANCH  20  23
ATOM     23  C   UNL     1      51.869   4.920  18.996  0.00  0.00    +0.000 C 
BRANCH  23  24
ATOM     24  C   UNL     1      52.214   3.708  18.092  0.00  0.00    +0.000 C 
ATOM     25  C   UNL     1      50.963   2.824  17.910  0.00  0.00    +0.000 C 
ATOM     26  C   UNL     1      51.254   1.509  17.186  0.00  0.00    +0.000 C 
ATOM     27  C   UNL     1      52.405   0.753  17.837  0.00  0.00    +0.000 C 
ATOM     28  C   UNL     1      53.655   1.620  17.883  0.00  0.00    +0.000 C 
ATOM     29  C   UNL     1      53.398   2.908  18.659  0.00  0.00    +0.000 C 
ENDBRANCH  23  24
ENDBRANCH  20  23
ENDBRANCH  16  17
ENDBRANCH   3  16
TORSDOF 5
ENDMDL
MODEL 6
REMARK VINA RESULT:    -7.032      2.142      2.868
REMARK INTER + INTRA:          -9.695
REMARK INTER:                  -9.435
REMARK INTRA:                  -0.260
REMARK UNBOUND:                -0.607
REMARK  Name = 
REMARK  5 active torsions:
REMARK  status: ('A' for Active; 'I' for Inactive)
REMARK    1  A    between atoms: C_2  and  C_18
REMARK    2  A    between atoms: N_3  and  C_4
REMARK    3  A    between atoms: C_4  and  C_5
REMARK    4  A    between atoms: N_8  and  C_9
REMARK    5  A    between atoms: C_9  and  C_10
REMARK                            x       y       z     vdW  Elec       q    Type
REMARK                         _______ _______ _______ _____ _____    ______ ____
ROOT
ATOM      1  O   UNL     1      48.410   7.198  11.755  0.00  0.00    +0.000 OA
ATOM      2  C   UNL     1      48.142   7.327  12.945  0.00  0.00    +0.000 C 
ATOM      3  N   UNL     1      47.155   6.602  13.566  0.00  0.00    +0.000 N 
ATOM      4  H   UNL     1      47.080   6.648  14.575  0.00  0.00    +0.000 HD
ENDROOT
BRANCH   2   5
ATOM      5  C   UNL     1      48.824   8.317  13.790  0.00  0.00    +0.000 A 
ATOM      6  C   UNL     1      48.944   9.633  13.367  0.00  0.00    +0.000 A 
ATOM      7  S   UNL     1      49.677  10.656  14.521  0.00  0.00    +0.000 S 
ATOM      8  C   UNL     1      49.906   9.365  15.606  0.00  0.00    +0.000 A 
ATOM      9  N   UNL     1      50.481   9.560  16.822  0.00  0.00    +0.000 NA
ATOM     10  C   UNL     1      50.628   8.485  17.523  0.00  0.00    +0.000 A 
ATOM     11  N   UNL     1      50.262   7.229  17.113  0.00  0.00    +0.000 N 
ATOM     12  C   UNL     1      49.649   6.989  15.908  0.00  0.00    +0.000 A 
ATOM     13  O   UNL     1      49.286   5.859  15.598  0.00  0.00    +0.000 OA
ATOM     14  C   UNL     1      49.448   8.167  15.086  0.00  0.00    +0.000 A 
ATOM     15  H   UNL     1      50.406   6.427  17.708  0.00  0.00    +0.000 HD
ENDBRANCH   2   5
BRANCH   3  16
ATOM     16  C   UNL     1      46.416   5.538  12.924  0.00  0.00    +0.000 C 
BRANCH  16  17
ATOM     17  C   UNL     1      45.009   5.963  12.475  0.00  0.00    +0.000 C 
ATOM     18  C   UNL     1      43.925   4.922  12.792  0.00  0.00    +0.000 C 
ATOM     19  C   UNL     1      44.097   3.638  11.978  0.00  0.00    +0.000 C 
ATOM     20  N   UNL     1      44.122   3.887  10.530  0.00  0.00    +0.000 NA
ATOM     21  C   UNL     1      45.086   4.932  10.142  0.00  0.00    +0.000 C 
ATOM     22  C   UNL     1      44.970   6.222  10.964  0.00  0.00    +0.000 C 
BRANCH  20  23
ATOM     23  C   UNL     1      44.402   2.649   9.767  0.00  0.00    +0.000 C 
BRANCH  23  24
ATOM     24  C   UNL     1      45.665   2.673   8.867  0.00  0.00    +0.000 C 
ATOM     25  C   UNL     1      45.422   3.596   7.655  0.00  0.00    +0.000 C 
ATOM     26  C   UNL     1      46.543   3.538   6.617  0.00  0.00    +0.000 C 
ATOM     27  C   UNL     1      46.845   2.104   6.199  0.00  0.00    +0.000 C 
ATOM     28  C   UNL     1      47.202   1.258   7.413  0.00  0.00    +0.000 C 
ATOM     29  C   UNL     1      46.065   1.255   8.429  0.00  0.00    +0.000 C 
ENDBRANCH  23  24
ENDBRANCH  20  23
ENDBRANCH  16  17
ENDBRANCH   3  16
TORSDOF 5
ENDMDL
MODEL 7
REMARK VINA RESULT:    -7.025      3.240      9.694
REMARK INTER + INTRA:          -9.685
REMARK INTER:                  -8.656
REMARK INTRA:                  -1.028
REMARK UNBOUND:                -0.607
REMARK  Name = 
REMARK  5 active torsions:
REMARK  status: ('A' for Active; 'I' for Inactive)
REMARK    1  A    between atoms: C_2  and  C_18
REMARK    2  A    between atoms: N_3  and  C_4
REMARK    3  A    between atoms: C_4  and  C_5
REMARK    4  A    between atoms: N_8  and  C_9
REMARK    5  A    between atoms: C_9  and  C_10
REMARK                            x       y       z     vdW  Elec       q    Type
REMARK                         _______ _______ _______ _____ _____    ______ ____
ROOT
ATOM      1  O   UNL     1      48.935   6.442  13.376  0.00  0.00    +0.000 OA
ATOM      2  C   UNL     1      47.843   6.164  13.861  0.00  0.00    +0.000 C 
ATOM      3  N   UNL     1      47.680   5.838  15.186  0.00  0.00    +0.000 N 
ATOM      4  H   UNL     1      46.740   5.762  15.555  0.00  0.00    +0.000 HD
ENDROOT
BRANCH   2   5
ATOM      5  C   UNL     1      46.624   6.102  13.042  0.00  0.00    +0.000 A 
ATOM      6  C   UNL     1      46.060   7.266  12.539  0.00  0.00    +0.000 A 
ATOM      7  S   UNL     1      44.710   6.989  11.533  0.00  0.00    +0.000 S 
ATOM      8  C   UNL     1      44.801   5.306  11.775  0.00  0.00    +0.000 A 
ATOM      9  N   UNL     1      43.925   4.458  11.171  0.00  0.00    +0.000 NA
ATOM     10  C   UNL     1      44.088   3.215  11.477  0.00  0.00    +0.000 A 
ATOM     11  N   UNL     1      45.039   2.741  12.343  0.00  0.00    +0.000 N 
ATOM     12  C   UNL     1      45.964   3.555  12.950  0.00  0.00    +0.000 A 
ATOM     13  O   UNL     1      46.836   3.089  13.676  0.00  0.00    +0.000 OA
ATOM     14  C   UNL     1      45.835   4.963  12.629  0.00  0.00    +0.000 A 
ATOM     15  H   UNL     1      45.113   1.755  12.543  0.00  0.00    +0.000 HD
ENDBRANCH   2   5
BRANCH   3  16
ATOM     16  C   UNL     1      48.742   5.903  16.164  0.00  0.00    +0.000 C 
BRANCH  16  17
ATOM     17  C   UNL     1      48.726   4.727  17.154  0.00  0.00    +0.000 C 
ATOM     18  C   UNL     1      47.405   4.596  17.927  0.00  0.00    +0.000 C 
ATOM     19  C   UNL     1      47.176   5.766  18.886  0.00  0.00    +0.000 C 
ATOM     20  N   UNL     1      48.280   5.940  19.839  0.00  0.00    +0.000 NA
ATOM     21  C   UNL     1      49.600   6.000  19.186  0.00  0.00    +0.000 C 
ATOM     22  C   UNL     1      49.852   4.864  18.186  0.00  0.00    +0.000 C 
BRANCH  20  23
ATOM     23  C   UNL     1      48.091   7.144  20.682  0.00  0.00    +0.000 C 
BRANCH  23  24
ATOM     24  C   UNL     1      48.279   8.510  19.971  0.00  0.00    +0.000 C 
ATOM     25  C   UNL     1      49.377   9.321  20.689  0.00  0.00    +0.000 C 
ATOM     26  C   UNL     1      49.503  10.755  20.173  0.00  0.00    +0.000 C 
ATOM     27  C   UNL     1      48.159  11.473  20.180  0.00  0.00    +0.000 C 
ATOM     28  C   UNL     1      47.137  10.701  19.356  0.00  0.00    +0.000 C 
ATOM     29  C   UNL     1      46.954   9.287  19.900  0.00  0.00    +0.000 C 
ENDBRANCH  23  24
ENDBRANCH  20  23
ENDBRANCH  16  17
ENDBRANCH   3  16
TORSDOF 5
ENDMDL
MODEL 8
REMARK VINA RESULT:    -6.787      3.231      8.704
REMARK INTER + INTRA:          -9.377
REMARK INTER:                  -8.449
REMARK INTRA:                  -0.928
REMARK UNBOUND:                -0.607
REMARK  Name = 
REMARK  5 active torsions:
REMARK  status: ('A' for Active; 'I' for Inactive)
REMARK    1  A    between atoms: C_2  and  C_18
REMARK    2  A    between atoms: N_3  and  C_4
REMARK    3  A    between atoms: C_4  and  C_5
REMARK    4  A    between atoms: N_8  and  C_9
REMARK    5  A    between atoms: C_9  and  C_10
REMARK                            x       y       z     vdW  Elec       q    Type
REMARK                         _______ _______ _______ _____ _____    ______ ____
ROOT
ATOM      1  O   UNL     1      44.451   7.596  11.078  0.00  0.00    +0.000 OA
ATOM      2  C   UNL     1      44.950   6.690  11.739  0.00  0.00    +0.000 C 
ATOM      3  N   UNL     1      45.934   6.907  12.671  0.00  0.00    +0.000 N 
ATOM      4  H   UNL     1      46.200   6.144  13.283  0.00  0.00    +0.000 HD
ENDROOT
BRANCH   2   5
ATOM      5  C   UNL     1      44.567   5.285  11.540  0.00  0.00    +0.000 A 
ATOM      6  C   UNL     1      43.882   4.600  12.533  0.00  0.00    +0.000 A 
ATOM      7  S   UNL     1      43.439   3.013  12.084  0.00  0.00    +0.000 S 
ATOM      8  C   UNL     1      44.192   3.169  10.566  0.00  0.00    +0.000 A 
ATOM      9  N   UNL     1      44.172   2.155   9.661  0.00  0.00    +0.000 NA
ATOM     10  C   UNL     1      44.817   2.398   8.570  0.00  0.00    +0.000 A 
ATOM     11  N   UNL     1      45.493   3.561   8.305  0.00  0.00    +0.000 N 
ATOM     12  C   UNL     1      45.515   4.624   9.174  0.00  0.00    +0.000 A 
ATOM     13  O   UNL     1      46.084   5.670   8.879  0.00  0.00    +0.000 OA
ATOM     14  C   UNL     1      44.791   4.407  10.413  0.00  0.00    +0.000 A 
ATOM     15  H   UNL     1      45.982   3.689   7.431  0.00  0.00    +0.000 HD
ENDBRANCH   2   5
BRANCH   3  16
ATOM     16  C   UNL     1      46.400   8.220  13.056  0.00  0.00    +0.000 C 
BRANCH  16  17
ATOM     17  C   UNL     1      47.573   8.722  12.199  0.00  0.00    +0.000 C 
ATOM     18  C   UNL     1      48.685   7.679  12.011  0.00  0.00    +0.000 C 
ATOM     19  C   UNL     1      49.414   7.367  13.319  0.00  0.00    +0.000 C 
ATOM     20  N   UNL     1      49.977   8.568  13.951  0.00  0.00    +0.000 NA
ATOM     21  C   UNL     1      48.994   9.654  14.103  0.00  0.00    +0.000 C 
ATOM     22  C   UNL     1      48.212   9.969  12.821  0.00  0.00    +0.000 C 
BRANCH  20  23
ATOM     23  C   UNL     1      50.580   8.260  15.269  0.00  0.00    +0.000 C 
BRANCH  23  24
ATOM     24  C   UNL     1      50.146   6.923  15.922  0.00  0.00    +0.000 C 
ATOM     25  C   UNL     1      48.977   7.177  16.897  0.00  0.00    +0.000 C 
ATOM     26  C   UNL     1      48.604   5.947  17.725  0.00  0.00    +0.000 C 
ATOM     27  C   UNL     1      49.819   5.353  18.426  0.00  0.00    +0.000 C 
ATOM     28  C   UNL     1      50.901   5.002  17.413  0.00  0.00    +0.000 C 
ATOM     29  C   UNL     1      51.329   6.234  16.622  0.00  0.00    +0.000 C 
ENDBRANCH  23  24
ENDBRANCH  20  23
ENDBRANCH  16  17
ENDBRANCH   3  16
TORSDOF 5
ENDMDL
MODEL 9
REMARK VINA RESULT:    -6.699      3.450      8.312
REMARK INTER + INTRA:          -9.264
REMARK INTER:                  -8.831
REMARK INTRA:                  -0.433
REMARK UNBOUND:                -0.607
REMARK  Name = 
REMARK  5 active torsions:
REMARK  status: ('A' for Active; 'I' for Inactive)
REMARK    1  A    between atoms: C_2  and  C_18
REMARK    2  A    between atoms: N_3  and  C_4
REMARK    3  A    between atoms: C_4  and  C_5
REMARK    4  A    between atoms: N_8  and  C_9
REMARK    5  A    between atoms: C_9  and  C_10
REMARK                            x       y       z     vdW  Elec       q    Type
REMARK                         _______ _______ _______ _____ _____    ______ ____
ROOT
ATOM      1  O   UNL     1      47.880   5.322  13.884  0.00  0.00    +0.000 OA
ATOM      2  C   UNL     1      47.472   6.068  13.000  0.00  0.00    +0.000 C 
ATOM      3  N   UNL     1      48.226   7.094  12.486  0.00  0.00    +0.000 N 
ATOM      4  H   UNL     1      47.891   7.578  11.662  0.00  0.00    +0.000 HD
ENDROOT
BRANCH   2   5
ATOM      5  C   UNL     1      46.110   5.954  12.458  0.00  0.00    +0.000 A 
ATOM      6  C   UNL     1      45.451   7.078  11.982  0.00  0.00    +0.000 A 
ATOM      7  S   UNL     1      43.922   6.736  11.304  0.00  0.00    +0.000 S 
ATOM      8  C   UNL     1      44.067   5.079  11.668  0.00  0.00    +0.000 A 
ATOM      9  N   UNL     1      43.088   4.196  11.335  0.00  0.00    +0.000 NA
ATOM     10  C   UNL     1      43.314   2.981  11.708  0.00  0.00    +0.000 A 
ATOM     11  N   UNL     1      44.425   2.570  12.398  0.00  0.00    +0.000 N 
ATOM     12  C   UNL     1      45.453   3.418  12.728  0.00  0.00    +0.000 A 
ATOM     13  O   UNL     1      46.457   3.004  13.296  0.00  0.00    +0.000 OA
ATOM     14  C   UNL     1      45.255   4.796  12.317  0.00  0.00    +0.000 A 
ATOM     15  H   UNL     1      44.541   1.603  12.664  0.00  0.00    +0.000 HD
ENDBRANCH   2   5
BRANCH   3  16
ATOM     16  C   UNL     1      49.607   7.330  12.843  0.00  0.00    +0.000 C 
BRANCH  16  17
ATOM     17  C   UNL     1      49.823   8.656  13.588  0.00  0.00    +0.000 C 
ATOM     18  C   UNL     1      51.121   8.693  14.409  0.00  0.00    +0.000 C 
ATOM     19  C   UNL     1      51.089   7.719  15.588  0.00  0.00    +0.000 C 
ATOM     20  N   UNL     1      49.944   7.948  16.479  0.00  0.00    +0.000 NA
ATOM     21  C   UNL     1      48.658   8.004  15.762  0.00  0.00    +0.000 C 
ATOM     22  C   UNL     1      48.663   8.942  14.548  0.00  0.00    +0.000 C 
BRANCH  20  23
ATOM     23  C   UNL     1      49.869   6.925  17.548  0.00  0.00    +0.000 C 
BRANCH  23  24
ATOM     24  C   UNL     1      49.366   5.523  17.116  0.00  0.00    +0.000 C 
ATOM     25  C   UNL     1      47.911   5.326  17.591  0.00  0.00    +0.000 C 
ATOM     26  C   UNL     1      47.393   3.904  17.372  0.00  0.00    +0.000 C 
ATOM     27  C   UNL     1      48.338   2.866  17.964  0.00  0.00    +0.000 C 
ATOM     28  C   UNL     1      49.734   3.018  17.376  0.00  0.00    +0.000 C 
ATOM     29  C   UNL     1      50.290   4.413  17.642  0.00  0.00    +0.000 C 
ENDBRANCH  23  24
ENDBRANCH  20  23
ENDBRANCH  16  17
ENDBRANCH   3  16
TORSDOF 5
ENDMDL
