MODEL 1
REMARK VINA RESULT:    -8.999      0.000      0.000
REMARK INTER + INTRA:         -11.933
REMARK INTER:                 -11.104
REMARK INTRA:                  -0.830
REMARK UNBOUND:                -0.830
REMARK  Name = 
REMARK  4 active torsions:
REMARK  status: ('A' for Active; 'I' for Inactive)
REMARK    1  A    between atoms: C_2  and  C_4
REMARK    2  A    between atoms: N_8  and  C_9
REMARK    3  A    between atoms: C_9  and  C_10
REMARK    4  A    between atoms: C_12  and  C_13
REMARK                            x       y       z     vdW  Elec       q    Type
REMARK                         _______ _______ _______ _____ _____    ______ ____
ROOT
ATOM      1  C   UNL     1      43.477   4.976  10.901  0.00  0.00    +0.000 C 
ENDROOT
BRANCH   1   6
ATOM      2  C   UNL     1      46.339   2.221   7.628  0.00  0.00    +0.000 A 
ATOM      3  C   UNL     1      45.685   1.806   8.784  0.00  0.00    +0.000 A 
ATOM      4  C   UNL     1      44.834   2.695   9.441  0.00  0.00    +0.000 A 
ATOM      5  C   UNL     1      44.651   3.982   8.941  0.00  0.00    +0.000 A 
ATOM      6  N   UNL     1      43.776   4.892   9.483  0.00  0.00    +0.000 N 
ATOM      7  N   UNL     1      45.294   4.398   7.830  0.00  0.00    +0.000 NA
ATOM      8  C   UNL     1      46.124   3.522   7.203  0.00  0.00    +0.000 A 
ATOM      9  H   UNL     1      43.832   5.773   8.984  0.00  0.00    +0.000 HD
BRANCH   2  11
ATOM     10  N   UNL     1      48.307   1.941   6.233  0.00  0.00    +0.000 N 
ATOM     11  C   UNL     1      47.246   1.345   6.862  0.00  0.00    +0.000 C 
ATOM     12  O   UNL     1      47.076   0.135   6.812  0.00  0.00    +0.000 OA
ATOM     13  H   UNL     1      48.974   1.321   5.791  0.00  0.00    +0.000 HD
ATOM     14  H   UNL     1      48.617   2.875   6.454  0.00  0.00    +0.000 HD
ENDBRANCH   2  11
ENDBRANCH   1   6
BRANCH   1  15
ATOM     15  C   UNL     1      44.655   5.289  11.793  0.00  0.00    +0.000 A 
ATOM     16  C   UNL     1      45.550   6.355  11.595  0.00  0.00    +0.000 A 
ATOM     17  C   UNL     1      46.621   6.615  12.481  0.00  0.00    +0.000 A 
ATOM     18  C   UNL     1      46.768   5.764  13.591  0.00  0.00    +0.000 A 
ATOM     19  C   UNL     1      45.884   4.707  13.812  0.00  0.00    +0.000 A 
ATOM     20  C   UNL     1      44.846   4.482  12.918  0.00  0.00    +0.000 A 
ATOM     21  F   UNL     1      44.007   3.462  13.151  0.00  0.00    +0.000 F 
BRANCH  17  22
ATOM     22  C   UNL     1      47.543   7.750  12.249  0.00  0.00    +0.000 A 
ATOM     23  C   UNL     1      48.877   7.560  11.861  0.00  0.00    +0.000 A 
ATOM     24  C   UNL     1      49.712   8.649  11.612  0.00  0.00    +0.000 A 
ATOM     25  C   UNL     1      49.198   9.921  11.776  0.00  0.00    +0.000 A 
ATOM     26  N   UNL     1      47.931  10.168  12.164  0.00  0.00    +0.000 NA
ATOM     27  C   UNL     1      47.142   9.084  12.383  0.00  0.00    +0.000 A 
ENDBRANCH  17  22
ENDBRANCH   1  15
TORSDOF 4
ENDMDL
MODEL 2
REMARK VINA RESULT:    -8.025      2.396      3.547
REMARK INTER + INTRA:         -10.732
REMARK INTER:                 -10.042
REMARK INTRA:                  -0.690
REMARK UNBOUND:                -0.830
REMARK  Name = 
REMARK  4 active torsions:
REMARK  status: ('A' for Active; 'I' for Inactive)
REMARK    1  A    between atoms: C_2  and  C_4
REMARK    2  A    between atoms: N_8  and  C_9
REMARK    3  A    between atoms: C_9  and  C_10
REMARK    4  A    between atoms: C_12  and  C_13
REMARK                            x       y       z     vdW  Elec       q    Type
REMARK                         _______ _______ _______ _____ _____    ______ ____
ROOT
ATOM      1  C   UNL     1      43.944   5.290  11.201  0.00  0.00    +0.000 C 
ENDROOT
BRANCH   1   6
ATOM      2  C   UNL     1      46.301   2.048   7.972  0.00  0.00    +0.000 A 
ATOM      3  C   UNL     1      45.531   1.762   9.095  0.00  0.00    +0.000 A 
ATOM      4  C   UNL     1      44.857   2.798   9.741  0.00  0.00    +0.000 A 
ATOM      5  C   UNL     1      44.963   4.102   9.262  0.00  0.00    +0.000 A 
ATOM      6  N   UNL     1      44.274   5.166   9.793  0.00  0.00    +0.000 N 
ATOM      7  N   UNL     1      45.721   4.391   8.185  0.00  0.00    +0.000 NA
ATOM      8  C   UNL     1      46.376   3.371   7.568  0.00  0.00    +0.000 A 
ATOM      9  H   UNL     1      44.530   6.023   9.315  0.00  0.00    +0.000 HD
BRANCH   2  11
ATOM     10  N   UNL     1      46.790  -0.293   7.547  0.00  0.00    +0.000 N 
ATOM     11  C   UNL     1      47.037   1.014   7.219  0.00  0.00    +0.000 C 
ATOM     12  O   UNL     1      47.813   1.308   6.321  0.00  0.00    +0.000 OA
ATOM     13  H   UNL     1      47.227  -0.994   6.962  0.00  0.00    +0.000 HD
ATOM     14  H   UNL     1      45.990  -0.576   8.094  0.00  0.00    +0.000 HD
ENDBRANCH   2  11
ENDBRANCH   1   6
BRANCH   1  15
ATOM     15  C   UNL     1      45.018   5.909  12.065  0.00  0.00    +0.000 A 
ATOM     16  C   UNL     1      45.705   5.239  13.092  0.00  0.00    +0.000 A 
ATOM     17  C   UNL     1      46.722   5.865  13.851  0.00  0.00    +0.000 A 
ATOM     18  C   UNL     1      47.036   7.201  13.542  0.00  0.00    +0.000 A 
ATOM     19  C   UNL     1      46.373   7.879  12.519  0.00  0.00    +0.000 A 
ATOM     20  C   UNL     1      45.378   7.233  11.798  0.00  0.00    +0.000 A 
ATOM     21  F   UNL     1      44.755   7.903  10.818  0.00  0.00    +0.000 F 
BRANCH  17  22
ATOM     22  C   UNL     1      47.434   5.130  14.921  0.00  0.00    +0.000 A 
ATOM     23  C   UNL     1      47.160   3.786  15.211  0.00  0.00    +0.000 A 
ATOM     24  C   UNL     1      47.874   3.107  16.200  0.00  0.00    +0.000 A 
ATOM     25  C   UNL     1      48.843   3.799  16.900  0.00  0.00    +0.000 A 
ATOM     26  N   UNL     1      49.138   5.095  16.681  0.00  0.00    +0.000 NA
ATOM     27  C   UNL     1      48.435   5.719  15.701  0.00  0.00    +0.000 A 
ENDBRANCH  17  22
ENDBRANCH   1  15
TORSDOF 4
ENDMDL
MODEL 3
REMARK VINA RESULT:    -7.937      3.277      7.179
REMARK INTER + INTRA:         -10.623
REMARK INTER:                 -10.002
REMARK INTRA:                  -0.620
REMARK UNBOUND:                -0.830
REMARK  Name = 
REMARK  4 active torsions:
REMARK  status: ('A' for Active; 'I' for Inactive)
REMARK    1  A    between atoms: C_2  and  C_4
REMARK    2  A    between atoms: N_8  and  C_9
REMARK    3  A    between atoms: C_9  and  C_10
REMARK    4  A    between atoms: C_12  and  C_13
REMARK                            x       y       z     vdW  Elec       q    Type
REMARK                         _______ _______ _______ _____ _____    ______ ____
ROOT
ATOM      1  C   UNL     1      44.921   6.548  11.359  0.00  0.00    +0.000 C 
ENDROOT
BRANCH   1   6
ATOM      2  C   UNL     1      47.973   5.548  15.381  0.00  0.00    +0.000 A 
ATOM      3  C   UNL     1      47.013   4.737  14.786  0.00  0.00    +0.000 A 
ATOM      4  C   UNL     1      46.404   5.155  13.602  0.00  0.00    +0.000 A 
ATOM      5  C   UNL     1      46.759   6.376  13.033  0.00  0.00    +0.000 A 
ATOM      6  N   UNL     1      46.264   6.828  11.833  0.00  0.00    +0.000 N 
ATOM      7  N   UNL     1      47.676   7.178  13.612  0.00  0.00    +0.000 NA
ATOM      8  C   UNL     1      48.257   6.757  14.768  0.00  0.00    +0.000 A 
ATOM      9  H   UNL     1      46.628   7.753  11.630  0.00  0.00    +0.000 HD
BRANCH   2  11
ATOM     10  N   UNL     1      47.908   4.976  17.740  0.00  0.00    +0.000 N 
ATOM     11  C   UNL     1      48.676   5.179  16.625  0.00  0.00    +0.000 C 
ATOM     12  O   UNL     1      49.890   5.033  16.654  0.00  0.00    +0.000 OA
ATOM     13  H   UNL     1      48.390   4.632  18.562  0.00  0.00    +0.000 HD
ATOM     14  H   UNL     1      46.909   4.843  17.697  0.00  0.00    +0.000 HD
ENDBRANCH   2  11
ENDBRANCH   1   6
BRANCH   1  15
ATOM     15  C   UNL     1      44.708   5.162  10.800  0.00  0.00    +0.000 A 
ATOM     16  C   UNL     1      45.405   4.623   9.705  0.00  0.00    +0.000 A 
ATOM     17  C   UNL     1      45.180   3.305   9.242  0.00  0.00    +0.000 A 
ATOM     18  C   UNL     1      44.223   2.531   9.924  0.00  0.00    +0.000 A 
ATOM     19  C   UNL     1      43.529   3.043  11.020  0.00  0.00    +0.000 A 
ATOM     20  C   UNL     1      43.775   4.342  11.442  0.00  0.00    +0.000 A 
ATOM     21  F   UNL     1      43.098   4.814  12.499  0.00  0.00    +0.000 F 
BRANCH  17  22
ATOM     22  C   UNL     1      45.936   2.763   8.090  0.00  0.00    +0.000 A 
ATOM     23  C   UNL     1      46.257   3.548   6.974  0.00  0.00    +0.000 A 
ATOM     24  C   UNL     1      47.004   3.022   5.919  0.00  0.00    +0.000 A 
ATOM     25  C   UNL     1      47.403   1.701   5.993  0.00  0.00    +0.000 A 
ATOM     26  N   UNL     1      47.109   0.892   7.030  0.00  0.00    +0.000 NA
ATOM     27  C   UNL     1      46.394   1.442   8.045  0.00  0.00    +0.000 A 
ENDBRANCH  17  22
ENDBRANCH   1  15
TORSDOF 4
ENDMDL
MODEL 4
REMARK VINA RESULT:    -7.905      2.203      2.716
REMARK INTER + INTRA:         -10.583
REMARK INTER:                  -9.959
REMARK INTRA:                  -0.624
REMARK UNBOUND:                -0.830
REMARK  Name = 
REMARK  4 active torsions:
REMARK  status: ('A' for Active; 'I' for Inactive)
REMARK    1  A    between atoms: C_2  and  C_4
REMARK    2  A    between atoms: N_8  and  C_9
REMARK    3  A    between atoms: C_9  and  C_10
REMARK    4  A    between atoms: C_12  and  C_13
REMARK                            x       y       z     vdW  Elec       q    Type
REMARK                         _______ _______ _______ _____ _____    ______ ____
ROOT
ATOM      1  C   UNL     1      44.502   5.517  11.137  0.00  0.00    +0.000 C 
ENDROOT
BRANCH   1   6
ATOM      2  C   UNL     1      46.590   2.407   7.607  0.00  0.00    +0.000 A 
ATOM      3  C   UNL     1      45.872   2.076   8.751  0.00  0.00    +0.000 A 
ATOM      4  C   UNL     1      45.263   3.090   9.491  0.00  0.00    +0.000 A 
ATOM      5  C   UNL     1      45.382   4.416   9.082  0.00  0.00    +0.000 A 
ATOM      6  N   UNL     1      44.754   5.466   9.709  0.00  0.00    +0.000 N 
ATOM      7  N   UNL     1      46.092   4.748   7.983  0.00  0.00    +0.000 NA
ATOM      8  C   UNL     1      46.683   3.748   7.276  0.00  0.00    +0.000 A 
ATOM      9  H   UNL     1      45.010   6.342   9.267  0.00  0.00    +0.000 HD
BRANCH   2  11
ATOM     10  N   UNL     1      48.249   1.841   5.927  0.00  0.00    +0.000 N 
ATOM     11  C   UNL     1      47.255   1.399   6.758  0.00  0.00    +0.000 C 
ATOM     12  O   UNL     1      46.952   0.215   6.814  0.00  0.00    +0.000 OA
ATOM     13  H   UNL     1      48.762   1.129   5.420  0.00  0.00    +0.000 HD
ATOM     14  H   UNL     1      48.689   2.743   6.034  0.00  0.00    +0.000 HD
ENDBRANCH   2  11
ENDBRANCH   1   6
BRANCH   1  15
ATOM     15  C   UNL     1      45.218   6.618  11.882  0.00  0.00    +0.000 A 
ATOM     16  C   UNL     1      46.376   6.438  12.659  0.00  0.00    +0.000 A 
ATOM     17  C   UNL     1      47.019   7.515  13.313  0.00  0.00    +0.000 A 
ATOM     18  C   UNL     1      46.461   8.797  13.158  0.00  0.00    +0.000 A 
ATOM     19  C   UNL     1      45.319   8.998  12.382  0.00  0.00    +0.000 A 
ATOM     20  C   UNL     1      44.714   7.915  11.758  0.00  0.00    +0.000 A 
ATOM     21  F   UNL     1      43.619   8.132  11.016  0.00  0.00    +0.000 F 
BRANCH  17  22
ATOM     22  C   UNL     1      48.242   7.295  14.118  0.00  0.00    +0.000 A 
ATOM     23  C   UNL     1      49.385   8.094  13.971  0.00  0.00    +0.000 A 
ATOM     24  C   UNL     1      50.510   7.889  14.771  0.00  0.00    +0.000 A 
ATOM     25  C   UNL     1      50.477   6.866  15.699  0.00  0.00    +0.000 A 
ATOM     26  N   UNL     1      49.416   6.053  15.874  0.00  0.00    +0.000 NA
ATOM     27  C   UNL     1      48.334   6.292  15.089  0.00  0.00    +0.000 A 
ENDBRANCH  17  22
ENDBRANCH   1  15
TORSDOF 4
ENDMDL
MODEL 5
REMARK VINA RESULT:    -7.878      2.972      6.883
REMARK INTER + INTRA:         -10.550
REMARK INTER:                  -9.907
REMARK INTRA:                  -0.643
REMARK UNBOUND:                -0.830
REMARK  Name = 
REMARK  4 active torsions:
REMARK  status: ('A' for Active; 'I' for Inactive)
REMARK    1  A    between atoms: C_2  and  C_4
REMARK    2  A    between atoms: N_8  and  C_9
REMARK    3  A    between atoms: C_9  and  C_10
REMARK    4  A    between atoms: C_12  and  C_13
REMARK                            x       y       z     vdW  Elec       q    Type
REMARK                         _______ _______ _______ _____ _____    ______ ____
ROOT
ATOM      1  C   UNL     1      43.879   6.601  11.383  0.00  0.00    +0.000 C 
ENDROOT
BRANCH   1   6
ATOM      2  C   UNL     1      48.232   6.987  14.102  0.00  0.00    +0.000 A 
ATOM      3  C   UNL     1      47.455   5.863  13.847  0.00  0.00    +0.000 A 
ATOM      4  C   UNL     1      46.389   5.958  12.952  0.00  0.00    +0.000 A 
ATOM      5  C   UNL     1      46.113   7.173  12.329  0.00  0.00    +0.000 A 
ATOM      6  N   UNL     1      45.131   7.335  11.380  0.00  0.00    +0.000 N 
ATOM      7  N   UNL     1      46.851   8.274  12.582  0.00  0.00    +0.000 NA
ATOM      8  C   UNL     1      47.883   8.165  13.461  0.00  0.00    +0.000 A 
ATOM      9  H   UNL     1      45.081   8.306  11.090  0.00  0.00    +0.000 HD
BRANCH   2  11
ATOM     10  N   UNL     1      50.577   7.447  14.540  0.00  0.00    +0.000 N 
ATOM     11  C   UNL     1      49.386   6.974  15.023  0.00  0.00    +0.000 C 
ATOM     12  O   UNL     1      49.278   6.585  16.177  0.00  0.00    +0.000 OA
ATOM     13  H   UNL     1      51.335   7.522  15.207  0.00  0.00    +0.000 HD
ATOM     14  H   UNL     1      50.643   7.997  13.696  0.00  0.00    +0.000 HD
ENDBRANCH   2  11
ENDBRANCH   1   6
BRANCH   1  15
ATOM     15  C   UNL     1      43.979   5.149  10.981  0.00  0.00    +0.000 A 
ATOM     16  C   UNL     1      44.738   4.667   9.900  0.00  0.00    +0.000 A 
ATOM     17  C   UNL     1      44.815   3.290   9.588  0.00  0.00    +0.000 A 
ATOM     18  C   UNL     1      44.100   2.396  10.407  0.00  0.00    +0.000 A 
ATOM     19  C   UNL     1      43.351   2.853  11.491  0.00  0.00    +0.000 A 
ATOM     20  C   UNL     1      43.298   4.213  11.764  0.00  0.00    +0.000 A 
ATOM     21  F   UNL     1      42.572   4.630  12.812  0.00  0.00    +0.000 F 
BRANCH  17  22
ATOM     22  C   UNL     1      45.629   2.812   8.447  0.00  0.00    +0.000 A 
ATOM     23  C   UNL     1      46.038   3.667   7.413  0.00  0.00    +0.000 A 
ATOM     24  C   UNL     1      46.837   3.198   6.371  0.00  0.00    +0.000 A 
ATOM     25  C   UNL     1      47.200   1.865   6.371  0.00  0.00    +0.000 A 
ATOM     26  N   UNL     1      46.823   0.991   7.325  0.00  0.00    +0.000 NA
ATOM     27  C   UNL     1      46.059   1.485   8.332  0.00  0.00    +0.000 A 
ENDBRANCH  17  22
ENDBRANCH   1  15
TORSDOF 4
ENDMDL
MODEL 6
REMARK VINA RESULT:    -7.749      2.966      6.637
REMARK INTER + INTRA:         -10.391
REMARK INTER:                  -9.576
REMARK INTRA:                  -0.815
REMARK UNBOUND:                -0.830
REMARK  Name = 
REMARK  4 active torsions:
REMARK  status: ('A' for Active; 'I' for Inactive)
REMARK    1  A    between atoms: C_2  and  C_4
REMARK    2  A    between atoms: N_8  and  C_9
REMARK    3  A    between atoms: C_9  and  C_10
REMARK    4  A    between atoms: C_12  and  C_13
REMARK                            x       y       z     vdW  Elec       q    Type
REMARK                         _______ _______ _______ _____ _____    ______ ____
ROOT
ATOM      1  C   UNL     1      44.686   6.064  12.882  0.00  0.00    +0.000 C 
ENDROOT
BRANCH   1   6
ATOM      2  C   UNL     1      49.368   8.075  12.160  0.00  0.00    +0.000 A 
ATOM      3  C   UNL     1      48.128   8.594  11.804  0.00  0.00    +0.000 A 
ATOM      4  C   UNL     1      46.969   7.947  12.236  0.00  0.00    +0.000 A 
ATOM      5  C   UNL     1      47.066   6.793  13.011  0.00  0.00    +0.000 A 
ATOM      6  N   UNL     1      45.979   6.138  13.538  0.00  0.00    +0.000 N 
ATOM      7  N   UNL     1      48.265   6.273  13.346  0.00  0.00    +0.000 NA
ATOM      8  C   UNL     1      49.384   6.913  12.913  0.00  0.00    +0.000 A 
ATOM      9  H   UNL     1      46.278   5.306  14.035  0.00  0.00    +0.000 HD
BRANCH   2  11
ATOM     10  N   UNL     1      51.797   8.073  12.147  0.00  0.00    +0.000 N 
ATOM     11  C   UNL     1      50.643   8.701  11.758  0.00  0.00    +0.000 C 
ATOM     12  O   UNL     1      50.672   9.720  11.083  0.00  0.00    +0.000 OA
ATOM     13  H   UNL     1      52.662   8.457  11.786  0.00  0.00    +0.000 HD
ATOM     14  H   UNL     1      51.814   7.119  12.478  0.00  0.00    +0.000 HD
ENDBRANCH   2  11
ENDBRANCH   1   6
BRANCH   1  15
ATOM     15  C   UNL     1      44.465   4.842  12.023  0.00  0.00    +0.000 A 
ATOM     16  C   UNL     1      45.134   4.580  10.815  0.00  0.00    +0.000 A 
ATOM     17  C   UNL     1      44.904   3.402  10.067  0.00  0.00    +0.000 A 
ATOM     18  C   UNL     1      43.972   2.480  10.575  0.00  0.00    +0.000 A 
ATOM     19  C   UNL     1      43.306   2.716  11.778  0.00  0.00    +0.000 A 
ATOM     20  C   UNL     1      43.557   3.885  12.483  0.00  0.00    +0.000 A 
ATOM     21  F   UNL     1      42.907   4.090  13.638  0.00  0.00    +0.000 F 
BRANCH  17  22
ATOM     22  C   UNL     1      45.630   3.151   8.801  0.00  0.00    +0.000 A 
ATOM     23  C   UNL     1      46.016   1.862   8.406  0.00  0.00    +0.000 A 
ATOM     24  C   UNL     1      46.665   1.650   7.190  0.00  0.00    +0.000 A 
ATOM     25  C   UNL     1      46.936   2.745   6.391  0.00  0.00    +0.000 A 
ATOM     26  N   UNL     1      46.608   4.009   6.724  0.00  0.00    +0.000 NA
ATOM     27  C   UNL     1      45.964   4.176   7.908  0.00  0.00    +0.000 A 
ENDBRANCH  17  22
ENDBRANCH   1  15
TORSDOF 4
ENDMDL
MODEL 7
REMARK VINA RESULT:    -7.492      2.394      2.985
REMARK INTER + INTRA:         -10.074
REMARK INTER:                  -9.656
REMARK INTRA:                  -0.418
REMARK UNBOUND:                -0.830
REMARK  Name = 
REMARK  4 active torsions:
REMARK  status: ('A' for Active; 'I' for Inactive)
REMARK    1  A    between atoms: C_2  and  C_4
REMARK    2  A    between atoms: N_8  and  C_9
REMARK    3  A    between atoms: C_9  and  C_10
REMARK    4  A    between atoms: C_12  and  C_13
REMARK                            x       y       z     vdW  Elec       q    Type
REMARK                         _______ _______ _______ _____ _____    ______ ____
ROOT
ATOM      1  C   UNL     1      43.630   3.963  11.369  0.00  0.00    +0.000 C 
ENDROOT
BRANCH   1   6
ATOM      2  C   UNL     1      46.537   2.797   7.284  0.00  0.00    +0.000 A 
ATOM      3  C   UNL     1      46.305   4.037   7.869  0.00  0.00    +0.000 A 
ATOM      4  C   UNL     1      45.599   4.103   9.071  0.00  0.00    +0.000 A 
ATOM      5  C   UNL     1      45.133   2.934   9.668  0.00  0.00    +0.000 A 
ATOM      6  N   UNL     1      44.496   2.904  10.885  0.00  0.00    +0.000 N 
ATOM      7  N   UNL     1      45.339   1.728   9.099  0.00  0.00    +0.000 NA
ATOM      8  C   UNL     1      46.025   1.681   7.925  0.00  0.00    +0.000 A 
ATOM      9  H   UNL     1      44.212   1.956  11.108  0.00  0.00    +0.000 HD
BRANCH   2  11
ATOM     10  N   UNL     1      48.615   2.323   6.120  0.00  0.00    +0.000 N 
ATOM     11  C   UNL     1      47.285   2.633   6.023  0.00  0.00    +0.000 C 
ATOM     12  O   UNL     1      46.735   2.739   4.935  0.00  0.00    +0.000 OA
ATOM     13  H   UNL     1      49.095   2.119   5.252  0.00  0.00    +0.000 HD
ATOM     14  H   UNL     1      49.035   1.986   6.973  0.00  0.00    +0.000 HD
ENDBRANCH   2  11
ENDBRANCH   1   6
BRANCH   1  15
ATOM     15  C   UNL     1      44.335   5.221  11.817  0.00  0.00    +0.000 A 
ATOM     16  C   UNL     1      44.015   6.518  11.380  0.00  0.00    +0.000 A 
ATOM     17  C   UNL     1      44.695   7.663  11.857  0.00  0.00    +0.000 A 
ATOM     18  C   UNL     1      45.718   7.466  12.802  0.00  0.00    +0.000 A 
ATOM     19  C   UNL     1      46.044   6.188  13.256  0.00  0.00    +0.000 A 
ATOM     20  C   UNL     1      45.356   5.088  12.762  0.00  0.00    +0.000 A 
ATOM     21  F   UNL     1      45.684   3.869  13.214  0.00  0.00    +0.000 F 
BRANCH  17  22
ATOM     22  C   UNL     1      44.329   9.018  11.384  0.00  0.00    +0.000 A 
ATOM     23  C   UNL     1      45.099  10.149  11.693  0.00  0.00    +0.000 A 
ATOM     24  C   UNL     1      44.752  11.407  11.201  0.00  0.00    +0.000 A 
ATOM     25  C   UNL     1      43.618  11.516  10.418  0.00  0.00    +0.000 A 
ATOM     26  N   UNL     1      42.828  10.471  10.103  0.00  0.00    +0.000 NA
ATOM     27  C   UNL     1      43.205   9.259  10.586  0.00  0.00    +0.000 A 
ENDBRANCH  17  22
ENDBRANCH   1  15
TORSDOF 4
ENDMDL
MODEL 8
REMARK VINA RESULT:    -7.155      1.857      2.359
REMARK INTER + INTRA:          -9.658
REMARK INTER:                  -9.321
REMARK INTRA:                  -0.337
REMARK UNBOUND:                -0.830
REMARK  Name = 
REMARK  4 active torsions:
REMARK  status: ('A' for Active; 'I' for Inactive)
REMARK    1  A    between atoms: C_2  and  C_4
REMARK    2  A    between atoms: N_8  and  C_9
REMARK    3  A    between atoms: C_9  and  C_10
REMARK    4  A    between atoms: C_12  and  C_13
REMARK                            x       y       z     vdW  Elec       q    Type
REMARK                         _______ _______ _______ _____ _____    ______ ____
ROOT
ATOM      1  C   UNL     1      43.745   3.437  11.359  0.00  0.00    +0.000 C 
ENDROOT
BRANCH   1   6
ATOM      2  C   UNL     1      46.543   2.696   7.103  0.00  0.00    +0.000 A 
ATOM      3  C   UNL     1      46.113   3.889   7.672  0.00  0.00    +0.000 A 
ATOM      4  C   UNL     1      45.491   3.865   8.920  0.00  0.00    +0.000 A 
ATOM      5  C   UNL     1      45.302   2.651   9.578  0.00  0.00    +0.000 A 
ATOM      6  N   UNL     1      44.766   2.546  10.840  0.00  0.00    +0.000 N 
ATOM      7  N   UNL     1      45.699   1.486   9.026  0.00  0.00    +0.000 NA
ATOM      8  C   UNL     1      46.301   1.528   7.807  0.00  0.00    +0.000 A 
ATOM      9  H   UNL     1      44.687   1.570  11.106  0.00  0.00    +0.000 HD
BRANCH   2  11
ATOM     10  N   UNL     1      48.540   2.259   5.792  0.00  0.00    +0.000 N 
ATOM     11  C   UNL     1      47.222   2.630   5.794  0.00  0.00    +0.000 C 
ATOM     12  O   UNL     1      46.627   2.867   4.752  0.00  0.00    +0.000 OA
ATOM     13  H   UNL     1      48.969   2.125   4.884  0.00  0.00    +0.000 HD
ATOM     14  H   UNL     1      48.985   1.821   6.585  0.00  0.00    +0.000 HD
ENDBRANCH   2  11
ENDBRANCH   1   6
BRANCH   1  15
ATOM     15  C   UNL     1      44.198   4.852  11.630  0.00  0.00    +0.000 A 
ATOM     16  C   UNL     1      45.512   5.223  11.963  0.00  0.00    +0.000 A 
ATOM     17  C   UNL     1      45.883   6.570  12.180  0.00  0.00    +0.000 A 
ATOM     18  C   UNL     1      44.882   7.550  12.047  0.00  0.00    +0.000 A 
ATOM     19  C   UNL     1      43.575   7.203  11.706  0.00  0.00    +0.000 A 
ATOM     20  C   UNL     1      43.248   5.870  11.504  0.00  0.00    +0.000 A 
ATOM     21  F   UNL     1      41.986   5.559  11.176  0.00  0.00    +0.000 F 
BRANCH  17  22
ATOM     22  C   UNL     1      47.278   6.930  12.521  0.00  0.00    +0.000 A 
ATOM     23  C   UNL     1      47.802   6.743  13.809  0.00  0.00    +0.000 A 
ATOM     24  C   UNL     1      49.131   7.056  14.093  0.00  0.00    +0.000 A 
ATOM     25  C   UNL     1      49.915   7.573  13.079  0.00  0.00    +0.000 A 
ATOM     26  N   UNL     1      49.464   7.793  11.828  0.00  0.00    +0.000 NA
ATOM     27  C   UNL     1      48.169   7.463  11.584  0.00  0.00    +0.000 A 
ENDBRANCH  17  22
ENDBRANCH   1  15
TORSDOF 4
ENDMDL
MODEL 9
REMARK VINA RESULT:    -6.979      4.430      7.894
REMARK INTER + INTRA:          -9.441
REMARK INTER:                  -8.924
REMARK INTRA:                  -0.517
REMARK UNBOUND:                -0.830
REMARK  Name = 
REMARK  4 active torsions:
REMARK  status: ('A' for Active; 'I' for Inactive)
REMARK    1  A    between atoms: C_2  and  C_4
REMARK    2  A    between atoms: N_8  and  C_9
REMARK    3  A    between atoms: C_9  and  C_10
REMARK    4  A    between atoms: C_12  and  C_13
REMARK                            x       y       z     vdW  Elec       q    Type
REMARK                         _______ _______ _______ _____ _____    ______ ____
ROOT
ATOM      1  C   UNL     1      45.428   4.372  13.848  0.00  0.00    +0.000 C 
ENDROOT
BRANCH   1   6
ATOM      2  C   UNL     1      49.143   4.840  17.380  0.00  0.00    +0.000 A 
ATOM      3  C   UNL     1      48.254   3.790  17.177  0.00  0.00    +0.000 A 
ATOM      4  C   UNL     1      47.423   3.807  16.056  0.00  0.00    +0.000 A 
ATOM      5  C   UNL     1      47.488   4.870  15.159  0.00  0.00    +0.000 A 
ATOM      6  N   UNL     1      46.761   4.929  13.994  0.00  0.00    +0.000 N 
ATOM      7  N   UNL     1      48.335   5.902  15.357  0.00  0.00    +0.000 NA
ATOM      8  C   UNL     1      49.135   5.873  16.456  0.00  0.00    +0.000 A 
ATOM      9  H   UNL     1      46.936   5.806  13.515  0.00  0.00    +0.000 HD
BRANCH   2  11
ATOM     10  N   UNL     1      50.725   3.745  18.861  0.00  0.00    +0.000 N 
ATOM     11  C   UNL     1      50.067   4.899  18.529  0.00  0.00    +0.000 C 
ATOM     12  O   UNL     1      50.260   5.939  19.143  0.00  0.00    +0.000 OA
ATOM     13  H   UNL     1      51.426   3.819  19.589  0.00  0.00    +0.000 HD
ATOM     14  H   UNL     1      50.784   2.952  18.239  0.00  0.00    +0.000 HD
ENDBRANCH   2  11
ENDBRANCH   1   6
BRANCH   1  15
ATOM     15  C   UNL     1      44.870   4.390  12.445  0.00  0.00    +0.000 A 
ATOM     16  C   UNL     1      45.484   3.793  11.331  0.00  0.00    +0.000 A 
ATOM     17  C   UNL     1      44.899   3.819  10.043  0.00  0.00    +0.000 A 
ATOM     18  C   UNL     1      43.659   4.469   9.905  0.00  0.00    +0.000 A 
ATOM     19  C   UNL     1      43.028   5.058  11.001  0.00  0.00    +0.000 A 
ATOM     20  C   UNL     1      43.635   5.014  12.248  0.00  0.00    +0.000 A 
ATOM     21  F   UNL     1      43.010   5.586  13.288  0.00  0.00    +0.000 F 
BRANCH  17  22
ATOM     22  C   UNL     1      45.567   3.174   8.890  0.00  0.00    +0.000 A 
ATOM     23  C   UNL     1      46.094   3.916   7.823  0.00  0.00    +0.000 A 
ATOM     24  C   UNL     1      46.753   3.284   6.768  0.00  0.00    +0.000 A 
ATOM     25  C   UNL     1      46.855   1.906   6.790  0.00  0.00    +0.000 A 
ATOM     26  N   UNL     1      46.353   1.137   7.776  0.00  0.00    +0.000 NA
ATOM     27  C   UNL     1      45.733   1.788   8.795  0.00  0.00    +0.000 A 
ENDBRANCH  17  22
ENDBRANCH   1  15
TORSDOF 4
ENDMDL
