MODEL 1
REMARK VINA RESULT:    -7.566      0.000      0.000
REMARK INTER + INTRA:         -10.588
REMARK INTER:                  -9.999
REMARK INTRA:                  -0.589
REMARK UNBOUND:                -0.589
REMARK  Name = 
REMARK  6 active torsions:
REMARK  status: ('A' for Active; 'I' for Inactive)
REMARK    1  A    between atoms: N_1  and  C_2
REMARK    2  A    between atoms: C_2  and  C_3
REMARK    3  A    between atoms: C_3  and  O_4
REMARK    4  A    between atoms: O_4  and  C_5
REMARK    5  A    between atoms: C_8  and  C_9
REMARK    6  A    between atoms: C_9  and  C_10
REMARK                            x       y       z     vdW  Elec       q    Type
REMARK                         _______ _______ _______ _____ _____    ______ ____
ROOT
ATOM      1  C   UNL     1      46.583   5.251  13.666  0.00  0.00    +0.000 A 
ATOM      2  C   UNL     1      46.858   6.052  12.571  0.00  0.00    +0.000 A 
ATOM      3  C   UNL     1      46.050   5.934  11.440  0.00  0.00    +0.000 A 
ATOM      4  C   UNL     1      44.984   5.023  11.439  0.00  0.00    +0.000 A 
ATOM      5  C   UNL     1      44.784   4.295  12.607  0.00  0.00    +0.000 A 
ATOM      6  N   UNL     1      45.550   4.385  13.708  0.00  0.00    +0.000 NA
ENDROOT
BRANCH   1   7
ATOM      7  O   UNL     1      47.395   5.362  14.778  0.00  0.00    +0.000 OA
BRANCH   7   8
ATOM      8  C   UNL     1      47.478   4.110  15.478  0.00  0.00    +0.000 C 
BRANCH   8   9
ATOM      9  C   UNL     1      47.157   4.310  16.961  0.00  0.00    +0.000 C 
BRANCH   9  10
ATOM     10  N   UNL     1      46.680   3.078  17.594  0.00  0.00    +0.000 NA
ATOM     11  H   UNL     1      45.696   2.946  17.374  0.00  0.00    +0.000 HD
ATOM     12  H   UNL     1      46.738   3.206  18.606  0.00  0.00    +0.000 HD
ENDBRANCH   9  10
ENDBRANCH   8   9
ENDBRANCH   7   8
ENDBRANCH   1   7
BRANCH   4  13
ATOM     13  C   UNL     1      44.117   4.765  10.237  0.00  0.00    +0.000 C 
BRANCH  13  14
ATOM     14  C   UNL     1      44.597   3.503   9.596  0.00  0.00    +0.000 A 
ATOM     15  C   UNL     1      44.213   2.213   9.918  0.00  0.00    +0.000 A 
ATOM     16  N   UNL     1      44.886   1.341   9.104  0.00  0.00    +0.000 N 
ATOM     17  C   UNL     1      45.711   2.033   8.249  0.00  0.00    +0.000 A 
ATOM     18  C   UNL     1      46.554   1.566   7.234  0.00  0.00    +0.000 A 
ATOM     19  C   UNL     1      47.271   2.519   6.515  0.00  0.00    +0.000 A 
ATOM     20  F   UNL     1      48.061   2.116   5.509  0.00  0.00    +0.000 F 
ATOM     21  C   UNL     1      47.190   3.874   6.806  0.00  0.00    +0.000 A 
ATOM     22  C   UNL     1      46.354   4.322   7.835  0.00  0.00    +0.000 A 
ATOM     23  C   UNL     1      45.577   3.389   8.556  0.00  0.00    +0.000 A 
ATOM     24  H   UNL     1      44.785   0.335   9.116  0.00  0.00    +0.000 HD
ENDBRANCH  13  14
ENDBRANCH   4  13
TORSDOF 6
ENDMDL
MODEL 2
REMARK VINA RESULT:    -7.199      1.614      1.817
REMARK INTER + INTRA:         -10.102
REMARK INTER:                  -9.230
REMARK INTRA:                  -0.872
REMARK UNBOUND:                -0.589
REMARK  Name = 
REMARK  6 active torsions:
REMARK  status: ('A' for Active; 'I' for Inactive)
REMARK    1  A    between atoms: N_1  and  C_2
REMARK    2  A    between atoms: C_2  and  C_3
REMARK    3  A    between atoms: C_3  and  O_4
REMARK    4  A    between atoms: O_4  and  C_5
REMARK    5  A    between atoms: C_8  and  C_9
REMARK    6  A    between atoms: C_9  and  C_10
REMARK                            x       y       z     vdW  Elec       q    Type
REMARK                         _______ _______ _______ _____ _____    ______ ____
ROOT
ATOM      1  C   UNL     1      47.814   6.275  13.464  0.00  0.00    +0.000 A 
ATOM      2  C   UNL     1      47.588   7.072  12.354  0.00  0.00    +0.000 A 
ATOM      3  C   UNL     1      46.383   6.930  11.667  0.00  0.00    +0.000 A 
ATOM      4  C   UNL     1      45.432   6.001  12.113  0.00  0.00    +0.000 A 
ATOM      5  C   UNL     1      45.754   5.279  13.258  0.00  0.00    +0.000 A 
ATOM      6  N   UNL     1      46.909   5.391  13.936  0.00  0.00    +0.000 NA
ENDROOT
BRANCH   1   7
ATOM      7  O   UNL     1      49.014   6.408  14.132  0.00  0.00    +0.000 OA
BRANCH   7   8
ATOM      8  C   UNL     1      48.842   7.144  15.354  0.00  0.00    +0.000 C 
BRANCH   8   9
ATOM      9  C   UNL     1      49.064   6.228  16.560  0.00  0.00    +0.000 C 
BRANCH   9  10
ATOM     10  N   UNL     1      47.820   5.604  17.016  0.00  0.00    +0.000 NA
ATOM     11  H   UNL     1      47.341   5.188  16.220  0.00  0.00    +0.000 HD
ATOM     12  H   UNL     1      47.211   6.344  17.368  0.00  0.00    +0.000 HD
ENDBRANCH   9  10
ENDBRANCH   8   9
ENDBRANCH   7   8
ENDBRANCH   1   7
BRANCH   4  13
ATOM     13  C   UNL     1      44.146   5.718  11.385  0.00  0.00    +0.000 C 
BRANCH  13  14
ATOM     14  C   UNL     1      44.244   4.341  10.813  0.00  0.00    +0.000 A 
ATOM     15  C   UNL     1      43.662   3.191  11.318  0.00  0.00    +0.000 A 
ATOM     16  N   UNL     1      43.998   2.140  10.506  0.00  0.00    +0.000 N 
ATOM     17  C   UNL     1      44.794   2.575   9.473  0.00  0.00    +0.000 A 
ATOM     18  C   UNL     1      45.344   1.867   8.398  0.00  0.00    +0.000 A 
ATOM     19  C   UNL     1      46.113   2.589   7.488  0.00  0.00    +0.000 A 
ATOM     20  F   UNL     1      46.626   1.956   6.424  0.00  0.00    +0.000 F 
ATOM     21  C   UNL     1      46.361   3.946   7.649  0.00  0.00    +0.000 A 
ATOM     22  C   UNL     1      45.816   4.634   8.739  0.00  0.00    +0.000 A 
ATOM     23  C   UNL     1      44.995   3.945   9.657  0.00  0.00    +0.000 A 
ATOM     24  H   UNL     1      43.696   1.183  10.636  0.00  0.00    +0.000 HD
ENDBRANCH  13  14
ENDBRANCH   4  13
TORSDOF 6
ENDMDL
MODEL 3
REMARK VINA RESULT:    -7.107      1.574      2.019
REMARK INTER + INTRA:          -9.981
REMARK INTER:                  -9.253
REMARK INTRA:                  -0.728
REMARK UNBOUND:                -0.589
REMARK  Name = 
REMARK  6 active torsions:
REMARK  status: ('A' for Active; 'I' for Inactive)
REMARK    1  A    between atoms: N_1  and  C_2
REMARK    2  A    between atoms: C_2  and  C_3
REMARK    3  A    between atoms: C_3  and  O_4
REMARK    4  A    between atoms: O_4  and  C_5
REMARK    5  A    between atoms: C_8  and  C_9
REMARK    6  A    between atoms: C_9  and  C_10
REMARK                            x       y       z     vdW  Elec       q    Type
REMARK                         _______ _______ _______ _____ _____    ______ ____
ROOT
ATOM      1  C   UNL     1      47.097   5.817  13.083  0.00  0.00    +0.000 A 
ATOM      2  C   UNL     1      47.123   6.520  11.890  0.00  0.00    +0.000 A 
ATOM      3  C   UNL     1      46.163   6.225  10.923  0.00  0.00    +0.000 A 
ATOM      4  C   UNL     1      45.197   5.241  11.178  0.00  0.00    +0.000 A 
ATOM      5  C   UNL     1      45.249   4.623  12.424  0.00  0.00    +0.000 A 
ATOM      6  N   UNL     1      46.166   4.884  13.372  0.00  0.00    +0.000 NA
ENDROOT
BRANCH   1   7
ATOM      7  O   UNL     1      48.059   6.103  14.032  0.00  0.00    +0.000 OA
BRANCH   7   8
ATOM      8  C   UNL     1      48.757   7.315  13.705  0.00  0.00    +0.000 C 
BRANCH   8   9
ATOM      9  C   UNL     1      48.564   8.354  14.813  0.00  0.00    +0.000 C 
BRANCH   9  10
ATOM     10  N   UNL     1      47.226   8.949  14.783  0.00  0.00    +0.000 NA
ATOM     11  H   UNL     1      47.269   9.891  15.167  0.00  0.00    +0.000 HD
ATOM     12  H   UNL     1      46.630   8.406  15.410  0.00  0.00    +0.000 HD
ENDBRANCH   9  10
ENDBRANCH   8   9
ENDBRANCH   7   8
ENDBRANCH   1   7
BRANCH   4  13
ATOM     13  C   UNL     1      44.180   4.795  10.163  0.00  0.00    +0.000 C 
BRANCH  13  14
ATOM     14  C   UNL     1      44.666   3.512   9.570  0.00  0.00    +0.000 A 
ATOM     15  C   UNL     1      44.292   2.233   9.943  0.00  0.00    +0.000 A 
ATOM     16  N   UNL     1      44.968   1.335   9.159  0.00  0.00    +0.000 N 
ATOM     17  C   UNL     1      45.785   1.999   8.276  0.00  0.00    +0.000 A 
ATOM     18  C   UNL     1      46.627   1.499   7.276  0.00  0.00    +0.000 A 
ATOM     19  C   UNL     1      47.336   2.429   6.518  0.00  0.00    +0.000 A 
ATOM     20  F   UNL     1      48.124   1.993   5.525  0.00  0.00    +0.000 F 
ATOM     21  C   UNL     1      47.246   3.794   6.757  0.00  0.00    +0.000 A 
ATOM     22  C   UNL     1      46.411   4.275   7.771  0.00  0.00    +0.000 A 
ATOM     23  C   UNL     1      45.643   3.365   8.531  0.00  0.00    +0.000 A 
ATOM     24  H   UNL     1      44.873   0.330   9.211  0.00  0.00    +0.000 HD
ENDBRANCH  13  14
ENDBRANCH   4  13
TORSDOF 6
ENDMDL
MODEL 4
REMARK VINA RESULT:    -6.969      2.476      3.225
REMARK INTER + INTRA:          -9.799
REMARK INTER:                  -9.199
REMARK INTRA:                  -0.600
REMARK UNBOUND:                -0.589
REMARK  Name = 
REMARK  6 active torsions:
REMARK  status: ('A' for Active; 'I' for Inactive)
REMARK    1  A    between atoms: N_1  and  C_2
REMARK    2  A    between atoms: C_2  and  C_3
REMARK    3  A    between atoms: C_3  and  O_4
REMARK    4  A    between atoms: O_4  and  C_5
REMARK    5  A    between atoms: C_8  and  C_9
REMARK    6  A    between atoms: C_9  and  C_10
REMARK                            x       y       z     vdW  Elec       q    Type
REMARK                         _______ _______ _______ _____ _____    ______ ____
ROOT
ATOM      1  C   UNL     1      48.008   6.368  13.523  0.00  0.00    +0.000 A 
ATOM      2  C   UNL     1      47.216   7.352  12.953  0.00  0.00    +0.000 A 
ATOM      3  C   UNL     1      45.868   7.077  12.733  0.00  0.00    +0.000 A 
ATOM      4  C   UNL     1      45.344   5.828  13.096  0.00  0.00    +0.000 A 
ATOM      5  C   UNL     1      46.225   4.930  13.690  0.00  0.00    +0.000 A 
ATOM      6  N   UNL     1      47.530   5.167  13.909  0.00  0.00    +0.000 NA
ENDROOT
BRANCH   1   7
ATOM      7  O   UNL     1      49.346   6.641  13.726  0.00  0.00    +0.000 OA
BRANCH   7   8
ATOM      8  C   UNL     1      49.771   7.750  12.918  0.00  0.00    +0.000 C 
BRANCH   8   9
ATOM      9  C   UNL     1      50.980   8.438  13.557  0.00  0.00    +0.000 C 
BRANCH   9  10
ATOM     10  N   UNL     1      51.569   7.636  14.632  0.00  0.00    +0.000 NA
ATOM     11  H   UNL     1      50.830   7.132  15.118  0.00  0.00    +0.000 HD
ATOM     12  H   UNL     1      51.977   8.279  15.311  0.00  0.00    +0.000 HD
ENDBRANCH   9  10
ENDBRANCH   8   9
ENDBRANCH   7   8
ENDBRANCH   1   7
BRANCH   4  13
ATOM     13  C   UNL     1      43.925   5.412  12.816  0.00  0.00    +0.000 C 
BRANCH  13  14
ATOM     14  C   UNL     1      43.974   4.207  11.932  0.00  0.00    +0.000 A 
ATOM     15  C   UNL     1      43.481   2.947  12.223  0.00  0.00    +0.000 A 
ATOM     16  N   UNL     1      43.729   2.125  11.155  0.00  0.00    +0.000 N 
ATOM     17  C   UNL     1      44.380   2.820  10.164  0.00  0.00    +0.000 A 
ATOM     18  C   UNL     1      44.801   2.402   8.896  0.00  0.00    +0.000 A 
ATOM     19  C   UNL     1      45.435   3.348   8.093  0.00  0.00    +0.000 A 
ATOM     20  F   UNL     1      45.819   2.999   6.857  0.00  0.00    +0.000 F 
ATOM     21  C   UNL     1      45.677   4.642   8.533  0.00  0.00    +0.000 A 
ATOM     22  C   UNL     1      45.263   5.038   9.810  0.00  0.00    +0.000 A 
ATOM     23  C   UNL     1      44.578   4.120  10.635  0.00  0.00    +0.000 A 
ATOM     24  H   UNL     1      43.463   1.151  11.095  0.00  0.00    +0.000 HD
ENDBRANCH  13  14
ENDBRANCH   4  13
TORSDOF 6
ENDMDL
MODEL 5
REMARK VINA RESULT:    -5.968      2.721      3.757
REMARK INTER + INTRA:          -8.476
REMARK INTER:                  -7.640
REMARK INTRA:                  -0.836
REMARK UNBOUND:                -0.589
REMARK  Name = 
REMARK  6 active torsions:
REMARK  status: ('A' for Active; 'I' for Inactive)
REMARK    1  A    between atoms: N_1  and  C_2
REMARK    2  A    between atoms: C_2  and  C_3
REMARK    3  A    between atoms: C_3  and  O_4
REMARK    4  A    between atoms: O_4  and  C_5
REMARK    5  A    between atoms: C_8  and  C_9
REMARK    6  A    between atoms: C_9  and  C_10
REMARK                            x       y       z     vdW  Elec       q    Type
REMARK                         _______ _______ _______ _____ _____    ______ ____
ROOT
ATOM      1  C   UNL     1      48.717   7.872  13.548  0.00  0.00    +0.000 A 
ATOM      2  C   UNL     1      48.706   7.150  12.366  0.00  0.00    +0.000 A 
ATOM      3  C   UNL     1      47.509   7.049  11.659  0.00  0.00    +0.000 A 
ATOM      4  C   UNL     1      46.357   7.680  12.148  0.00  0.00    +0.000 A 
ATOM      5  C   UNL     1      46.494   8.404  13.328  0.00  0.00    +0.000 A 
ATOM      6  N   UNL     1      47.634   8.513  14.033  0.00  0.00    +0.000 NA
ENDROOT
BRANCH   1   7
ATOM      7  O   UNL     1      49.902   7.957  14.253  0.00  0.00    +0.000 OA
BRANCH   7   8
ATOM      8  C   UNL     1      49.657   7.971  15.668  0.00  0.00    +0.000 C 
BRANCH   8   9
ATOM      9  C   UNL     1      49.545   6.541  16.201  0.00  0.00    +0.000 C 
BRANCH   9  10
ATOM     10  N   UNL     1      48.157   6.160  16.474  0.00  0.00    +0.000 NA
ATOM     11  H   UNL     1      47.738   6.844  17.100  0.00  0.00    +0.000 HD
ATOM     12  H   UNL     1      48.172   5.273  16.980  0.00  0.00    +0.000 HD
ENDBRANCH   9  10
ENDBRANCH   8   9
ENDBRANCH   7   8
ENDBRANCH   1   7
BRANCH   4  13
ATOM     13  C   UNL     1      45.004   7.552  11.501  0.00  0.00    +0.000 C 
BRANCH  13  14
ATOM     14  C   UNL     1      44.520   6.158  11.737  0.00  0.00    +0.000 A 
ATOM     15  C   UNL     1      43.881   5.685  12.870  0.00  0.00    +0.000 A 
ATOM     16  N   UNL     1      43.607   4.354  12.692  0.00  0.00    +0.000 N 
ATOM     17  C   UNL     1      44.057   3.938  11.461  0.00  0.00    +0.000 A 
ATOM     18  C   UNL     1      43.970   2.685  10.845  0.00  0.00    +0.000 A 
ATOM     19  C   UNL     1      44.516   2.564   9.569  0.00  0.00    +0.000 A 
ATOM     20  F   UNL     1      44.418   1.391   8.928  0.00  0.00    +0.000 F 
ATOM     21  C   UNL     1      45.153   3.625   8.939  0.00  0.00    +0.000 A 
ATOM     22  C   UNL     1      45.245   4.867   9.577  0.00  0.00    +0.000 A 
ATOM     23  C   UNL     1      44.665   5.039  10.852  0.00  0.00    +0.000 A 
ATOM     24  H   UNL     1      43.133   3.762  13.361  0.00  0.00    +0.000 HD
ENDBRANCH  13  14
ENDBRANCH   4  13
TORSDOF 6
ENDMDL
MODEL 6
REMARK VINA RESULT:    -5.816      4.320      5.948
REMARK INTER + INTRA:          -8.275
REMARK INTER:                  -7.886
REMARK INTRA:                  -0.389
REMARK UNBOUND:                -0.589
REMARK  Name = 
REMARK  6 active torsions:
REMARK  status: ('A' for Active; 'I' for Inactive)
REMARK    1  A    between atoms: N_1  and  C_2
REMARK    2  A    between atoms: C_2  and  C_3
REMARK    3  A    between atoms: C_3  and  O_4
REMARK    4  A    between atoms: O_4  and  C_5
REMARK    5  A    between atoms: C_8  and  C_9
REMARK    6  A    between atoms: C_9  and  C_10
REMARK                            x       y       z     vdW  Elec       q    Type
REMARK                         _______ _______ _______ _____ _____    ______ ____
ROOT
ATOM      1  C   UNL     1      43.556  10.370  11.155  0.00  0.00    +0.000 A 
ATOM      2  C   UNL     1      44.765  10.826  11.653  0.00  0.00    +0.000 A 
ATOM      3  C   UNL     1      45.744   9.891  11.984  0.00  0.00    +0.000 A 
ATOM      4  C   UNL     1      45.491   8.524  11.801  0.00  0.00    +0.000 A 
ATOM      5  C   UNL     1      44.253   8.185  11.263  0.00  0.00    +0.000 A 
ATOM      6  N   UNL     1      43.290   9.065  10.940  0.00  0.00    +0.000 NA
ENDROOT
BRANCH   1   7
ATOM      7  O   UNL     1      42.584  11.300  10.842  0.00  0.00    +0.000 OA
BRANCH   7   8
ATOM      8  C   UNL     1      41.599  11.382  11.884  0.00  0.00    +0.000 C 
BRANCH   8   9
ATOM      9  C   UNL     1      40.251  10.857  11.381  0.00  0.00    +0.000 C 
BRANCH   9  10
ATOM     10  N   UNL     1      40.167   9.396  11.450  0.00  0.00    +0.000 NA
ATOM     11  H   UNL     1      40.306   9.096  12.412  0.00  0.00    +0.000 HD
ATOM     12  H   UNL     1      40.945   9.014  10.911  0.00  0.00    +0.000 HD
ENDBRANCH   9  10
ENDBRANCH   8   9
ENDBRANCH   7   8
ENDBRANCH   1   7
BRANCH   4  13
ATOM     13  C   UNL     1      46.452   7.441  12.211  0.00  0.00    +0.000 C 
BRANCH  13  14
ATOM     14  C   UNL     1      45.703   6.147  12.205  0.00  0.00    +0.000 A 
ATOM     15  C   UNL     1      45.145   5.508  13.298  0.00  0.00    +0.000 A 
ATOM     16  N   UNL     1      44.554   4.348  12.870  0.00  0.00    +0.000 N 
ATOM     17  C   UNL     1      44.716   4.208  11.512  0.00  0.00    +0.000 A 
ATOM     18  C   UNL     1      44.258   3.206  10.648  0.00  0.00    +0.000 A 
ATOM     19  C   UNL     1      44.572   3.339   9.297  0.00  0.00    +0.000 A 
ATOM     20  F   UNL     1      44.120   2.421   8.431  0.00  0.00    +0.000 F 
ATOM     21  C   UNL     1      45.335   4.397   8.821  0.00  0.00    +0.000 A 
ATOM     22  C   UNL     1      45.797   5.381   9.702  0.00  0.00    +0.000 A 
ATOM     23  C   UNL     1      45.462   5.303  11.071  0.00  0.00    +0.000 A 
ATOM     24  H   UNL     1      44.060   3.693  13.461  0.00  0.00    +0.000 HD
ENDBRANCH  13  14
ENDBRANCH   4  13
TORSDOF 6
ENDMDL
MODEL 7
REMARK VINA RESULT:    -5.711      4.320      6.902
REMARK INTER + INTRA:          -8.137
REMARK INTER:                  -7.598
REMARK INTRA:                  -0.539
REMARK UNBOUND:                -0.589
REMARK  Name = 
REMARK  6 active torsions:
REMARK  status: ('A' for Active; 'I' for Inactive)
REMARK    1  A    between atoms: N_1  and  C_2
REMARK    2  A    between atoms: C_2  and  C_3
REMARK    3  A    between atoms: C_3  and  O_4
REMARK    4  A    between atoms: O_4  and  C_5
REMARK    5  A    between atoms: C_8  and  C_9
REMARK    6  A    between atoms: C_9  and  C_10
REMARK                            x       y       z     vdW  Elec       q    Type
REMARK                         _______ _______ _______ _____ _____    ______ ____
ROOT
ATOM      1  C   UNL     1      50.653   1.882  17.006  0.00  0.00    +0.000 A 
ATOM      2  C   UNL     1      50.803   3.038  17.755  0.00  0.00    +0.000 A 
ATOM      3  C   UNL     1      49.787   3.991  17.719  0.00  0.00    +0.000 A 
ATOM      4  C   UNL     1      48.643   3.761  16.941  0.00  0.00    +0.000 A 
ATOM      5  C   UNL     1      48.588   2.550  16.256  0.00  0.00    +0.000 A 
ATOM      6  N   UNL     1      49.555   1.617  16.269  0.00  0.00    +0.000 NA
ENDROOT
BRANCH   1   7
ATOM      7  O   UNL     1      51.669   0.948  17.034  0.00  0.00    +0.000 OA
BRANCH   7   8
ATOM      8  C   UNL     1      52.726   1.366  17.913  0.00  0.00    +0.000 C 
BRANCH   8   9
ATOM      9  C   UNL     1      53.807   0.285  17.995  0.00  0.00    +0.000 C 
BRANCH   9  10
ATOM     10  N   UNL     1      53.315  -0.942  18.626  0.00  0.00    +0.000 NA
ATOM     11  H   UNL     1      52.300  -0.906  18.685  0.00  0.00    +0.000 HD
ATOM     12  H   UNL     1      53.663  -0.958  19.586  0.00  0.00    +0.000 HD
ENDBRANCH   9  10
ENDBRANCH   8   9
ENDBRANCH   7   8
ENDBRANCH   1   7
BRANCH   4  13
ATOM     13  C   UNL     1      47.539   4.768  16.772  0.00  0.00    +0.000 C 
BRANCH  13  14
ATOM     14  C   UNL     1      47.839   5.566  15.543  0.00  0.00    +0.000 A 
ATOM     15  C   UNL     1      48.828   6.523  15.398  0.00  0.00    +0.000 A 
ATOM     16  N   UNL     1      48.768   7.022  14.124  0.00  0.00    +0.000 N 
ATOM     17  C   UNL     1      47.754   6.413  13.424  0.00  0.00    +0.000 A 
ATOM     18  C   UNL     1      47.348   6.580  12.095  0.00  0.00    +0.000 A 
ATOM     19  C   UNL     1      46.279   5.803  11.654  0.00  0.00    +0.000 A 
ATOM     20  F   UNL     1      45.883   5.906  10.377  0.00  0.00    +0.000 F 
ATOM     21  C   UNL     1      45.613   4.923  12.497  0.00  0.00    +0.000 A 
ATOM     22  C   UNL     1      46.023   4.780  13.827  0.00  0.00    +0.000 A 
ATOM     23  C   UNL     1      47.131   5.518  14.297  0.00  0.00    +0.000 A 
ATOM     24  H   UNL     1      49.386   7.728  13.744  0.00  0.00    +0.000 HD
ENDBRANCH  13  14
ENDBRANCH   4  13
TORSDOF 6
ENDMDL
MODEL 8
REMARK VINA RESULT:    -5.403      4.679      8.310
REMARK INTER + INTRA:          -7.730
REMARK INTER:                  -7.022
REMARK INTRA:                  -0.708
REMARK UNBOUND:                -0.589
REMARK  Name = 
REMARK  6 active torsions:
REMARK  status: ('A' for Active; 'I' for Inactive)
REMARK    1  A    between atoms: N_1  and  C_2
REMARK    2  A    between atoms: C_2  and  C_3
REMARK    3  A    between atoms: C_3  and  O_4
REMARK    4  A    between atoms: O_4  and  C_5
REMARK    5  A    between atoms: C_8  and  C_9
REMARK    6  A    between atoms: C_9  and  C_10
REMARK                            x       y       z     vdW  Elec       q    Type
REMARK                         _______ _______ _______ _____ _____    ______ ____
ROOT
ATOM      1  C   UNL     1      44.626   5.280  12.816  0.00  0.00    +0.000 A 
ATOM      2  C   UNL     1      44.942   6.402  12.069  0.00  0.00    +0.000 A 
ATOM      3  C   UNL     1      46.239   6.908  12.143  0.00  0.00    +0.000 A 
ATOM      4  C   UNL     1      47.188   6.273  12.957  0.00  0.00    +0.000 A 
ATOM      5  C   UNL     1      46.766   5.134  13.637  0.00  0.00    +0.000 A 
ATOM      6  N   UNL     1      45.522   4.629  13.588  0.00  0.00    +0.000 NA
ENDROOT
BRANCH   1   7
ATOM      7  O   UNL     1      43.336   4.791  12.751  0.00  0.00    +0.000 OA
BRANCH   7   8
ATOM      8  C   UNL     1      43.021   4.353  11.419  0.00  0.00    +0.000 C 
BRANCH   8   9
ATOM      9  C   UNL     1      43.552   2.936  11.188  0.00  0.00    +0.000 C 
BRANCH   9  10
ATOM     10  N   UNL     1      43.581   2.149  12.422  0.00  0.00    +0.000 NA
ATOM     11  H   UNL     1      44.207   2.594  13.091  0.00  0.00    +0.000 HD
ATOM     12  H   UNL     1      43.991   1.239  12.201  0.00  0.00    +0.000 HD
ENDBRANCH   9  10
ENDBRANCH   8   9
ENDBRANCH   7   8
ENDBRANCH   1   7
BRANCH   4  13
ATOM     13  C   UNL     1      48.583   6.797  13.167  0.00  0.00    +0.000 C 
BRANCH  13  14
ATOM     14  C   UNL     1      48.524   7.811  14.265  0.00  0.00    +0.000 A 
ATOM     15  C   UNL     1      48.359   9.177  14.122  0.00  0.00    +0.000 A 
ATOM     16  N   UNL     1      48.365   9.749  15.367  0.00  0.00    +0.000 N 
ATOM     17  C   UNL     1      48.533   8.784  16.331  0.00  0.00    +0.000 A 
ATOM     18  C   UNL     1      48.570   8.898  17.726  0.00  0.00    +0.000 A 
ATOM     19  C   UNL     1      48.746   7.724  18.455  0.00  0.00    +0.000 A 
ATOM     20  F   UNL     1      48.749   7.786  19.794  0.00  0.00    +0.000 F 
ATOM     21  C   UNL     1      48.915   6.493  17.837  0.00  0.00    +0.000 A 
ATOM     22  C   UNL     1      48.890   6.400  16.441  0.00  0.00    +0.000 A 
ATOM     23  C   UNL     1      48.670   7.561  15.669  0.00  0.00    +0.000 A 
ATOM     24  H   UNL     1      48.250  10.736  15.556  0.00  0.00    +0.000 HD
ENDBRANCH  13  14
ENDBRANCH   4  13
TORSDOF 6
ENDMDL
MODEL 9
REMARK VINA RESULT:    -5.298      4.232      5.796
REMARK INTER + INTRA:          -7.591
REMARK INTER:                  -6.858
REMARK INTRA:                  -0.732
REMARK UNBOUND:                -0.589
REMARK  Name = 
REMARK  6 active torsions:
REMARK  status: ('A' for Active; 'I' for Inactive)
REMARK    1  A    between atoms: N_1  and  C_2
REMARK    2  A    between atoms: C_2  and  C_3
REMARK    3  A    between atoms: C_3  and  O_4
REMARK    4  A    between atoms: O_4  and  C_5
REMARK    5  A    between atoms: C_8  and  C_9
REMARK    6  A    between atoms: C_9  and  C_10
REMARK                            x       y       z     vdW  Elec       q    Type
REMARK                         _______ _______ _______ _____ _____    ______ ____
ROOT
ATOM      1  C   UNL     1      48.729   6.817  17.797  0.00  0.00    +0.000 A 
ATOM      2  C   UNL     1      48.439   5.597  17.210  0.00  0.00    +0.000 A 
ATOM      3  C   UNL     1      48.360   5.529  15.820  0.00  0.00    +0.000 A 
ATOM      4  C   UNL     1      48.581   6.682  15.053  0.00  0.00    +0.000 A 
ATOM      5  C   UNL     1      48.897   7.844  15.750  0.00  0.00    +0.000 A 
ATOM      6  N   UNL     1      48.975   7.939  17.089  0.00  0.00    +0.000 NA
ENDROOT
BRANCH   1   7
ATOM      7  O   UNL     1      48.792   6.882  19.175  0.00  0.00    +0.000 OA
BRANCH   7   8
ATOM      8  C   UNL     1      47.746   6.100  19.773  0.00  0.00    +0.000 C 
BRANCH   8   9
ATOM      9  C   UNL     1      48.287   5.321  20.975  0.00  0.00    +0.000 C 
BRANCH   9  10
ATOM     10  N   UNL     1      48.451   3.896  20.682  0.00  0.00    +0.000 NA
ATOM     11  H   UNL     1      48.071   3.348  21.452  0.00  0.00    +0.000 HD
ATOM     12  H   UNL     1      49.452   3.698  20.650  0.00  0.00    +0.000 HD
ENDBRANCH   9  10
ENDBRANCH   8   9
ENDBRANCH   7   8
ENDBRANCH   1   7
BRANCH   4  13
ATOM     13  C   UNL     1      48.430   6.723  13.557  0.00  0.00    +0.000 C 
BRANCH  13  14
ATOM     14  C   UNL     1      46.968   6.770  13.251  0.00  0.00    +0.000 A 
ATOM     15  C   UNL     1      46.166   7.897  13.210  0.00  0.00    +0.000 A 
ATOM     16  N   UNL     1      44.888   7.513  12.901  0.00  0.00    +0.000 N 
ATOM     17  C   UNL     1      44.830   6.149  12.739  0.00  0.00    +0.000 A 
ATOM     18  C   UNL     1      43.752   5.326  12.392  0.00  0.00    +0.000 A 
ATOM     19  C   UNL     1      44.002   3.960  12.290  0.00  0.00    +0.000 A 
ATOM     20  F   UNL     1      43.006   3.142  11.923  0.00  0.00    +0.000 F 
ATOM     21  C   UNL     1      45.254   3.420  12.555  0.00  0.00    +0.000 A 
ATOM     22  C   UNL     1      46.316   4.255  12.916  0.00  0.00    +0.000 A 
ATOM     23  C   UNL     1      46.112   5.651  12.985  0.00  0.00    +0.000 A 
ATOM     24  H   UNL     1      44.101   8.138  12.794  0.00  0.00    +0.000 HD
ENDBRANCH  13  14
ENDBRANCH   4  13
TORSDOF 6
ENDMDL
