MODEL 1
REMARK VINA RESULT:    -7.991      0.000      0.000
REMARK INTER + INTRA:         -12.085
REMARK INTER:                 -11.261
REMARK INTRA:                  -0.824
REMARK UNBOUND:                -0.824
REMARK  Name = 
REMARK  8 active torsions:
REMARK  status: ('A' for Active; 'I' for Inactive)
REMARK    1  A    between atoms: C_1  and  O_2
REMARK    2  A    between atoms: O_2  and  C_3
REMARK    3  A    between atoms: C_7  and  C_8
REMARK    4  A    between atoms: N_10  and  C_11
REMARK    5  A    between atoms: C_11  and  C_12
REMARK    6  A    between atoms: C_15  and  C_16
REMARK    7  A    between atoms: C_16  and  N_17
REMARK    8  A    between atoms: C_18  and  C_20
REMARK                            x       y       z     vdW  Elec       q    Type
REMARK                         _______ _______ _______ _____ _____    ______ ____
ROOT
ATOM      1  C   UNL     1      44.636   5.843  11.405  0.00  0.00    +0.000 A 
ATOM      2  C   UNL     1      45.573   5.214  12.235  0.00  0.00    +0.000 A 
ATOM      3  C   UNL     1      46.498   5.966  12.971  0.00  0.00    +0.000 A 
ATOM      4  C   UNL     1      46.490   7.366  12.908  0.00  0.00    +0.000 A 
ATOM      5  C   UNL     1      45.538   7.993  12.091  0.00  0.00    +0.000 A 
ATOM      6  C   UNL     1      44.615   7.242  11.356  0.00  0.00    +0.000 A 
ENDROOT
BRANCH   1   7
ATOM      7  C   UNL     1      43.682   5.028  10.574  0.00  0.00    +0.000 C 
BRANCH   7  10
ATOM      8  C   UNL     1      45.205   4.047   8.920  0.00  0.00    +0.000 C 
ATOM      9  O   UNL     1      45.512   5.136   8.448  0.00  0.00    +0.000 OA
ATOM     10  N   UNL     1      44.316   3.889   9.963  0.00  0.00    +0.000 N 
ATOM     11  H   UNL     1      44.123   2.947  10.292  0.00  0.00    +0.000 HD
BRANCH   8  16
ATOM     12  C   UNL     1      47.303   1.743   7.030  0.00  0.00    +0.000 A 
ATOM     13  C   UNL     1      46.833   0.509   7.469  0.00  0.00    +0.000 A 
ATOM     14  N   UNL     1      45.825   0.388   8.372  0.00  0.00    +0.000 NA
ATOM     15  C   UNL     1      45.311   1.561   8.819  0.00  0.00    +0.000 A 
ATOM     16  C   UNL     1      45.785   2.792   8.384  0.00  0.00    +0.000 A 
ATOM     17  N   UNL     1      46.791   2.912   7.474  0.00  0.00    +0.000 NA
BRANCH  12  19
ATOM     18  C   UNL     1      48.010   2.489   4.937  0.00  0.00    +0.000 C 
ATOM     19  O   UNL     1      48.337   1.757   6.118  0.00  0.00    +0.000 OA
ENDBRANCH  12  19
ENDBRANCH   8  16
ENDBRANCH   7  10
ENDBRANCH   1   7
BRANCH   4  20
ATOM     20  C   UNL     1      47.500   8.197  13.664  0.00  0.00    +0.000 C 
BRANCH  20  21
ATOM     21  N   UNL     1      47.880   7.568  14.904  0.00  0.00    +0.000 N 
ATOM     22  C   UNL     1      49.138   7.050  15.098  0.00  0.00    +0.000 C 
ATOM     23  O   UNL     1      50.012   7.112  14.238  0.00  0.00    +0.000 OA
ATOM     24  H   UNL     1      47.124   7.236  15.493  0.00  0.00    +0.000 HD
BRANCH  22  25
ATOM     25  C   UNL     1      49.400   6.470  16.423  0.00  0.00    +0.000 A 
ATOM     26  C   UNL     1      50.248   7.119  17.311  0.00  0.00    +0.000 A 
ATOM     27  S   UNL     1      50.396   6.325  18.815  0.00  0.00    +0.000 S 
ATOM     28  C   UNL     1      49.377   5.059  18.311  0.00  0.00    +0.000 A 
ATOM     29  N   UNL     1      49.104   4.008  19.130  0.00  0.00    +0.000 NA
ATOM     30  C   UNL     1      48.337   3.111  18.606  0.00  0.00    +0.000 A 
ATOM     31  N   UNL     1      47.806   3.175  17.344  0.00  0.00    +0.000 N 
ATOM     32  C   UNL     1      48.024   4.233  16.497  0.00  0.00    +0.000 A 
ATOM     33  O   UNL     1      47.491   4.286  15.394  0.00  0.00    +0.000 OA
ATOM     34  C   UNL     1      48.904   5.257  17.027  0.00  0.00    +0.000 A 
ATOM     35  H   UNL     1      47.196   2.448  17.000  0.00  0.00    +0.000 HD
ENDBRANCH  22  25
ENDBRANCH  20  21
ENDBRANCH   4  20
TORSDOF 7
ENDMDL
MODEL 2
REMARK VINA RESULT:    -7.128      5.292      7.833
REMARK INTER + INTRA:         -10.869
REMARK INTER:                  -9.868
REMARK INTRA:                  -1.001
REMARK UNBOUND:                -0.824
REMARK  Name = 
REMARK  8 active torsions:
REMARK  status: ('A' for Active; 'I' for Inactive)
REMARK    1  A    between atoms: C_1  and  O_2
REMARK    2  A    between atoms: O_2  and  C_3
REMARK    3  A    between atoms: C_7  and  C_8
REMARK    4  A    between atoms: N_10  and  C_11
REMARK    5  A    between atoms: C_11  and  C_12
REMARK    6  A    between atoms: C_15  and  C_16
REMARK    7  A    between atoms: C_16  and  N_17
REMARK    8  A    between atoms: C_18  and  C_20
REMARK                            x       y       z     vdW  Elec       q    Type
REMARK                         _______ _______ _______ _____ _____    ______ ____
ROOT
ATOM      1  C   UNL     1      49.010   6.841  14.083  0.00  0.00    +0.000 A 
ATOM      2  C   UNL     1      50.077   7.444  14.763  0.00  0.00    +0.000 A 
ATOM      3  C   UNL     1      51.025   8.211  14.074  0.00  0.00    +0.000 A 
ATOM      4  C   UNL     1      50.912   8.410  12.691  0.00  0.00    +0.000 A 
ATOM      5  C   UNL     1      49.832   7.822  12.017  0.00  0.00    +0.000 A 
ATOM      6  C   UNL     1      48.886   7.055  12.705  0.00  0.00    +0.000 A 
ENDROOT
BRANCH   1   7
ATOM      7  C   UNL     1      48.027   5.972  14.821  0.00  0.00    +0.000 C 
BRANCH   7  10
ATOM      8  C   UNL     1      46.497   4.458  13.644  0.00  0.00    +0.000 C 
ATOM      9  O   UNL     1      47.182   3.468  13.876  0.00  0.00    +0.000 OA
ATOM     10  N   UNL     1      46.828   5.731  14.064  0.00  0.00    +0.000 N 
ATOM     11  H   UNL     1      46.199   6.494  13.827  0.00  0.00    +0.000 HD
BRANCH   8  16
ATOM     12  C   UNL     1      43.991   3.298  11.267  0.00  0.00    +0.000 A 
ATOM     13  C   UNL     1      42.932   4.163  11.529  0.00  0.00    +0.000 A 
ATOM     14  N   UNL     1      43.003   5.144  12.465  0.00  0.00    +0.000 NA
ATOM     15  C   UNL     1      44.182   5.219  13.131  0.00  0.00    +0.000 A 
ATOM     16  C   UNL     1      45.235   4.352  12.873  0.00  0.00    +0.000 A 
ATOM     17  N   UNL     1      45.166   3.372  11.929  0.00  0.00    +0.000 NA
BRANCH  12  19
ATOM     18  C   UNL     1      44.638   2.545   9.158  0.00  0.00    +0.000 C 
ATOM     19  O   UNL     1      43.814   2.329  10.303  0.00  0.00    +0.000 OA
ENDBRANCH  12  19
ENDBRANCH   8  16
ENDBRANCH   7  10
ENDBRANCH   1   7
BRANCH   4  20
ATOM     20  C   UNL     1      51.941   9.203  11.920  0.00  0.00    +0.000 C 
BRANCH  20  21
ATOM     21  N   UNL     1      52.105   8.695  10.581  0.00  0.00    +0.000 N 
ATOM     22  C   UNL     1      53.217   8.983   9.827  0.00  0.00    +0.000 C 
ATOM     23  O   UNL     1      54.140   9.669  10.258  0.00  0.00    +0.000 OA
ATOM     24  H   UNL     1      51.261   8.399  10.103  0.00  0.00    +0.000 HD
BRANCH  22  25
ATOM     25  C   UNL     1      53.270   8.370   8.493  0.00  0.00    +0.000 A 
ATOM     26  C   UNL     1      53.107   9.156   7.359  0.00  0.00    +0.000 A 
ATOM     27  S   UNL     1      53.246   8.282   5.899  0.00  0.00    +0.000 S 
ATOM     28  C   UNL     1      53.470   6.816   6.733  0.00  0.00    +0.000 A 
ATOM     29  N   UNL     1      53.623   5.641   6.062  0.00  0.00    +0.000 NA
ATOM     30  C   UNL     1      53.760   4.607   6.824  0.00  0.00    +0.000 A 
ATOM     31  N   UNL     1      53.772   4.641   8.194  0.00  0.00    +0.000 N 
ATOM     32  C   UNL     1      53.659   5.806   8.912  0.00  0.00    +0.000 A 
ATOM     33  O   UNL     1      53.728   5.808  10.136  0.00  0.00    +0.000 OA
ATOM     34  C   UNL     1      53.475   6.996   8.104  0.00  0.00    +0.000 A 
ATOM     35  H   UNL     1      53.903   3.797   8.732  0.00  0.00    +0.000 HD
ENDBRANCH  22  25
ENDBRANCH  20  21
ENDBRANCH   4  20
TORSDOF 7
ENDMDL
MODEL 3
REMARK VINA RESULT:    -6.995      5.631      7.699
REMARK INTER + INTRA:         -10.682
REMARK INTER:                  -9.713
REMARK INTRA:                  -0.969
REMARK UNBOUND:                -0.824
REMARK  Name = 
REMARK  8 active torsions:
REMARK  status: ('A' for Active; 'I' for Inactive)
REMARK    1  A    between atoms: C_1  and  O_2
REMARK    2  A    between atoms: O_2  and  C_3
REMARK    3  A    between atoms: C_7  and  C_8
REMARK    4  A    between atoms: N_10  and  C_11
REMARK    5  A    between atoms: C_11  and  C_12
REMARK    6  A    between atoms: C_15  and  C_16
REMARK    7  A    between atoms: C_16  and  N_17
REMARK    8  A    between atoms: C_18  and  C_20
REMARK                            x       y       z     vdW  Elec       q    Type
REMARK                         _______ _______ _______ _____ _____    ______ ____
ROOT
ATOM      1  C   UNL     1      48.385   8.190  12.005  0.00  0.00    +0.000 A 
ATOM      2  C   UNL     1      49.516   7.388  11.803  0.00  0.00    +0.000 A 
ATOM      3  C   UNL     1      50.715   7.944  11.338  0.00  0.00    +0.000 A 
ATOM      4  C   UNL     1      50.813   9.320  11.086  0.00  0.00    +0.000 A 
ATOM      5  C   UNL     1      49.684  10.122  11.307  0.00  0.00    +0.000 A 
ATOM      6  C   UNL     1      48.487   9.567  11.772  0.00  0.00    +0.000 A 
ENDROOT
BRANCH   1   7
ATOM      7  C   UNL     1      47.084   7.578  12.452  0.00  0.00    +0.000 C 
BRANCH   7  10
ATOM      8  C   UNL     1      45.390   6.378  11.146  0.00  0.00    +0.000 C 
ATOM      9  O   UNL     1      44.515   7.202  11.386  0.00  0.00    +0.000 OA
ATOM     10  N   UNL     1      46.681   6.473  11.623  0.00  0.00    +0.000 N 
ATOM     11  H   UNL     1      47.342   5.743  11.371  0.00  0.00    +0.000 HD
BRANCH   8  16
ATOM     12  C   UNL     1      45.440   4.030   8.358  0.00  0.00    +0.000 A 
ATOM     13  C   UNL     1      44.614   3.014   8.831  0.00  0.00    +0.000 A 
ATOM     14  N   UNL     1      44.014   3.065  10.049  0.00  0.00    +0.000 NA
ATOM     15  C   UNL     1      44.281   4.180  10.775  0.00  0.00    +0.000 A 
ATOM     16  C   UNL     1      45.110   5.189  10.304  0.00  0.00    +0.000 A 
ATOM     17  N   UNL     1      45.706   5.141   9.081  0.00  0.00    +0.000 NA
BRANCH  12  19
ATOM     18  C   UNL     1      46.777   2.679   7.010  0.00  0.00    +0.000 C 
ATOM     19  O   UNL     1      46.008   3.878   7.113  0.00  0.00    +0.000 OA
ENDBRANCH  12  19
ENDBRANCH   8  16
ENDBRANCH   7  10
ENDBRANCH   1   7
BRANCH   4  20
ATOM     20  C   UNL     1      52.083   9.936  10.549  0.00  0.00    +0.000 C 
BRANCH  20  21
ATOM     21  N   UNL     1      52.483   9.326   9.306  0.00  0.00    +0.000 N 
ATOM     22  C   UNL     1      53.669   8.644   9.181  0.00  0.00    +0.000 C 
ATOM     23  O   UNL     1      54.443   8.499  10.123  0.00  0.00    +0.000 OA
ATOM     24  H   UNL     1      52.036   9.678   8.466  0.00  0.00    +0.000 HD
BRANCH  22  25
ATOM     25  C   UNL     1      53.933   8.042   7.867  0.00  0.00    +0.000 A 
ATOM     26  C   UNL     1      54.247   8.849   6.781  0.00  0.00    +0.000 A 
ATOM     27  S   UNL     1      54.567   7.974   5.351  0.00  0.00    +0.000 S 
ATOM     28  C   UNL     1      54.241   6.491   6.119  0.00  0.00    +0.000 A 
ATOM     29  N   UNL     1      54.303   5.316   5.435  0.00  0.00    +0.000 NA
ATOM     30  C   UNL     1      54.007   4.274   6.139  0.00  0.00    +0.000 A 
ATOM     31  N   UNL     1      53.669   4.298   7.467  0.00  0.00    +0.000 N 
ATOM     32  C   UNL     1      53.630   5.454   8.206  0.00  0.00    +0.000 A 
ATOM     33  O   UNL     1      53.377   5.435   9.405  0.00  0.00    +0.000 OA
ATOM     34  C   UNL     1      53.927   6.659   7.455  0.00  0.00    +0.000 A 
ATOM     35  H   UNL     1      53.468   3.444   7.966  0.00  0.00    +0.000 HD
ENDBRANCH  22  25
ENDBRANCH  20  21
ENDBRANCH   4  20
TORSDOF 7
ENDMDL
MODEL 4
REMARK VINA RESULT:    -6.881      2.126      2.772
REMARK INTER + INTRA:         -10.521
REMARK INTER:                  -9.441
REMARK INTRA:                  -1.079
REMARK UNBOUND:                -0.824
REMARK  Name = 
REMARK  8 active torsions:
REMARK  status: ('A' for Active; 'I' for Inactive)
REMARK    1  A    between atoms: C_1  and  O_2
REMARK    2  A    between atoms: O_2  and  C_3
REMARK    3  A    between atoms: C_7  and  C_8
REMARK    4  A    between atoms: N_10  and  C_11
REMARK    5  A    between atoms: C_11  and  C_12
REMARK    6  A    between atoms: C_15  and  C_16
REMARK    7  A    between atoms: C_16  and  N_17
REMARK    8  A    between atoms: C_18  and  C_20
REMARK                            x       y       z     vdW  Elec       q    Type
REMARK                         _______ _______ _______ _____ _____    ______ ____
ROOT
ATOM      1  C   UNL     1      46.703   7.850  12.343  0.00  0.00    +0.000 A 
ATOM      2  C   UNL     1      47.880   7.385  11.741  0.00  0.00    +0.000 A 
ATOM      3  C   UNL     1      49.132   7.653  12.312  0.00  0.00    +0.000 A 
ATOM      4  C   UNL     1      49.230   8.374  13.510  0.00  0.00    +0.000 A 
ATOM      5  C   UNL     1      48.048   8.822  14.119  0.00  0.00    +0.000 A 
ATOM      6  C   UNL     1      46.799   8.554  13.549  0.00  0.00    +0.000 A 
ENDROOT
BRANCH   1   7
ATOM      7  C   UNL     1      45.366   7.607  11.696  0.00  0.00    +0.000 C 
BRANCH   7  10
ATOM      8  C   UNL     1      44.833   5.312  11.013  0.00  0.00    +0.000 C 
ATOM      9  O   UNL     1      44.269   5.051  12.069  0.00  0.00    +0.000 OA
ATOM     10  N   UNL     1      45.405   6.537  10.734  0.00  0.00    +0.000 N 
ATOM     11  H   UNL     1      45.851   6.665   9.830  0.00  0.00    +0.000 HD
BRANCH   8  16
ATOM     12  C   UNL     1      45.693   3.712   7.853  0.00  0.00    +0.000 A 
ATOM     13  C   UNL     1      45.163   2.437   8.030  0.00  0.00    +0.000 A 
ATOM     14  N   UNL     1      44.508   2.067   9.160  0.00  0.00    +0.000 NA
ATOM     15  C   UNL     1      44.410   3.030  10.110  0.00  0.00    +0.000 A 
ATOM     16  C   UNL     1      44.945   4.300   9.935  0.00  0.00    +0.000 A 
ATOM     17  N   UNL     1      45.596   4.673   8.798  0.00  0.00    +0.000 NA
BRANCH  12  19
ATOM     18  C   UNL     1      46.795   2.801   6.013  0.00  0.00    +0.000 C 
ATOM     19  O   UNL     1      46.348   3.985   6.672  0.00  0.00    +0.000 OA
ENDBRANCH  12  19
ENDBRANCH   8  16
ENDBRANCH   7  10
ENDBRANCH   1   7
BRANCH   4  20
ATOM     20  C   UNL     1      50.568   8.707  14.124  0.00  0.00    +0.000 C 
BRANCH  20  21
ATOM     21  N   UNL     1      51.127   7.574  14.819  0.00  0.00    +0.000 N 
ATOM     22  C   UNL     1      51.061   7.457  16.186  0.00  0.00    +0.000 C 
ATOM     23  O   UNL     1      50.505   8.296  16.889  0.00  0.00    +0.000 OA
ATOM     24  H   UNL     1      51.834   7.043  14.321  0.00  0.00    +0.000 HD
BRANCH  22  25
ATOM     25  C   UNL     1      51.640   6.233  16.758  0.00  0.00    +0.000 A 
ATOM     26  C   UNL     1      52.988   6.188  17.086  0.00  0.00    +0.000 A 
ATOM     27  S   UNL     1      53.472   4.706  17.781  0.00  0.00    +0.000 S 
ATOM     28  C   UNL     1      51.909   4.054  17.615  0.00  0.00    +0.000 A 
ATOM     29  N   UNL     1      51.636   2.776  17.997  0.00  0.00    +0.000 NA
ATOM     30  C   UNL     1      50.415   2.409  17.789  0.00  0.00    +0.000 A 
ATOM     31  N   UNL     1      49.439   3.205  17.247  0.00  0.00    +0.000 N 
ATOM     32  C   UNL     1      49.660   4.510  16.882  0.00  0.00    +0.000 A 
ATOM     33  O   UNL     1      48.752   5.212  16.452  0.00  0.00    +0.000 OA
ATOM     34  C   UNL     1      51.024   4.965  17.069  0.00  0.00    +0.000 A 
ATOM     35  H   UNL     1      48.497   2.863  17.129  0.00  0.00    +0.000 HD
ENDBRANCH  22  25
ENDBRANCH  20  21
ENDBRANCH   4  20
TORSDOF 7
ENDMDL
MODEL 5
REMARK VINA RESULT:    -6.812      4.217      9.047
REMARK INTER + INTRA:         -10.424
REMARK INTER:                  -9.387
REMARK INTRA:                  -1.037
REMARK UNBOUND:                -0.824
REMARK  Name = 
REMARK  8 active torsions:
REMARK  status: ('A' for Active; 'I' for Inactive)
REMARK    1  A    between atoms: C_1  and  O_2
REMARK    2  A    between atoms: O_2  and  C_3
REMARK    3  A    between atoms: C_7  and  C_8
REMARK    4  A    between atoms: N_10  and  C_11
REMARK    5  A    between atoms: C_11  and  C_12
REMARK    6  A    between atoms: C_15  and  C_16
REMARK    7  A    between atoms: C_16  and  N_17
REMARK    8  A    between atoms: C_18  and  C_20
REMARK                            x       y       z     vdW  Elec       q    Type
REMARK                         _______ _______ _______ _____ _____    ______ ____
ROOT
ATOM      1  C   UNL     1      48.980   4.956  17.304  0.00  0.00    +0.000 A 
ATOM      2  C   UNL     1      49.684   6.091  16.882  0.00  0.00    +0.000 A 
ATOM      3  C   UNL     1      49.346   6.743  15.689  0.00  0.00    +0.000 A 
ATOM      4  C   UNL     1      48.280   6.283  14.903  0.00  0.00    +0.000 A 
ATOM      5  C   UNL     1      47.565   5.158  15.338  0.00  0.00    +0.000 A 
ATOM      6  C   UNL     1      47.903   4.508  16.530  0.00  0.00    +0.000 A 
ENDROOT
BRANCH   1   7
ATOM      7  C   UNL     1      49.384   4.228  18.558  0.00  0.00    +0.000 C 
BRANCH   7  10
ATOM      8  C   UNL     1      50.997   2.569  17.745  0.00  0.00    +0.000 C 
ATOM      9  O   UNL     1      50.150   1.944  17.117  0.00  0.00    +0.000 OA
ATOM     10  N   UNL     1      50.721   3.701  18.484  0.00  0.00    +0.000 N 
ATOM     11  H   UNL     1      51.487   4.156  18.973  0.00  0.00    +0.000 HD
BRANCH   8  16
ATOM     12  C   UNL     1      53.975   0.492  17.426  0.00  0.00    +0.000 A 
ATOM     13  C   UNL     1      54.984   1.396  17.746  0.00  0.00    +0.000 A 
ATOM     14  N   UNL     1      54.731   2.688  18.082  0.00  0.00    +0.000 NA
ATOM     15  C   UNL     1      53.420   3.035  18.081  0.00  0.00    +0.000 A 
ATOM     16  C   UNL     1      52.415   2.135  17.756  0.00  0.00    +0.000 A 
ATOM     17  N   UNL     1      52.668   0.838  17.425  0.00  0.00    +0.000 NA
BRANCH  12  19
ATOM     18  C   UNL     1      55.359  -0.826  16.092  0.00  0.00    +0.000 C 
ATOM     19  O   UNL     1      54.338  -0.793  17.089  0.00  0.00    +0.000 OA
ENDBRANCH  12  19
ENDBRANCH   8  16
ENDBRANCH   7  10
ENDBRANCH   1   7
BRANCH   4  20
ATOM     20  C   UNL     1      47.920   6.946  13.595  0.00  0.00    +0.000 C 
BRANCH  20  21
ATOM     21  N   UNL     1      47.227   6.039  12.715  0.00  0.00    +0.000 N 
ATOM     22  C   UNL     1      46.273   6.475  11.829  0.00  0.00    +0.000 C 
ATOM     23  O   UNL     1      45.972   7.661  11.721  0.00  0.00    +0.000 OA
ATOM     24  H   UNL     1      47.226   5.061  12.984  0.00  0.00    +0.000 HD
BRANCH  22  25
ATOM     25  C   UNL     1      45.673   5.447  10.967  0.00  0.00    +0.000 A 
ATOM     26  C   UNL     1      45.803   5.532   9.587  0.00  0.00    +0.000 A 
ATOM     27  S   UNL     1      45.085   4.228   8.753  0.00  0.00    +0.000 S 
ATOM     28  C   UNL     1      44.526   3.535  10.202  0.00  0.00    +0.000 A 
ATOM     29  N   UNL     1      43.791   2.389  10.197  0.00  0.00    +0.000 NA
ATOM     30  C   UNL     1      43.415   1.993  11.368  0.00  0.00    +0.000 A 
ATOM     31  N   UNL     1      43.717   2.629  12.544  0.00  0.00    +0.000 N 
ATOM     32  C   UNL     1      44.486   3.766  12.600  0.00  0.00    +0.000 A 
ATOM     33  O   UNL     1      44.783   4.280  13.673  0.00  0.00    +0.000 OA
ATOM     34  C   UNL     1      44.912   4.269  11.309  0.00  0.00    +0.000 A 
ATOM     35  H   UNL     1      43.408   2.256  13.429  0.00  0.00    +0.000 HD
ENDBRANCH  22  25
ENDBRANCH  20  21
ENDBRANCH   4  20
TORSDOF 7
ENDMDL
MODEL 6
REMARK VINA RESULT:    -6.692      5.111      7.915
REMARK INTER + INTRA:         -10.254
REMARK INTER:                  -9.354
REMARK INTRA:                  -0.900
REMARK UNBOUND:                -0.824
REMARK  Name = 
REMARK  8 active torsions:
REMARK  status: ('A' for Active; 'I' for Inactive)
REMARK    1  A    between atoms: C_1  and  O_2
REMARK    2  A    between atoms: O_2  and  C_3
REMARK    3  A    between atoms: C_7  and  C_8
REMARK    4  A    between atoms: N_10  and  C_11
REMARK    5  A    between atoms: C_11  and  C_12
REMARK    6  A    between atoms: C_15  and  C_16
REMARK    7  A    between atoms: C_16  and  N_17
REMARK    8  A    between atoms: C_18  and  C_20
REMARK                            x       y       z     vdW  Elec       q    Type
REMARK                         _______ _______ _______ _____ _____    ______ ____
ROOT
ATOM      1  C   UNL     1      50.631   8.741  11.357  0.00  0.00    +0.000 A 
ATOM      2  C   UNL     1      50.180   7.461  11.705  0.00  0.00    +0.000 A 
ATOM      3  C   UNL     1      48.856   7.254  12.115  0.00  0.00    +0.000 A 
ATOM      4  C   UNL     1      47.950   8.323  12.165  0.00  0.00    +0.000 A 
ATOM      5  C   UNL     1      48.401   9.600  11.798  0.00  0.00    +0.000 A 
ATOM      6  C   UNL     1      49.723   9.805  11.389  0.00  0.00    +0.000 A 
ENDROOT
BRANCH   1   7
ATOM      7  C   UNL     1      52.069   8.965  10.971  0.00  0.00    +0.000 C 
BRANCH   7  10
ATOM      8  C   UNL     1      53.779   7.994   9.506  0.00  0.00    +0.000 C 
ATOM      9  O   UNL     1      54.707   8.408  10.191  0.00  0.00    +0.000 OA
ATOM     10  N   UNL     1      52.450   8.216   9.803  0.00  0.00    +0.000 N 
ATOM     11  H   UNL     1      51.747   7.832   9.178  0.00  0.00    +0.000 HD
BRANCH   8  16
ATOM     12  C   UNL     1      53.693   5.305   7.047  0.00  0.00    +0.000 A 
ATOM     13  C   UNL     1      54.474   5.834   6.024  0.00  0.00    +0.000 A 
ATOM     14  N   UNL     1      55.056   7.059   6.104  0.00  0.00    +0.000 NA
ATOM     15  C   UNL     1      54.816   7.733   7.257  0.00  0.00    +0.000 A 
ATOM     16  C   UNL     1      54.031   7.208   8.274  0.00  0.00    +0.000 A 
ATOM     17  N   UNL     1      53.454   5.976   8.195  0.00  0.00    +0.000 NA
BRANCH  12  19
ATOM     18  C   UNL     1      54.100   3.097   6.422  0.00  0.00    +0.000 C 
ATOM     19  O   UNL     1      53.140   4.057   6.862  0.00  0.00    +0.000 OA
ENDBRANCH  12  19
ENDBRANCH   8  16
ENDBRANCH   7  10
ENDBRANCH   1   7
BRANCH   4  20
ATOM     20  C   UNL     1      46.529   8.132  12.639  0.00  0.00    +0.000 C 
BRANCH  20  21
ATOM     21  N   UNL     1      46.045   6.808  12.340  0.00  0.00    +0.000 N 
ATOM     22  C   UNL     1      44.862   6.602  11.673  0.00  0.00    +0.000 C 
ATOM     23  O   UNL     1      44.163   7.530  11.277  0.00  0.00    +0.000 OA
ATOM     24  H   UNL     1      46.423   6.051  12.900  0.00  0.00    +0.000 HD
BRANCH  22  25
ATOM     25  C   UNL     1      44.508   5.201  11.402  0.00  0.00    +0.000 A 
ATOM     26  C   UNL     1      43.736   4.490  12.311  0.00  0.00    +0.000 A 
ATOM     27  S   UNL     1      43.386   2.897  11.809  0.00  0.00    +0.000 S 
ATOM     28  C   UNL     1      44.302   3.084  10.387  0.00  0.00    +0.000 A 
ATOM     29  N   UNL     1      44.445   2.060   9.502  0.00  0.00    +0.000 NA
ATOM     30  C   UNL     1      45.186   2.338   8.482  0.00  0.00    +0.000 A 
ATOM     31  N   UNL     1      45.785   3.550   8.257  0.00  0.00    +0.000 N 
ATOM     32  C   UNL     1      45.638   4.622   9.102  0.00  0.00    +0.000 A 
ATOM     33  O   UNL     1      46.143   5.709   8.844  0.00  0.00    +0.000 OA
ATOM     34  C   UNL     1      44.837   4.355  10.280  0.00  0.00    +0.000 A 
ATOM     35  H   UNL     1      46.337   3.710   7.427  0.00  0.00    +0.000 HD
ENDBRANCH  22  25
ENDBRANCH  20  21
ENDBRANCH   4  20
TORSDOF 7
ENDMDL
MODEL 7
REMARK VINA RESULT:    -6.308      3.081      8.834
REMARK INTER + INTRA:          -9.713
REMARK INTER:                  -9.098
REMARK INTRA:                  -0.615
REMARK UNBOUND:                -0.824
REMARK  Name = 
REMARK  8 active torsions:
REMARK  status: ('A' for Active; 'I' for Inactive)
REMARK    1  A    between atoms: C_1  and  O_2
REMARK    2  A    between atoms: O_2  and  C_3
REMARK    3  A    between atoms: C_7  and  C_8
REMARK    4  A    between atoms: N_10  and  C_11
REMARK    5  A    between atoms: C_11  and  C_12
REMARK    6  A    between atoms: C_15  and  C_16
REMARK    7  A    between atoms: C_16  and  N_17
REMARK    8  A    between atoms: C_18  and  C_20
REMARK                            x       y       z     vdW  Elec       q    Type
REMARK                         _______ _______ _______ _____ _____    ______ ____
ROOT
ATOM      1  C   UNL     1      49.664   8.457  13.245  0.00  0.00    +0.000 A 
ATOM      2  C   UNL     1      48.648   9.120  13.946  0.00  0.00    +0.000 A 
ATOM      3  C   UNL     1      47.330   9.116  13.474  0.00  0.00    +0.000 A 
ATOM      4  C   UNL     1      46.995   8.428  12.299  0.00  0.00    +0.000 A 
ATOM      5  C   UNL     1      48.011   7.749  11.610  0.00  0.00    +0.000 A 
ATOM      6  C   UNL     1      49.328   7.754  12.082  0.00  0.00    +0.000 A 
ENDROOT
BRANCH   1   7
ATOM      7  C   UNL     1      51.088   8.512  13.728  0.00  0.00    +0.000 C 
BRANCH   7  10
ATOM      8  C   UNL     1      51.324   7.425  15.915  0.00  0.00    +0.000 C 
ATOM      9  O   UNL     1      50.926   8.409  16.529  0.00  0.00    +0.000 OA
ATOM     10  N   UNL     1      51.440   7.377  14.540  0.00  0.00    +0.000 N 
ATOM     11  H   UNL     1      51.778   6.518  14.116  0.00  0.00    +0.000 HD
BRANCH   8  16
ATOM     12  C   UNL     1      51.140   4.185  17.572  0.00  0.00    +0.000 A 
ATOM     13  C   UNL     1      52.476   3.950  17.881  0.00  0.00    +0.000 A 
ATOM     14  N   UNL     1      53.464   4.831  17.575  0.00  0.00    +0.000 NA
ATOM     15  C   UNL     1      53.053   5.958  16.942  0.00  0.00    +0.000 A 
ATOM     16  C   UNL     1      51.721   6.188  16.629  0.00  0.00    +0.000 A 
ATOM     17  N   UNL     1      50.729   5.307  16.941  0.00  0.00    +0.000 NA
BRANCH  12  19
ATOM     18  C   UNL     1      50.129   2.180  16.945  0.00  0.00    +0.000 C 
ATOM     19  O   UNL     1      50.215   3.223  17.916  0.00  0.00    +0.000 OA
ENDBRANCH  12  19
ENDBRANCH   8  16
ENDBRANCH   7  10
ENDBRANCH   1   7
BRANCH   4  20
ATOM     20  C   UNL     1      45.589   8.440  11.750  0.00  0.00    +0.000 C 
BRANCH  20  21
ATOM     21  N   UNL     1      45.178   7.127  11.318  0.00  0.00    +0.000 N 
ATOM     22  C   UNL     1      45.157   6.055  12.177  0.00  0.00    +0.000 C 
ATOM     23  O   UNL     1      45.466   6.158  13.361  0.00  0.00    +0.000 OA
ATOM     24  H   UNL     1      45.216   6.947  10.321  0.00  0.00    +0.000 HD
BRANCH  22  25
ATOM     25  C   UNL     1      44.683   4.784  11.612  0.00  0.00    +0.000 A 
ATOM     26  C   UNL     1      43.894   3.934  12.376  0.00  0.00    +0.000 A 
ATOM     27  S   UNL     1      43.399   2.530  11.541  0.00  0.00    +0.000 S 
ATOM     28  C   UNL     1      44.267   2.982  10.150  0.00  0.00    +0.000 A 
ATOM     29  N   UNL     1      44.293   2.186   9.047  0.00  0.00    +0.000 NA
ATOM     30  C   UNL     1      45.012   2.644   8.077  0.00  0.00    +0.000 A 
ATOM     31  N   UNL     1      45.696   3.832   8.103  0.00  0.00    +0.000 N 
ATOM     32  C   UNL     1      45.669   4.684   9.179  0.00  0.00    +0.000 A 
ATOM     33  O   UNL     1      46.248   5.764   9.150  0.00  0.00    +0.000 OA
ATOM     34  C   UNL     1      44.898   4.203  10.308  0.00  0.00    +0.000 A 
ATOM     35  H   UNL     1      46.225   4.143   7.302  0.00  0.00    +0.000 HD
ENDBRANCH  22  25
ENDBRANCH  20  21
ENDBRANCH   4  20
TORSDOF 7
ENDMDL
MODEL 8
REMARK VINA RESULT:    -5.946      1.706      2.203
REMARK INTER + INTRA:          -9.204
REMARK INTER:                  -8.081
REMARK INTRA:                  -1.123
REMARK UNBOUND:                -0.824
REMARK  Name = 
REMARK  8 active torsions:
REMARK  status: ('A' for Active; 'I' for Inactive)
REMARK    1  A    between atoms: C_1  and  O_2
REMARK    2  A    between atoms: O_2  and  C_3
REMARK    3  A    between atoms: C_7  and  C_8
REMARK    4  A    between atoms: N_10  and  C_11
REMARK    5  A    between atoms: C_11  and  C_12
REMARK    6  A    between atoms: C_15  and  C_16
REMARK    7  A    between atoms: C_16  and  N_17
REMARK    8  A    between atoms: C_18  and  C_20
REMARK                            x       y       z     vdW  Elec       q    Type
REMARK                         _______ _______ _______ _____ _____    ______ ____
ROOT
ATOM      1  C   UNL     1      45.442   6.078  11.751  0.00  0.00    +0.000 A 
ATOM      2  C   UNL     1      46.389   7.002  11.289  0.00  0.00    +0.000 A 
ATOM      3  C   UNL     1      47.294   7.603  12.173  0.00  0.00    +0.000 A 
ATOM      4  C   UNL     1      47.285   7.276  13.536  0.00  0.00    +0.000 A 
ATOM      5  C   UNL     1      46.349   6.336  13.992  0.00  0.00    +0.000 A 
ATOM      6  C   UNL     1      45.445   5.735  13.109  0.00  0.00    +0.000 A 
ENDROOT
BRANCH   1   7
ATOM      7  C   UNL     1      44.436   5.477  10.806  0.00  0.00    +0.000 C 
BRANCH   7  10
ATOM      8  C   UNL     1      45.312   3.612   9.476  0.00  0.00    +0.000 C 
ATOM      9  O   UNL     1      45.063   2.781  10.341  0.00  0.00    +0.000 OA
ATOM     10  N   UNL     1      45.044   4.959   9.609  0.00  0.00    +0.000 N 
ATOM     11  H   UNL     1      45.283   5.576   8.838  0.00  0.00    +0.000 HD
BRANCH   8  16
ATOM     12  C   UNL     1      46.757   1.571   6.824  0.00  0.00    +0.000 A 
ATOM     13  C   UNL     1      47.034   2.527   5.852  0.00  0.00    +0.000 A 
ATOM     14  N   UNL     1      46.776   3.849   6.030  0.00  0.00    +0.000 NA
ATOM     15  C   UNL     1      46.222   4.170   7.226  0.00  0.00    +0.000 A 
ATOM     16  C   UNL     1      45.940   3.214   8.192  0.00  0.00    +0.000 A 
ATOM     17  N   UNL     1      46.205   1.890   8.016  0.00  0.00    +0.000 NA
BRANCH  12  19
ATOM     18  C   UNL     1      46.747  -0.616   7.633  0.00  0.00    +0.000 C 
ATOM     19  O   UNL     1      47.048   0.254   6.542  0.00  0.00    +0.000 OA
ENDBRANCH  12  19
ENDBRANCH   8  16
ENDBRANCH   7  10
ENDBRANCH   1   7
BRANCH   4  20
ATOM     20  C   UNL     1      48.226   7.937  14.514  0.00  0.00    +0.000 C 
BRANCH  20  21
ATOM     21  N   UNL     1      49.161   6.992  15.072  0.00  0.00    +0.000 N 
ATOM     22  C   UNL     1      49.616   7.098  16.363  0.00  0.00    +0.000 C 
ATOM     23  O   UNL     1      49.239   7.988  17.120  0.00  0.00    +0.000 OA
ATOM     24  H   UNL     1      49.706   6.452  14.409  0.00  0.00    +0.000 HD
BRANCH  22  25
ATOM     25  C   UNL     1      50.537   6.044  16.812  0.00  0.00    +0.000 A 
ATOM     26  C   UNL     1      51.865   6.348  17.079  0.00  0.00    +0.000 A 
ATOM     27  S   UNL     1      52.772   5.012  17.634  0.00  0.00    +0.000 S 
ATOM     28  C   UNL     1      51.436   3.971  17.482  0.00  0.00    +0.000 A 
ATOM     29  N   UNL     1      51.540   2.645  17.773  0.00  0.00    +0.000 NA
ATOM     30  C   UNL     1      50.453   1.973  17.588  0.00  0.00    +0.000 A 
ATOM     31  N   UNL     1      49.267   2.506  17.153  0.00  0.00    +0.000 N 
ATOM     32  C   UNL     1      49.105   3.842  16.883  0.00  0.00    +0.000 A 
ATOM     33  O   UNL     1      48.017   4.296  16.548  0.00  0.00    +0.000 OA
ATOM     34  C   UNL     1      50.306   4.639  17.048  0.00  0.00    +0.000 A 
ATOM     35  H   UNL     1      48.447   1.928  17.047  0.00  0.00    +0.000 HD
ENDBRANCH  22  25
ENDBRANCH  20  21
ENDBRANCH   4  20
TORSDOF 7
ENDMDL
MODEL 9
REMARK VINA RESULT:    -5.591      3.132     10.096
REMARK INTER + INTRA:          -8.703
REMARK INTER:                  -7.737
REMARK INTRA:                  -0.966
REMARK UNBOUND:                -0.824
REMARK  Name = 
REMARK  8 active torsions:
REMARK  status: ('A' for Active; 'I' for Inactive)
REMARK    1  A    between atoms: C_1  and  O_2
REMARK    2  A    between atoms: O_2  and  C_3
REMARK    3  A    between atoms: C_7  and  C_8
REMARK    4  A    between atoms: N_10  and  C_11
REMARK    5  A    between atoms: C_11  and  C_12
REMARK    6  A    between atoms: C_15  and  C_16
REMARK    7  A    between atoms: C_16  and  N_17
REMARK    8  A    between atoms: C_18  and  C_20
REMARK                            x       y       z     vdW  Elec       q    Type
REMARK                         _______ _______ _______ _____ _____    ______ ____
ROOT
ATOM      1  C   UNL     1      47.714   6.883  13.863  0.00  0.00    +0.000 A 
ATOM      2  C   UNL     1      46.755   7.476  13.031  0.00  0.00    +0.000 A 
ATOM      3  C   UNL     1      45.692   6.726  12.513  0.00  0.00    +0.000 A 
ATOM      4  C   UNL     1      45.554   5.368  12.835  0.00  0.00    +0.000 A 
ATOM      5  C   UNL     1      46.505   4.782  13.684  0.00  0.00    +0.000 A 
ATOM      6  C   UNL     1      47.566   5.533  14.201  0.00  0.00    +0.000 A 
ENDROOT
BRANCH   1   7
ATOM      7  C   UNL     1      48.884   7.682  14.371  0.00  0.00    +0.000 C 
BRANCH   7  10
ATOM      8  C   UNL     1      48.641   8.275  16.739  0.00  0.00    +0.000 C 
ATOM      9  O   UNL     1      47.942   9.253  16.498  0.00  0.00    +0.000 OA
ATOM     10  N   UNL     1      49.153   7.442  15.764  0.00  0.00    +0.000 N 
ATOM     11  H   UNL     1      49.722   6.652  16.057  0.00  0.00    +0.000 HD
BRANCH   8  16
ATOM     12  C   UNL     1      49.303   6.308  19.735  0.00  0.00    +0.000 A 
ATOM     13  C   UNL     1      49.679   7.294  20.642  0.00  0.00    +0.000 A 
ATOM     14  N   UNL     1      49.718   8.613  20.316  0.00  0.00    +0.000 NA
ATOM     15  C   UNL     1      49.365   8.899  19.038  0.00  0.00    +0.000 A 
ATOM     16  C   UNL     1      48.996   7.914  18.133  0.00  0.00    +0.000 A 
ATOM     17  N   UNL     1      48.951   6.592  18.462  0.00  0.00    +0.000 NA
BRANCH  12  19
ATOM     18  C   UNL     1      48.699   4.117  19.217  0.00  0.00    +0.000 C 
ATOM     19  O   UNL     1      49.306   4.998  20.162  0.00  0.00    +0.000 OA
ENDBRANCH  12  19
ENDBRANCH   8  16
ENDBRANCH   7  10
ENDBRANCH   1   7
BRANCH   4  20
ATOM     20  C   UNL     1      44.438   4.529  12.260  0.00  0.00    +0.000 C 
BRANCH  20  21
ATOM     21  N   UNL     1      44.931   3.585  11.289  0.00  0.00    +0.000 N 
ATOM     22  C   UNL     1      44.559   3.642   9.968  0.00  0.00    +0.000 C 
ATOM     23  O   UNL     1      43.804   4.509   9.537  0.00  0.00    +0.000 OA
ATOM     24  H   UNL     1      45.292   2.710  11.653  0.00  0.00    +0.000 HD
BRANCH  22  25
ATOM     25  C   UNL     1      45.167   2.640   9.082  0.00  0.00    +0.000 A 
ATOM     26  C   UNL     1      44.822   1.300   9.206  0.00  0.00    +0.000 A 
ATOM     27  S   UNL     1      45.590   0.290   8.064  0.00  0.00    +0.000 S 
ATOM     28  C   UNL     1      46.453   1.599   7.403  0.00  0.00    +0.000 A 
ATOM     29  N   UNL     1      47.338   1.416   6.385  0.00  0.00    +0.000 NA
ATOM     30  C   UNL     1      47.937   2.494   6.001  0.00  0.00    +0.000 A 
ATOM     31  N   UNL     1      47.724   3.740   6.532  0.00  0.00    +0.000 N 
ATOM     32  C   UNL     1      46.816   3.977   7.534  0.00  0.00    +0.000 A 
ATOM     33  O   UNL     1      46.609   5.112   7.950  0.00  0.00    +0.000 OA
ATOM     34  C   UNL     1      46.134   2.794   8.021  0.00  0.00    +0.000 A 
ATOM     35  H   UNL     1      48.212   4.547   6.174  0.00  0.00    +0.000 HD
ENDBRANCH  22  25
ENDBRANCH  20  21
ENDBRANCH   4  20
TORSDOF 7
ENDMDL
