MODEL 1
REMARK VINA RESULT:    -8.272      0.000      0.000
REMARK INTER + INTRA:         -12.565
REMARK INTER:                 -11.656
REMARK INTRA:                  -0.909
REMARK UNBOUND:                -0.909
REMARK  Name = 
REMARK  8 active torsions:
REMARK  status: ('A' for Active; 'I' for Inactive)
REMARK    1  A    between atoms: C_1  and  C_2
REMARK    2  A    between atoms: C_4  and  C_5
REMARK    3  A    between atoms: C_5  and  N_6
REMARK    4  A    between atoms: N_6  and  C_7
REMARK    5  A    between atoms: C_7  and  C_8
REMARK    6  A    between atoms: C_11  and  C_12
REMARK    7  A    between atoms: C_12  and  N_13
REMARK    8  A    between atoms: C_14  and  C_16
REMARK                            x       y       z     vdW  Elec       q    Type
REMARK                         _______ _______ _______ _____ _____    ______ ____
ROOT
ATOM      1  C   UNL     1      44.664   5.479  11.690  0.00  0.00    +0.000 A 
ATOM      2  C   UNL     1      44.910   4.978  12.976  0.00  0.00    +0.000 A 
ATOM      3  C   UNL     1      46.083   5.295  13.670  0.00  0.00    +0.000 A 
ATOM      4  C   UNL     1      47.056   6.128  13.104  0.00  0.00    +0.000 A 
ATOM      5  C   UNL     1      46.821   6.618  11.811  0.00  0.00    +0.000 A 
ATOM      6  C   UNL     1      45.641   6.302  11.115  0.00  0.00    +0.000 A 
ENDROOT
BRANCH   1   7
ATOM      7  C   UNL     1      43.392   5.120  10.940  0.00  0.00    +0.000 C 
BRANCH   7   8
ATOM      8  N   UNL     1      43.691   4.665   9.584  0.00  0.00    +0.000 NA
ATOM      9  H   UNL     1      42.821   4.653   9.053  0.00  0.00    +0.000 HD
BRANCH   8  10
ATOM     10  C   UNL     1      44.218   3.299   9.519  0.00  0.00    +0.000 C 
BRANCH  10  14
ATOM     11  C   UNL     1      48.038   2.024   6.324  0.00  0.00    +0.000 C 
ATOM     12  C   UNL     1      46.991   2.675   7.144  0.00  0.00    +0.000 A 
ATOM     13  C   UNL     1      46.046   2.159   8.004  0.00  0.00    +0.000 A 
ATOM     14  C   UNL     1      45.341   3.281   8.512  0.00  0.00    +0.000 A 
ATOM     15  N   UNL     1      45.815   4.424   7.992  0.00  0.00    +0.000 NA
ATOM     16  N   UNL     1      46.794   4.029   7.160  0.00  0.00    +0.000 N 
ATOM     17  H   UNL     1      47.289   4.739   6.633  0.00  0.00    +0.000 HD
ENDBRANCH  10  14
ENDBRANCH   8  10
ENDBRANCH   7   8
ENDBRANCH   1   7
BRANCH   4  18
ATOM     18  C   UNL     1      48.319   6.508  13.847  0.00  0.00    +0.000 C 
BRANCH  18  19
ATOM     19  N   UNL     1      48.110   6.692  15.262  0.00  0.00    +0.000 N 
ATOM     20  C   UNL     1      49.112   6.546  16.185  0.00  0.00    +0.000 C 
ATOM     21  O   UNL     1      50.267   6.256  15.887  0.00  0.00    +0.000 OA
ATOM     22  H   UNL     1      47.164   6.546  15.596  0.00  0.00    +0.000 HD
BRANCH  20  23
ATOM     23  C   UNL     1      48.719   6.824  17.575  0.00  0.00    +0.000 A 
ATOM     24  C   UNL     1      48.397   8.115  17.968  0.00  0.00    +0.000 A 
ATOM     25  S   UNL     1      47.945   8.233  19.610  0.00  0.00    +0.000 S 
ATOM     26  C   UNL     1      48.197   6.568  19.861  0.00  0.00    +0.000 A 
ATOM     27  N   UNL     1      48.018   6.009  21.083  0.00  0.00    +0.000 NA
ATOM     28  C   UNL     1      48.276   4.733  21.134  0.00  0.00    +0.000 A 
ATOM     29  N   UNL     1      48.681   3.985  20.067  0.00  0.00    +0.000 N 
ATOM     30  C   UNL     1      48.812   4.494  18.797  0.00  0.00    +0.000 A 
ATOM     31  O   UNL     1      49.071   3.774  17.843  0.00  0.00    +0.000 OA
ATOM     32  C   UNL     1      48.586   5.927  18.699  0.00  0.00    +0.000 A 
ATOM     33  H   UNL     1      48.833   2.988  20.162  0.00  0.00    +0.000 HD
ENDBRANCH  20  23
ENDBRANCH  18  19
ENDBRANCH   4  18
TORSDOF 7
ENDMDL
MODEL 2
REMARK VINA RESULT:    -8.024      1.483      1.845
REMARK INTER + INTRA:         -12.216
REMARK INTER:                 -11.286
REMARK INTRA:                  -0.929
REMARK UNBOUND:                -0.909
REMARK  Name = 
REMARK  8 active torsions:
REMARK  status: ('A' for Active; 'I' for Inactive)
REMARK    1  A    between atoms: C_1  and  C_2
REMARK    2  A    between atoms: C_4  and  C_5
REMARK    3  A    between atoms: C_5  and  N_6
REMARK    4  A    between atoms: N_6  and  C_7
REMARK    5  A    between atoms: C_7  and  C_8
REMARK    6  A    between atoms: C_11  and  C_12
REMARK    7  A    between atoms: C_12  and  N_13
REMARK    8  A    between atoms: C_14  and  C_16
REMARK                            x       y       z     vdW  Elec       q    Type
REMARK                         _______ _______ _______ _____ _____    ______ ____
ROOT
ATOM      1  C   UNL     1      44.367   5.992  11.496  0.00  0.00    +0.000 A 
ATOM      2  C   UNL     1      44.366   7.393  11.540  0.00  0.00    +0.000 A 
ATOM      3  C   UNL     1      45.385   8.102  12.186  0.00  0.00    +0.000 A 
ATOM      4  C   UNL     1      46.447   7.436  12.811  0.00  0.00    +0.000 A 
ATOM      5  C   UNL     1      46.442   6.034  12.782  0.00  0.00    +0.000 A 
ATOM      6  C   UNL     1      45.420   5.321  12.131  0.00  0.00    +0.000 A 
ENDROOT
BRANCH   1   7
ATOM      7  C   UNL     1      43.250   5.230  10.801  0.00  0.00    +0.000 C 
BRANCH   7   8
ATOM      8  N   UNL     1      43.678   4.747   9.491  0.00  0.00    +0.000 NA
ATOM      9  H   UNL     1      42.853   4.663   8.897  0.00  0.00    +0.000 HD
BRANCH   8  10
ATOM     10  C   UNL     1      44.286   3.413   9.519  0.00  0.00    +0.000 C 
BRANCH  10  14
ATOM     11  C   UNL     1      48.013   2.119   6.224  0.00  0.00    +0.000 C 
ATOM     12  C   UNL     1      47.013   2.778   7.095  0.00  0.00    +0.000 A 
ATOM     13  C   UNL     1      46.032   2.266   7.915  0.00  0.00    +0.000 A 
ATOM     14  C   UNL     1      45.408   3.393   8.511  0.00  0.00    +0.000 A 
ATOM     15  N   UNL     1      45.964   4.535   8.079  0.00  0.00    +0.000 NA
ATOM     16  N   UNL     1      46.915   4.136   7.216  0.00  0.00    +0.000 N 
ATOM     17  H   UNL     1      47.462   4.848   6.745  0.00  0.00    +0.000 HD
ENDBRANCH  10  14
ENDBRANCH   8  10
ENDBRANCH   7   8
ENDBRANCH   1   7
BRANCH   4  18
ATOM     18  C   UNL     1      47.574   8.182  13.491  0.00  0.00    +0.000 C 
BRANCH  18  19
ATOM     19  N   UNL     1      47.956   7.602  14.755  0.00  0.00    +0.000 N 
ATOM     20  C   UNL     1      49.214   7.115  14.998  0.00  0.00    +0.000 C 
ATOM     21  O   UNL     1      50.118   7.137  14.169  0.00  0.00    +0.000 OA
ATOM     22  H   UNL     1      47.205   7.210  15.312  0.00  0.00    +0.000 HD
BRANCH  20  23
ATOM     23  C   UNL     1      49.429   6.609  16.363  0.00  0.00    +0.000 A 
ATOM     24  C   UNL     1      50.208   7.325  17.261  0.00  0.00    +0.000 A 
ATOM     25  S   UNL     1      50.321   6.590  18.797  0.00  0.00    +0.000 S 
ATOM     26  C   UNL     1      49.360   5.273  18.305  0.00  0.00    +0.000 A 
ATOM     27  N   UNL     1      49.092   4.247  19.150  0.00  0.00    +0.000 NA
ATOM     28  C   UNL     1      48.371   3.295  18.629  0.00  0.00    +0.000 A 
ATOM     29  N   UNL     1      47.896   3.300  17.350  0.00  0.00    +0.000 N 
ATOM     30  C   UNL     1      48.087   4.348  16.479  0.00  0.00    +0.000 A 
ATOM     31  O   UNL     1      47.557   4.368  15.378  0.00  0.00    +0.000 OA
ATOM     32  C   UNL     1      48.931   5.412  16.998  0.00  0.00    +0.000 A 
ATOM     33  H   UNL     1      47.310   2.546  17.013  0.00  0.00    +0.000 HD
ENDBRANCH  20  23
ENDBRANCH  18  19
ENDBRANCH   4  18
TORSDOF 7
ENDMDL
MODEL 3
REMARK VINA RESULT:    -7.593      1.629      2.708
REMARK INTER + INTRA:         -11.609
REMARK INTER:                 -10.791
REMARK INTRA:                  -0.818
REMARK UNBOUND:                -0.909
REMARK  Name = 
REMARK  8 active torsions:
REMARK  status: ('A' for Active; 'I' for Inactive)
REMARK    1  A    between atoms: C_1  and  C_2
REMARK    2  A    between atoms: C_4  and  C_5
REMARK    3  A    between atoms: C_5  and  N_6
REMARK    4  A    between atoms: N_6  and  C_7
REMARK    5  A    between atoms: C_7  and  C_8
REMARK    6  A    between atoms: C_11  and  C_12
REMARK    7  A    between atoms: C_12  and  N_13
REMARK    8  A    between atoms: C_14  and  C_16
REMARK                            x       y       z     vdW  Elec       q    Type
REMARK                         _______ _______ _______ _____ _____    ______ ____
ROOT
ATOM      1  C   UNL     1      44.620   5.289  11.677  0.00  0.00    +0.000 A 
ATOM      2  C   UNL     1      45.076   4.274  12.530  0.00  0.00    +0.000 A 
ATOM      3  C   UNL     1      46.239   4.431  13.292  0.00  0.00    +0.000 A 
ATOM      4  C   UNL     1      46.991   5.610  13.232  0.00  0.00    +0.000 A 
ATOM      5  C   UNL     1      46.547   6.621  12.367  0.00  0.00    +0.000 A 
ATOM      6  C   UNL     1      45.376   6.466  11.604  0.00  0.00    +0.000 A 
ENDROOT
BRANCH   1   7
ATOM      7  C   UNL     1      43.361   5.106  10.845  0.00  0.00    +0.000 C 
BRANCH   7   8
ATOM      8  N   UNL     1      43.684   4.646   9.497  0.00  0.00    +0.000 NA
ATOM      9  H   UNL     1      42.812   4.550   8.975  0.00  0.00    +0.000 HD
BRANCH   8  10
ATOM     10  C   UNL     1      44.321   3.327   9.456  0.00  0.00    +0.000 C 
BRANCH  10  14
ATOM     11  C   UNL     1      48.134   2.307   6.163  0.00  0.00    +0.000 C 
ATOM     12  C   UNL     1      47.101   2.892   7.048  0.00  0.00    +0.000 A 
ATOM     13  C   UNL     1      46.125   2.312   7.828  0.00  0.00    +0.000 A 
ATOM     14  C   UNL     1      45.457   3.389   8.465  0.00  0.00    +0.000 A 
ATOM     15  N   UNL     1      45.982   4.568   8.096  0.00  0.00    +0.000 NA
ATOM     16  N   UNL     1      46.957   4.240   7.231  0.00  0.00    +0.000 N 
ATOM     17  H   UNL     1      47.488   4.990   6.802  0.00  0.00    +0.000 HD
ENDBRANCH  10  14
ENDBRANCH   8  10
ENDBRANCH   7   8
ENDBRANCH   1   7
BRANCH   4  18
ATOM     18  C   UNL     1      48.236   5.813  14.068  0.00  0.00    +0.000 C 
BRANCH  18  19
ATOM     19  N   UNL     1      47.965   6.412  15.352  0.00  0.00    +0.000 N 
ATOM     20  C   UNL     1      48.897   6.470  16.355  0.00  0.00    +0.000 C 
ATOM     21  O   UNL     1      50.036   6.027  16.245  0.00  0.00    +0.000 OA
ATOM     22  H   UNL     1      46.992   6.434  15.637  0.00  0.00    +0.000 HD
BRANCH  20  23
ATOM     23  C   UNL     1      48.452   7.164  17.573  0.00  0.00    +0.000 A 
ATOM     24  C   UNL     1      48.284   6.461  18.758  0.00  0.00    +0.000 A 
ATOM     25  S   UNL     1      47.786   7.441  20.064  0.00  0.00    +0.000 S 
ATOM     26  C   UNL     1      47.747   8.833  19.084  0.00  0.00    +0.000 A 
ATOM     27  N   UNL     1      47.362  10.032  19.585  0.00  0.00    +0.000 NA
ATOM     28  C   UNL     1      47.351  11.001  18.714  0.00  0.00    +0.000 A 
ATOM     29  N   UNL     1      47.703  10.863  17.403  0.00  0.00    +0.000 N 
ATOM     30  C   UNL     1      48.162   9.683  16.866  0.00  0.00    +0.000 A 
ATOM     31  O   UNL     1      48.571   9.620  15.716  0.00  0.00    +0.000 OA
ATOM     32  C   UNL     1      48.142   8.558  17.787  0.00  0.00    +0.000 A 
ATOM     33  H   UNL     1      47.708  11.663  16.781  0.00  0.00    +0.000 HD
ENDBRANCH  20  23
ENDBRANCH  18  19
ENDBRANCH   4  18
TORSDOF 7
ENDMDL
MODEL 4
REMARK VINA RESULT:    -7.496      1.659      2.356
REMARK INTER + INTRA:         -11.472
REMARK INTER:                 -10.605
REMARK INTRA:                  -0.867
REMARK UNBOUND:                -0.909
REMARK  Name = 
REMARK  8 active torsions:
REMARK  status: ('A' for Active; 'I' for Inactive)
REMARK    1  A    between atoms: C_1  and  C_2
REMARK    2  A    between atoms: C_4  and  C_5
REMARK    3  A    between atoms: C_5  and  N_6
REMARK    4  A    between atoms: N_6  and  C_7
REMARK    5  A    between atoms: C_7  and  C_8
REMARK    6  A    between atoms: C_11  and  C_12
REMARK    7  A    between atoms: C_12  and  N_13
REMARK    8  A    between atoms: C_14  and  C_16
REMARK                            x       y       z     vdW  Elec       q    Type
REMARK                         _______ _______ _______ _____ _____    ______ ____
ROOT
ATOM      1  C   UNL     1      44.660   5.871  11.478  0.00  0.00    +0.000 A 
ATOM      2  C   UNL     1      44.893   7.250  11.398  0.00  0.00    +0.000 A 
ATOM      3  C   UNL     1      45.905   7.863  12.146  0.00  0.00    +0.000 A 
ATOM      4  C   UNL     1      46.724   7.118  13.003  0.00  0.00    +0.000 A 
ATOM      5  C   UNL     1      46.482   5.740  13.098  0.00  0.00    +0.000 A 
ATOM      6  C   UNL     1      45.468   5.123  12.344  0.00  0.00    +0.000 A 
ENDROOT
BRANCH   1   7
ATOM      7  C   UNL     1      43.552   5.215  10.670  0.00  0.00    +0.000 C 
BRANCH   7   8
ATOM      8  N   UNL     1      44.091   4.515   9.507  0.00  0.00    +0.000 NA
ATOM      9  H   UNL     1      43.409   4.579   8.752  0.00  0.00    +0.000 HD
BRANCH   8  10
ATOM     10  C   UNL     1      44.312   3.083   9.726  0.00  0.00    +0.000 C 
BRANCH  10  14
ATOM     11  C   UNL     1      47.520   2.571   5.743  0.00  0.00    +0.000 C 
ATOM     12  C   UNL     1      46.685   2.434   6.958  0.00  0.00    +0.000 A 
ATOM     13  C   UNL     1      45.852   3.321   7.603  0.00  0.00    +0.000 A 
ATOM     14  C   UNL     1      45.309   2.604   8.700  0.00  0.00    +0.000 A 
ATOM     15  N   UNL     1      45.785   1.350   8.739  0.00  0.00    +0.000 NA
ATOM     16  N   UNL     1      46.622   1.280   7.689  0.00  0.00    +0.000 N 
ATOM     17  H   UNL     1      47.119   0.411   7.531  0.00  0.00    +0.000 HD
ENDBRANCH  10  14
ENDBRANCH   8  10
ENDBRANCH   7   8
ENDBRANCH   1   7
BRANCH   4  18
ATOM     18  C   UNL     1      47.842   7.754  13.800  0.00  0.00    +0.000 C 
BRANCH  18  19
ATOM     19  N   UNL     1      47.903   7.286  15.163  0.00  0.00    +0.000 N 
ATOM     20  C   UNL     1      49.050   6.791  15.727  0.00  0.00    +0.000 C 
ATOM     21  O   UNL     1      50.117   6.710  15.125  0.00  0.00    +0.000 OA
ATOM     22  H   UNL     1      47.029   6.969  15.566  0.00  0.00    +0.000 HD
BRANCH  20  23
ATOM     23  C   UNL     1      48.930   6.410  17.142  0.00  0.00    +0.000 A 
ATOM     24  C   UNL     1      49.333   5.152  17.567  0.00  0.00    +0.000 A 
ATOM     25  S   UNL     1      49.138   4.907  19.245  0.00  0.00    +0.000 S 
ATOM     26  C   UNL     1      48.477   6.461  19.457  0.00  0.00    +0.000 A 
ATOM     27  N   UNL     1      48.058   6.884  20.675  0.00  0.00    +0.000 NA
ATOM     28  C   UNL     1      47.546   8.083  20.681  0.00  0.00    +0.000 A 
ATOM     29  N   UNL     1      47.437   8.880  19.580  0.00  0.00    +0.000 N 
ATOM     30  C   UNL     1      47.907   8.520  18.339  0.00  0.00    +0.000 A 
ATOM     31  O   UNL     1      47.891   9.301  17.398  0.00  0.00    +0.000 OA
ATOM     32  C   UNL     1      48.440   7.169  18.269  0.00  0.00    +0.000 A 
ATOM     33  H   UNL     1      47.062   9.818  19.656  0.00  0.00    +0.000 HD
ENDBRANCH  20  23
ENDBRANCH  18  19
ENDBRANCH   4  18
TORSDOF 7
ENDMDL
MODEL 5
REMARK VINA RESULT:    -7.420      4.881      9.623
REMARK INTER + INTRA:         -11.365
REMARK INTER:                 -10.545
REMARK INTRA:                  -0.820
REMARK UNBOUND:                -0.909
REMARK  Name = 
REMARK  8 active torsions:
REMARK  status: ('A' for Active; 'I' for Inactive)
REMARK    1  A    between atoms: C_1  and  C_2
REMARK    2  A    between atoms: C_4  and  C_5
REMARK    3  A    between atoms: C_5  and  N_6
REMARK    4  A    between atoms: N_6  and  C_7
REMARK    5  A    between atoms: C_7  and  C_8
REMARK    6  A    between atoms: C_11  and  C_12
REMARK    7  A    between atoms: C_12  and  N_13
REMARK    8  A    between atoms: C_14  and  C_16
REMARK                            x       y       z     vdW  Elec       q    Type
REMARK                         _______ _______ _______ _____ _____    ______ ____
ROOT
ATOM      1  C   UNL     1      51.399   3.288  17.719  0.00  0.00    +0.000 A 
ATOM      2  C   UNL     1      50.688   4.495  17.775  0.00  0.00    +0.000 A 
ATOM      3  C   UNL     1      49.320   4.548  17.486  0.00  0.00    +0.000 A 
ATOM      4  C   UNL     1      48.609   3.395  17.132  0.00  0.00    +0.000 A 
ATOM      5  C   UNL     1      49.321   2.189  17.059  0.00  0.00    +0.000 A 
ATOM      6  C   UNL     1      50.694   2.134  17.353  0.00  0.00    +0.000 A 
ENDROOT
BRANCH   1   7
ATOM      7  C   UNL     1      52.887   3.241  18.024  0.00  0.00    +0.000 C 
BRANCH   7   8
ATOM      8  N   UNL     1      53.204   2.143  18.933  0.00  0.00    +0.000 NA
ATOM      9  H   UNL     1      53.092   2.478  19.890  0.00  0.00    +0.000 HD
BRANCH   8  10
ATOM     10  C   UNL     1      54.589   1.671  18.836  0.00  0.00    +0.000 C 
BRANCH  10  14
ATOM     11  C   UNL     1      55.087  -2.429  15.775  0.00  0.00    +0.000 C 
ATOM     12  C   UNL     1      54.810  -1.446  16.848  0.00  0.00    +0.000 A 
ATOM     13  C   UNL     1      55.124  -0.110  16.971  0.00  0.00    +0.000 A 
ATOM     14  C   UNL     1      54.570   0.298  18.212  0.00  0.00    +0.000 A 
ATOM     15  N   UNL     1      53.957  -0.726  18.826  0.00  0.00    +0.000 NA
ATOM     16  N   UNL     1      54.131  -1.766  17.991  0.00  0.00    +0.000 N 
ATOM     17  H   UNL     1      53.759  -2.667  18.266  0.00  0.00    +0.000 HD
ENDBRANCH  10  14
ENDBRANCH   8  10
ENDBRANCH   7   8
ENDBRANCH   1   7
BRANCH   4  18
ATOM     18  C   UNL     1      47.123   3.424  16.843  0.00  0.00    +0.000 C 
BRANCH  18  19
ATOM     19  N   UNL     1      46.764   4.377  15.821  0.00  0.00    +0.000 N 
ATOM     20  C   UNL     1      46.823   4.087  14.483  0.00  0.00    +0.000 C 
ATOM     21  O   UNL     1      47.179   2.997  14.043  0.00  0.00    +0.000 OA
ATOM     22  H   UNL     1      46.842   5.355  16.075  0.00  0.00    +0.000 HD
BRANCH  20  23
ATOM     23  C   UNL     1      46.369   5.167  13.594  0.00  0.00    +0.000 A 
ATOM     24  C   UNL     1      47.189   6.257  13.339  0.00  0.00    +0.000 A 
ATOM     25  S   UNL     1      46.497   7.392  12.268  0.00  0.00    +0.000 S 
ATOM     26  C   UNL     1      45.064   6.483  12.135  0.00  0.00    +0.000 A 
ATOM     27  N   UNL     1      44.025   6.919  11.381  0.00  0.00    +0.000 NA
ATOM     28  C   UNL     1      42.983   6.137  11.396  0.00  0.00    +0.000 A 
ATOM     29  N   UNL     1      42.909   4.964  12.089  0.00  0.00    +0.000 N 
ATOM     30  C   UNL     1      43.959   4.450  12.813  0.00  0.00    +0.000 A 
ATOM     31  O   UNL     1      43.897   3.345  13.333  0.00  0.00    +0.000 OA
ATOM     32  C   UNL     1      45.128   5.313  12.870  0.00  0.00    +0.000 A 
ATOM     33  H   UNL     1      42.083   4.381  12.033  0.00  0.00    +0.000 HD
ENDBRANCH  20  23
ENDBRANCH  18  19
ENDBRANCH   4  18
TORSDOF 7
ENDMDL
MODEL 6
REMARK VINA RESULT:    -7.207      5.020      9.331
REMARK INTER + INTRA:         -11.065
REMARK INTER:                 -10.153
REMARK INTRA:                  -0.912
REMARK UNBOUND:                -0.909
REMARK  Name = 
REMARK  8 active torsions:
REMARK  status: ('A' for Active; 'I' for Inactive)
REMARK    1  A    between atoms: C_1  and  C_2
REMARK    2  A    between atoms: C_4  and  C_5
REMARK    3  A    between atoms: C_5  and  N_6
REMARK    4  A    between atoms: N_6  and  C_7
REMARK    5  A    between atoms: C_7  and  C_8
REMARK    6  A    between atoms: C_11  and  C_12
REMARK    7  A    between atoms: C_12  and  N_13
REMARK    8  A    between atoms: C_14  and  C_16
REMARK                            x       y       z     vdW  Elec       q    Type
REMARK                         _______ _______ _______ _____ _____    ______ ____
ROOT
ATOM      1  C   UNL     1      50.921   2.401  17.473  0.00  0.00    +0.000 A 
ATOM      2  C   UNL     1      51.569   3.641  17.556  0.00  0.00    +0.000 A 
ATOM      3  C   UNL     1      50.870   4.841  17.387  0.00  0.00    +0.000 A 
ATOM      4  C   UNL     1      49.493   4.847  17.130  0.00  0.00    +0.000 A 
ATOM      5  C   UNL     1      48.845   3.607  17.030  0.00  0.00    +0.000 A 
ATOM      6  C   UNL     1      49.547   2.402  17.203  0.00  0.00    +0.000 A 
ENDROOT
BRANCH   1   7
ATOM      7  C   UNL     1      51.691   1.102  17.646  0.00  0.00    +0.000 C 
BRANCH   7   8
ATOM      8  N   UNL     1      52.901   1.309  18.438  0.00  0.00    +0.000 NA
ATOM      9  H   UNL     1      52.913   2.279  18.755  0.00  0.00    +0.000 HD
BRANCH   8  10
ATOM     10  C   UNL     1      54.144   1.122  17.683  0.00  0.00    +0.000 C 
BRANCH  10  14
ATOM     11  C   UNL     1      54.888  -3.906  18.453  0.00  0.00    +0.000 C 
ATOM     12  C   UNL     1      54.705  -2.530  17.936  0.00  0.00    +0.000 A 
ATOM     13  C   UNL     1      54.413  -1.343  18.571  0.00  0.00    +0.000 A 
ATOM     14  C   UNL     1      54.386  -0.361  17.547  0.00  0.00    +0.000 A 
ATOM     15  N   UNL     1      54.638  -0.908  16.348  0.00  0.00    +0.000 NA
ATOM     16  N   UNL     1      54.809  -2.216  16.609  0.00  0.00    +0.000 N 
ATOM     17  H   UNL     1      54.996  -2.838  15.832  0.00  0.00    +0.000 HD
ENDBRANCH  10  14
ENDBRANCH   8  10
ENDBRANCH   7   8
ENDBRANCH   1   7
BRANCH   4  18
ATOM     18  C   UNL     1      48.711   6.133  16.973  0.00  0.00    +0.000 C 
BRANCH  18  19
ATOM     19  N   UNL     1      47.821   6.119  15.837  0.00  0.00    +0.000 N 
ATOM     20  C   UNL     1      48.243   6.385  14.561  0.00  0.00    +0.000 C 
ATOM     21  O   UNL     1      49.408   6.650  14.276  0.00  0.00    +0.000 OA
ATOM     22  H   UNL     1      46.842   6.294  16.034  0.00  0.00    +0.000 HD
BRANCH  20  23
ATOM     23  C   UNL     1      47.202   6.273  13.528  0.00  0.00    +0.000 A 
ATOM     24  C   UNL     1      46.771   7.400  12.842  0.00  0.00    +0.000 A 
ATOM     25  S   UNL     1      45.577   7.065  11.669  0.00  0.00    +0.000 S 
ATOM     26  C   UNL     1      45.571   5.408  12.060  0.00  0.00    +0.000 A 
ATOM     27  N   UNL     1      44.733   4.544  11.436  0.00  0.00    +0.000 NA
ATOM     28  C   UNL     1      44.816   3.314  11.859  0.00  0.00    +0.000 A 
ATOM     29  N   UNL     1      45.671   2.890  12.834  0.00  0.00    +0.000 N 
ATOM     30  C   UNL     1      46.583   3.716  13.448  0.00  0.00    +0.000 A 
ATOM     31  O   UNL     1      47.407   3.281  14.239  0.00  0.00    +0.000 OA
ATOM     32  C   UNL     1      46.493   5.111  13.048  0.00  0.00    +0.000 A 
ATOM     33  H   UNL     1      45.714   1.912  13.095  0.00  0.00    +0.000 HD
ENDBRANCH  20  23
ENDBRANCH  18  19
ENDBRANCH   4  18
TORSDOF 7
ENDMDL
MODEL 7
REMARK VINA RESULT:    -7.126      3.345      4.380
REMARK INTER + INTRA:         -10.951
REMARK INTER:                  -9.885
REMARK INTRA:                  -1.066
REMARK UNBOUND:                -0.909
REMARK  Name = 
REMARK  8 active torsions:
REMARK  status: ('A' for Active; 'I' for Inactive)
REMARK    1  A    between atoms: C_1  and  C_2
REMARK    2  A    between atoms: C_4  and  C_5
REMARK    3  A    between atoms: C_5  and  N_6
REMARK    4  A    between atoms: N_6  and  C_7
REMARK    5  A    between atoms: C_7  and  C_8
REMARK    6  A    between atoms: C_11  and  C_12
REMARK    7  A    between atoms: C_12  and  N_13
REMARK    8  A    between atoms: C_14  and  C_16
REMARK                            x       y       z     vdW  Elec       q    Type
REMARK                         _______ _______ _______ _____ _____    ______ ____
ROOT
ATOM      1  C   UNL     1      46.989   5.050  14.056  0.00  0.00    +0.000 A 
ATOM      2  C   UNL     1      47.736   6.232  13.955  0.00  0.00    +0.000 A 
ATOM      3  C   UNL     1      48.519   6.692  15.019  0.00  0.00    +0.000 A 
ATOM      4  C   UNL     1      48.587   5.985  16.226  0.00  0.00    +0.000 A 
ATOM      5  C   UNL     1      47.829   4.811  16.336  0.00  0.00    +0.000 A 
ATOM      6  C   UNL     1      47.044   4.347  15.266  0.00  0.00    +0.000 A 
ENDROOT
BRANCH   1   7
ATOM      7  C   UNL     1      46.133   4.563  12.898  0.00  0.00    +0.000 C 
BRANCH   7   8
ATOM      8  N   UNL     1      45.995   5.596  11.875  0.00  0.00    +0.000 NA
ATOM      9  H   UNL     1      46.029   6.506  12.334  0.00  0.00    +0.000 HD
BRANCH   8  10
ATOM     10  C   UNL     1      44.716   5.557  11.160  0.00  0.00    +0.000 C 
BRANCH  10  14
ATOM     11  C   UNL     1      46.052   3.229   6.777  0.00  0.00    +0.000 C 
ATOM     12  C   UNL     1      45.482   3.659   8.074  0.00  0.00    +0.000 A 
ATOM     13  C   UNL     1      45.758   4.738   8.884  0.00  0.00    +0.000 A 
ATOM     14  C   UNL     1      44.868   4.625   9.984  0.00  0.00    +0.000 A 
ATOM     15  N   UNL     1      44.093   3.536   9.867  0.00  0.00    +0.000 NA
ATOM     16  N   UNL     1      44.495   2.964   8.718  0.00  0.00    +0.000 N 
ATOM     17  H   UNL     1      44.051   2.100   8.433  0.00  0.00    +0.000 HD
ENDBRANCH  10  14
ENDBRANCH   8  10
ENDBRANCH   7   8
ENDBRANCH   1   7
BRANCH   4  18
ATOM     18  C   UNL     1      49.450   6.449  17.381  0.00  0.00    +0.000 C 
BRANCH  18  19
ATOM     19  N   UNL     1      50.422   5.465  17.792  0.00  0.00    +0.000 N 
ATOM     20  C   UNL     1      51.692   5.419  17.280  0.00  0.00    +0.000 C 
ATOM     21  O   UNL     1      52.111   6.209  16.439  0.00  0.00    +0.000 OA
ATOM     22  H   UNL     1      50.050   4.595  18.157  0.00  0.00    +0.000 HD
BRANCH  20  23
ATOM     23  C   UNL     1      52.555   4.378  17.859  0.00  0.00    +0.000 A 
ATOM     24  C   UNL     1      53.717   4.725  18.534  0.00  0.00    +0.000 A 
ATOM     25  S   UNL     1      54.571   3.383  19.152  0.00  0.00    +0.000 S 
ATOM     26  C   UNL     1      53.435   2.289  18.511  0.00  0.00    +0.000 A 
ATOM     27  N   UNL     1      53.594   0.950  18.655  0.00  0.00    +0.000 NA
ATOM     28  C   UNL     1      52.664   0.234  18.087  0.00  0.00    +0.000 A 
ATOM     29  N   UNL     1      51.600   0.750  17.408  0.00  0.00    +0.000 N 
ATOM     30  C   UNL     1      51.363   2.100  17.293  0.00  0.00    +0.000 A 
ATOM     31  O   UNL     1      50.343   2.527  16.771  0.00  0.00    +0.000 OA
ATOM     32  C   UNL     1      52.401   2.942  17.865  0.00  0.00    +0.000 A 
ATOM     33  H   UNL     1      50.890   0.142  17.019  0.00  0.00    +0.000 HD
ENDBRANCH  20  23
ENDBRANCH  18  19
ENDBRANCH   4  18
TORSDOF 7
ENDMDL
MODEL 8
REMARK VINA RESULT:    -6.813      3.264      9.275
REMARK INTER + INTRA:         -10.510
REMARK INTER:                  -9.272
REMARK INTRA:                  -1.238
REMARK UNBOUND:                -0.909
REMARK  Name = 
REMARK  8 active torsions:
REMARK  status: ('A' for Active; 'I' for Inactive)
REMARK    1  A    between atoms: C_1  and  C_2
REMARK    2  A    between atoms: C_4  and  C_5
REMARK    3  A    between atoms: C_5  and  N_6
REMARK    4  A    between atoms: N_6  and  C_7
REMARK    5  A    between atoms: C_7  and  C_8
REMARK    6  A    between atoms: C_11  and  C_12
REMARK    7  A    between atoms: C_12  and  N_13
REMARK    8  A    between atoms: C_14  and  C_16
REMARK                            x       y       z     vdW  Elec       q    Type
REMARK                         _______ _______ _______ _____ _____    ______ ____
ROOT
ATOM      1  C   UNL     1      49.263   8.217  16.002  0.00  0.00    +0.000 A 
ATOM      2  C   UNL     1      49.694   7.170  15.176  0.00  0.00    +0.000 A 
ATOM      3  C   UNL     1      49.174   6.996  13.888  0.00  0.00    +0.000 A 
ATOM      4  C   UNL     1      48.203   7.866  13.377  0.00  0.00    +0.000 A 
ATOM      5  C   UNL     1      47.757   8.905  14.207  0.00  0.00    +0.000 A 
ATOM      6  C   UNL     1      48.282   9.081  15.499  0.00  0.00    +0.000 A 
ENDROOT
BRANCH   1   7
ATOM      7  C   UNL     1      49.826   8.391  17.403  0.00  0.00    +0.000 C 
BRANCH   7   8
ATOM      8  N   UNL     1      48.809   8.120  18.416  0.00  0.00    +0.000 NA
ATOM      9  H   UNL     1      48.560   9.003  18.864  0.00  0.00    +0.000 HD
BRANCH   8  10
ATOM     10  C   UNL     1      49.266   7.241  19.496  0.00  0.00    +0.000 C 
BRANCH  10  14
ATOM     11  C   UNL     1      47.357   2.921  17.466  0.00  0.00    +0.000 C 
ATOM     12  C   UNL     1      48.105   3.976  18.187  0.00  0.00    +0.000 A 
ATOM     13  C   UNL     1      47.993   5.350  18.177  0.00  0.00    +0.000 A 
ATOM     14  C   UNL     1      48.971   5.817  19.093  0.00  0.00    +0.000 A 
ATOM     15  N   UNL     1      49.654   4.795  19.633  0.00  0.00    +0.000 NA
ATOM     16  N   UNL     1      49.124   3.702  19.057  0.00  0.00    +0.000 N 
ATOM     17  H   UNL     1      49.507   2.797  19.307  0.00  0.00    +0.000 HD
ENDBRANCH  10  14
ENDBRANCH   8  10
ENDBRANCH   7   8
ENDBRANCH   1   7
BRANCH   4  18
ATOM     18  C   UNL     1      47.647   7.714  11.977  0.00  0.00    +0.000 C 
BRANCH  18  19
ATOM     19  N   UNL     1      46.870   6.511  11.804  0.00  0.00    +0.000 N 
ATOM     20  C   UNL     1      45.500   6.510  11.773  0.00  0.00    +0.000 C 
ATOM     21  O   UNL     1      44.822   7.527  11.883  0.00  0.00    +0.000 OA
ATOM     22  H   UNL     1      47.316   5.647  12.090  0.00  0.00    +0.000 HD
BRANCH  20  23
ATOM     23  C   UNL     1      44.887   5.194  11.536  0.00  0.00    +0.000 A 
ATOM     24  C   UNL     1      44.127   4.587  12.525  0.00  0.00    +0.000 A 
ATOM     25  S   UNL     1      43.481   3.078  12.055  0.00  0.00    +0.000 S 
ATOM     26  C   UNL     1      44.222   3.169  10.525  0.00  0.00    +0.000 A 
ATOM     27  N   UNL     1      44.097   2.163   9.625  0.00  0.00    +0.000 NA
ATOM     28  C   UNL     1      44.742   2.356   8.509  0.00  0.00    +0.000 A 
ATOM     29  N   UNL     1      45.481   3.468   8.228  0.00  0.00    +0.000 N 
ATOM     30  C   UNL     1      45.583   4.540   9.083  0.00  0.00    +0.000 A 
ATOM     31  O   UNL     1      46.163   5.565   8.755  0.00  0.00    +0.000 OA
ATOM     32  C   UNL     1      44.923   4.351  10.364  0.00  0.00    +0.000 A 
ATOM     33  H   UNL     1      45.932   3.575   7.327  0.00  0.00    +0.000 HD
ENDBRANCH  20  23
ENDBRANCH  18  19
ENDBRANCH   4  18
TORSDOF 7
ENDMDL
MODEL 9
REMARK VINA RESULT:    -6.729      3.757      8.103
REMARK INTER + INTRA:         -10.391
REMARK INTER:                  -8.800
REMARK INTRA:                  -1.591
REMARK UNBOUND:                -0.909
REMARK  Name = 
REMARK  8 active torsions:
REMARK  status: ('A' for Active; 'I' for Inactive)
REMARK    1  A    between atoms: C_1  and  C_2
REMARK    2  A    between atoms: C_4  and  C_5
REMARK    3  A    between atoms: C_5  and  N_6
REMARK    4  A    between atoms: N_6  and  C_7
REMARK    5  A    between atoms: C_7  and  C_8
REMARK    6  A    between atoms: C_11  and  C_12
REMARK    7  A    between atoms: C_12  and  N_13
REMARK    8  A    between atoms: C_14  and  C_16
REMARK                            x       y       z     vdW  Elec       q    Type
REMARK                         _______ _______ _______ _____ _____    ______ ____
ROOT
ATOM      1  C   UNL     1      51.362   6.401  17.648  0.00  0.00    +0.000 A 
ATOM      2  C   UNL     1      50.459   7.120  18.444  0.00  0.00    +0.000 A 
ATOM      3  C   UNL     1      49.537   8.008  17.879  0.00  0.00    +0.000 A 
ATOM      4  C   UNL     1      49.480   8.210  16.495  0.00  0.00    +0.000 A 
ATOM      5  C   UNL     1      50.393   7.504  15.697  0.00  0.00    +0.000 A 
ATOM      6  C   UNL     1      51.317   6.609  16.263  0.00  0.00    +0.000 A 
ENDROOT
BRANCH   1   7
ATOM      7  C   UNL     1      52.367   5.447  18.271  0.00  0.00    +0.000 C 
BRANCH   7   8
ATOM      8  N   UNL     1      52.615   4.301  17.400  0.00  0.00    +0.000 NA
ATOM      9  H   UNL     1      52.097   4.441  16.533  0.00  0.00    +0.000 HD
BRANCH   8  10
ATOM     10  C   UNL     1      52.141   3.026  17.946  0.00  0.00    +0.000 C 
BRANCH  10  14
ATOM     11  C   UNL     1      47.078   3.167  17.068  0.00  0.00    +0.000 C 
ATOM     12  C   UNL     1      48.535   2.905  17.111  0.00  0.00    +0.000 A 
ATOM     13  C   UNL     1      49.556   3.513  17.807  0.00  0.00    +0.000 A 
ATOM     14  C   UNL     1      50.733   2.803  17.452  0.00  0.00    +0.000 A 
ATOM     15  N   UNL     1      50.458   1.820  16.582  0.00  0.00    +0.000 NA
ATOM     16  N   UNL     1      49.132   1.914  16.381  0.00  0.00    +0.000 N 
ATOM     17  H   UNL     1      48.699   1.268  15.732  0.00  0.00    +0.000 HD
ENDBRANCH  10  14
ENDBRANCH   8  10
ENDBRANCH   7   8
ENDBRANCH   1   7
BRANCH   4  18
ATOM     18  C   UNL     1      48.472   9.143  15.859  0.00  0.00    +0.000 C 
BRANCH  18  19
ATOM     19  N   UNL     1      47.518   8.460  15.020  0.00  0.00    +0.000 N 
ATOM     20  C   UNL     1      47.592   8.471  13.652  0.00  0.00    +0.000 C 
ATOM     21  O   UNL     1      48.474   9.053  13.028  0.00  0.00    +0.000 OA
ATOM     22  H   UNL     1      46.600   8.307  15.422  0.00  0.00    +0.000 HD
BRANCH  20  23
ATOM     23  C   UNL     1      46.559   7.675  12.970  0.00  0.00    +0.000 A 
ATOM     24  C   UNL     1      45.627   8.293  12.149  0.00  0.00    +0.000 A 
ATOM     25  S   UNL     1      44.528   7.203  11.430  0.00  0.00    +0.000 S 
ATOM     26  C   UNL     1      45.239   5.872  12.217  0.00  0.00    +0.000 A 
ATOM     27  N   UNL     1      44.746   4.619  12.059  0.00  0.00    +0.000 NA
ATOM     28  C   UNL     1      45.370   3.704  12.745  0.00  0.00    +0.000 A 
ATOM     29  N   UNL     1      46.441   3.945  13.555  0.00  0.00    +0.000 N 
ATOM     30  C   UNL     1      47.015   5.186  13.695  0.00  0.00    +0.000 A 
ATOM     31  O   UNL     1      48.040   5.347  14.343  0.00  0.00    +0.000 OA
ATOM     32  C   UNL     1      46.322   6.251  12.990  0.00  0.00    +0.000 A 
ATOM     33  H   UNL     1      46.907   3.185  14.036  0.00  0.00    +0.000 HD
ENDBRANCH  20  23
ENDBRANCH  18  19
ENDBRANCH   4  18
TORSDOF 7
ENDMDL
