MODEL 1
REMARK VINA RESULT:    -8.285      0.000      0.000
REMARK INTER + INTRA:         -12.417
REMARK INTER:                 -11.192
REMARK INTRA:                  -1.225
REMARK UNBOUND:                -1.225
REMARK  Name = 
REMARK  8 active torsions:
REMARK  status: ('A' for Active; 'I' for Inactive)
REMARK    1  A    between atoms: C_1  and  C_2
REMARK    2  A    between atoms: N_4  and  C_5
REMARK    3  A    between atoms: C_7  and  C_8
REMARK    4  A    between atoms: C_8  and  C_9
REMARK    5  A    between atoms: C_9  and  N_10
REMARK    6  A    between atoms: C_14  and  C_15
REMARK    7  A    between atoms: C_21  and  C_22
REMARK    8  A    between atoms: C_28  and  C_29
REMARK                            x       y       z     vdW  Elec       q    Type
REMARK                         _______ _______ _______ _____ _____    ______ ____
ROOT
ATOM      1  C   UNL     1      46.946   7.001  12.573  0.00  0.00    +0.000 A 
ATOM      2  C   UNL     1      45.632   6.771  12.134  0.00  0.00    +0.000 A 
ATOM      3  C   UNL     1      44.823   5.752  12.671  0.00  0.00    +0.000 A 
ATOM      4  C   UNL     1      45.336   4.936  13.682  0.00  0.00    +0.000 A 
ATOM      5  C   UNL     1      46.639   5.129  14.149  0.00  0.00    +0.000 A 
ATOM      6  C   UNL     1      47.418   6.159  13.589  0.00  0.00    +0.000 A 
ENDROOT
BRANCH   1  10
ATOM      7  C   UNL     1      48.477  10.245  14.183  0.00  0.00    +0.000 C 
ATOM      8  C   UNL     1      48.510  10.260  12.657  0.00  0.00    +0.000 C 
ATOM      9  C   UNL     1      47.374   9.417  12.032  0.00  0.00    +0.000 C 
ATOM     10  N   UNL     1      47.738   7.994  12.040  0.00  0.00    +0.000 N 
ATOM     11  C   UNL     1      49.021   7.732  11.372  0.00  0.00    +0.000 C 
ATOM     12  C   UNL     1      50.145   8.553  12.032  0.00  0.00    +0.000 C 
ATOM     13  C   UNL     1      50.621   7.961  13.356  0.00  0.00    +0.000 C 
ATOM     14  O   UNL     1      49.820   9.950  12.145  0.00  0.00    +0.000 OA
ENDBRANCH   1  10
BRANCH   5  15
ATOM     15  C   UNL     1      47.233   4.256  15.224  0.00  0.00    +0.000 C 
ATOM     16  F   UNL     1      46.411   4.063  16.291  0.00  0.00    +0.000 F 
ATOM     17  F   UNL     1      47.546   3.012  14.765  0.00  0.00    +0.000 F 
ATOM     18  F   UNL     1      48.390   4.766  15.731  0.00  0.00    +0.000 F 
ENDBRANCH   5  15
BRANCH   3  19
ATOM     19  C   UNL     1      43.447   5.480  12.103  0.00  0.00    +0.000 C 
BRANCH  19  20
ATOM     20  C   UNL     1      43.542   5.064  10.631  0.00  0.00    +0.000 C 
BRANCH  20  21
ATOM     21  N   UNL     1      43.939   3.655  10.509  0.00  0.00    +0.000 N 
ATOM     22  C   UNL     1      44.796   3.430   9.409  0.00  0.00    +0.000 A 
ATOM     23  C   UNL     1      45.245   2.136   9.166  0.00  0.00    +0.000 A 
ATOM     24  C   UNL     1      46.104   1.892   8.094  0.00  0.00    +0.000 A 
ATOM     25  C   UNL     1      46.479   2.965   7.307  0.00  0.00    +0.000 A 
ATOM     26  N   UNL     1      46.049   4.220   7.553  0.00  0.00    +0.000 NA
ATOM     27  N   UNL     1      45.215   4.444   8.618  0.00  0.00    +0.000 NA
ATOM     28  H   UNL     1      43.139   3.032  10.432  0.00  0.00    +0.000 HD
BRANCH  25  29
ATOM     29  C   UNL     1      47.378   2.789   6.133  0.00  0.00    +0.000 C 
ATOM     30  N   UNL     1      48.683   2.479   6.415  0.00  0.00    +0.000 N 
ATOM     31  O   UNL     1      46.982   2.917   4.980  0.00  0.00    +0.000 OA
ATOM     32  H   UNL     1      48.997   2.370   7.373  0.00  0.00    +0.000 HD
ATOM     33  H   UNL     1      49.338   2.348   5.655  0.00  0.00    +0.000 HD
ENDBRANCH  25  29
ENDBRANCH  20  21
ENDBRANCH  19  20
ENDBRANCH   3  19
TORSDOF 6
ENDMDL
MODEL 2
REMARK VINA RESULT:    -7.898      3.136      4.014
REMARK INTER + INTRA:         -11.893
REMARK INTER:                 -10.957
REMARK INTRA:                  -0.935
REMARK UNBOUND:                -1.225
REMARK  Name = 
REMARK  8 active torsions:
REMARK  status: ('A' for Active; 'I' for Inactive)
REMARK    1  A    between atoms: C_1  and  C_2
REMARK    2  A    between atoms: N_4  and  C_5
REMARK    3  A    between atoms: C_7  and  C_8
REMARK    4  A    between atoms: C_8  and  C_9
REMARK    5  A    between atoms: C_9  and  N_10
REMARK    6  A    between atoms: C_14  and  C_15
REMARK    7  A    between atoms: C_21  and  C_22
REMARK    8  A    between atoms: C_28  and  C_29
REMARK                            x       y       z     vdW  Elec       q    Type
REMARK                         _______ _______ _______ _____ _____    ______ ____
ROOT
ATOM      1  C   UNL     1      46.626   5.844  13.713  0.00  0.00    +0.000 A 
ATOM      2  C   UNL     1      45.543   4.971  13.523  0.00  0.00    +0.000 A 
ATOM      3  C   UNL     1      44.384   5.346  12.816  0.00  0.00    +0.000 A 
ATOM      4  C   UNL     1      44.301   6.632  12.278  0.00  0.00    +0.000 A 
ATOM      5  C   UNL     1      45.356   7.534  12.444  0.00  0.00    +0.000 A 
ATOM      6  C   UNL     1      46.499   7.123  13.154  0.00  0.00    +0.000 A 
ENDROOT
BRANCH   1  10
ATOM      7  C   UNL     1      48.565   7.620  16.637  0.00  0.00    +0.000 C 
ATOM      8  C   UNL     1      49.372   6.509  15.969  0.00  0.00    +0.000 C 
ATOM      9  C   UNL     1      48.972   6.295  14.490  0.00  0.00    +0.000 C 
ATOM     10  N   UNL     1      47.756   5.476  14.411  0.00  0.00    +0.000 N 
ATOM     11  C   UNL     1      47.886   4.193  15.117  0.00  0.00    +0.000 C 
ATOM     12  C   UNL     1      48.249   4.431  16.594  0.00  0.00    +0.000 C 
ATOM     13  C   UNL     1      47.057   4.867  17.442  0.00  0.00    +0.000 C 
ATOM     14  O   UNL     1      49.381   5.304  16.756  0.00  0.00    +0.000 OA
ENDBRANCH   1  10
BRANCH   5  15
ATOM     15  C   UNL     1      45.293   8.935  11.894  0.00  0.00    +0.000 C 
ATOM     16  F   UNL     1      44.581   9.041  10.739  0.00  0.00    +0.000 F 
ATOM     17  F   UNL     1      44.718   9.809  12.767  0.00  0.00    +0.000 F 
ATOM     18  F   UNL     1      46.527   9.445  11.620  0.00  0.00    +0.000 F 
ENDBRANCH   5  15
BRANCH   3  19
ATOM     19  C   UNL     1      43.204   4.405  12.716  0.00  0.00    +0.000 C 
BRANCH  19  20
ATOM     20  C   UNL     1      43.327   3.510  11.479  0.00  0.00    +0.000 C 
BRANCH  20  21
ATOM     21  N   UNL     1      43.717   4.295  10.301  0.00  0.00    +0.000 N 
ATOM     22  C   UNL     1      44.618   3.601   9.463  0.00  0.00    +0.000 A 
ATOM     23  C   UNL     1      45.079   4.231   8.312  0.00  0.00    +0.000 A 
ATOM     24  C   UNL     1      45.959   3.559   7.462  0.00  0.00    +0.000 A 
ATOM     25  C   UNL     1      46.338   2.275   7.805  0.00  0.00    +0.000 A 
ATOM     26  N   UNL     1      45.879   1.665   8.919  0.00  0.00    +0.000 NA
ATOM     27  N   UNL     1      45.007   2.335   9.736  0.00  0.00    +0.000 NA
ATOM     28  H   UNL     1      44.128   5.191  10.550  0.00  0.00    +0.000 HD
BRANCH  25  29
ATOM     29  C   UNL     1      47.287   1.494   6.964  0.00  0.00    +0.000 C 
ATOM     30  N   UNL     1      48.436   2.144   6.594  0.00  0.00    +0.000 N 
ATOM     31  O   UNL     1      47.059   0.342   6.617  0.00  0.00    +0.000 OA
ATOM     32  H   UNL     1      48.616   3.096   6.893  0.00  0.00    +0.000 HD
ATOM     33  H   UNL     1      49.117   1.660   6.022  0.00  0.00    +0.000 HD
ENDBRANCH  25  29
ENDBRANCH  20  21
ENDBRANCH  19  20
ENDBRANCH   3  19
TORSDOF 6
ENDMDL
MODEL 3
REMARK VINA RESULT:    -7.847      3.018      3.750
REMARK INTER + INTRA:         -11.824
REMARK INTER:                 -10.716
REMARK INTRA:                  -1.108
REMARK UNBOUND:                -1.225
REMARK  Name = 
REMARK  8 active torsions:
REMARK  status: ('A' for Active; 'I' for Inactive)
REMARK    1  A    between atoms: C_1  and  C_2
REMARK    2  A    between atoms: N_4  and  C_5
REMARK    3  A    between atoms: C_7  and  C_8
REMARK    4  A    between atoms: C_8  and  C_9
REMARK    5  A    between atoms: C_9  and  N_10
REMARK    6  A    between atoms: C_14  and  C_15
REMARK    7  A    between atoms: C_21  and  C_22
REMARK    8  A    between atoms: C_28  and  C_29
REMARK                            x       y       z     vdW  Elec       q    Type
REMARK                         _______ _______ _______ _____ _____    ______ ____
ROOT
ATOM      1  C   UNL     1      46.498   7.805  12.806  0.00  0.00    +0.000 A 
ATOM      2  C   UNL     1      45.927   6.523  12.786  0.00  0.00    +0.000 A 
ATOM      3  C   UNL     1      44.683   6.259  12.180  0.00  0.00    +0.000 A 
ATOM      4  C   UNL     1      43.986   7.305  11.570  0.00  0.00    +0.000 A 
ATOM      5  C   UNL     1      44.518   8.597  11.567  0.00  0.00    +0.000 A 
ATOM      6  C   UNL     1      45.764   8.823  12.181  0.00  0.00    +0.000 A 
ENDROOT
BRANCH   1  10
ATOM      7  C   UNL     1      50.160   7.778  11.372  0.00  0.00    +0.000 C 
ATOM      8  C   UNL     1      50.113   7.764  12.898  0.00  0.00    +0.000 C 
ATOM      9  C   UNL     1      48.825   7.105  13.444  0.00  0.00    +0.000 C 
ATOM     10  N   UNL     1      47.712   8.062  13.405  0.00  0.00    +0.000 N 
ATOM     11  C   UNL     1      48.011   9.312  14.119  0.00  0.00    +0.000 C 
ATOM     12  C   UNL     1      49.275   9.970  13.536  0.00  0.00    +0.000 C 
ATOM     13  C   UNL     1      49.021  10.691  12.214  0.00  0.00    +0.000 C 
ATOM     14  O   UNL     1      50.389   9.063  13.456  0.00  0.00    +0.000 OA
ENDBRANCH   1  10
BRANCH   5  15
ATOM     15  C   UNL     1      43.786   9.753  10.937  0.00  0.00    +0.000 C 
ATOM     16  F   UNL     1      43.676  10.841  11.747  0.00  0.00    +0.000 F 
ATOM     17  F   UNL     1      44.396  10.195   9.801  0.00  0.00    +0.000 F 
ATOM     18  F   UNL     1      42.514   9.429  10.572  0.00  0.00    +0.000 F 
ENDBRANCH   5  15
BRANCH   3  19
ATOM     19  C   UNL     1      44.061   4.883  12.265  0.00  0.00    +0.000 C 
BRANCH  19  20
ATOM     20  C   UNL     1      43.503   4.455  10.903  0.00  0.00    +0.000 C 
BRANCH  20  21
ATOM     21  N   UNL     1      43.897   3.076  10.585  0.00  0.00    +0.000 N 
ATOM     22  C   UNL     1      44.761   3.005   9.470  0.00  0.00    +0.000 A 
ATOM     23  C   UNL     1      45.207   1.756   9.049  0.00  0.00    +0.000 A 
ATOM     24  C   UNL     1      46.073   1.663   7.959  0.00  0.00    +0.000 A 
ATOM     25  C   UNL     1      46.457   2.835   7.334  0.00  0.00    +0.000 A 
ATOM     26  N   UNL     1      46.029   4.045   7.753  0.00  0.00    +0.000 NA
ATOM     27  N   UNL     1      45.188   4.118   8.833  0.00  0.00    +0.000 NA
ATOM     28  H   UNL     1      43.095   2.473  10.415  0.00  0.00    +0.000 HD
BRANCH  25  29
ATOM     29  C   UNL     1      47.363   2.823   6.153  0.00  0.00    +0.000 C 
ATOM     30  N   UNL     1      48.689   2.589   6.413  0.00  0.00    +0.000 N 
ATOM     31  O   UNL     1      46.956   3.015   5.013  0.00  0.00    +0.000 OA
ATOM     32  H   UNL     1      49.012   2.426   7.361  0.00  0.00    +0.000 HD
ATOM     33  H   UNL     1      49.349   2.570   5.648  0.00  0.00    +0.000 HD
ENDBRANCH  25  29
ENDBRANCH  20  21
ENDBRANCH  19  20
ENDBRANCH   3  19
TORSDOF 6
ENDMDL
MODEL 4
REMARK VINA RESULT:    -7.233      2.935      4.262
REMARK INTER + INTRA:         -10.994
REMARK INTER:                  -9.883
REMARK INTRA:                  -1.111
REMARK UNBOUND:                -1.225
REMARK  Name = 
REMARK  8 active torsions:
REMARK  status: ('A' for Active; 'I' for Inactive)
REMARK    1  A    between atoms: C_1  and  C_2
REMARK    2  A    between atoms: N_4  and  C_5
REMARK    3  A    between atoms: C_7  and  C_8
REMARK    4  A    between atoms: C_8  and  C_9
REMARK    5  A    between atoms: C_9  and  N_10
REMARK    6  A    between atoms: C_14  and  C_15
REMARK    7  A    between atoms: C_21  and  C_22
REMARK    8  A    between atoms: C_28  and  C_29
REMARK                            x       y       z     vdW  Elec       q    Type
REMARK                         _______ _______ _______ _____ _____    ______ ____
ROOT
ATOM      1  C   UNL     1      47.443   5.116  15.081  0.00  0.00    +0.000 A 
ATOM      2  C   UNL     1      46.188   4.765  14.557  0.00  0.00    +0.000 A 
ATOM      3  C   UNL     1      45.711   5.273  13.334  0.00  0.00    +0.000 A 
ATOM      4  C   UNL     1      46.511   6.156  12.604  0.00  0.00    +0.000 A 
ATOM      5  C   UNL     1      47.766   6.532  13.088  0.00  0.00    +0.000 A 
ATOM      6  C   UNL     1      48.211   6.003  14.314  0.00  0.00    +0.000 A 
ENDROOT
BRANCH   1  10
ATOM      7  C   UNL     1      50.418   6.257  17.385  0.00  0.00    +0.000 C 
ATOM      8  C   UNL     1      49.898   4.862  17.724  0.00  0.00    +0.000 C 
ATOM      9  C   UNL     1      49.278   4.149  16.499  0.00  0.00    +0.000 C 
ATOM     10  N   UNL     1      47.905   4.623  16.282  0.00  0.00    +0.000 N 
ATOM     11  C   UNL     1      47.054   4.470  17.471  0.00  0.00    +0.000 C 
ATOM     12  C   UNL     1      47.671   5.217  18.668  0.00  0.00    +0.000 C 
ATOM     13  C   UNL     1      47.455   6.728  18.608  0.00  0.00    +0.000 C 
ATOM     14  O   UNL     1      49.051   4.873  18.888  0.00  0.00    +0.000 OA
ENDBRANCH   1  10
BRANCH   5  15
ATOM     15  C   UNL     1      48.647   7.498  12.338  0.00  0.00    +0.000 C 
ATOM     16  F   UNL     1      49.974   7.343  12.595  0.00  0.00    +0.000 F 
ATOM     17  F   UNL     1      48.512   7.379  10.987  0.00  0.00    +0.000 F 
ATOM     18  F   UNL     1      48.360   8.799  12.626  0.00  0.00    +0.000 F 
ENDBRANCH   5  15
BRANCH   3  19
ATOM     19  C   UNL     1      44.315   4.943  12.854  0.00  0.00    +0.000 C 
BRANCH  19  20
ATOM     20  C   UNL     1      44.279   4.831  11.326  0.00  0.00    +0.000 C 
BRANCH  20  21
ATOM     21  N   UNL     1      44.381   3.429  10.901  0.00  0.00    +0.000 N 
ATOM     22  C   UNL     1      45.103   3.282   9.696  0.00  0.00    +0.000 A 
ATOM     23  C   UNL     1      45.270   2.005   9.169  0.00  0.00    +0.000 A 
ATOM     24  C   UNL     1      45.992   1.835   7.986  0.00  0.00    +0.000 A 
ATOM     25  C   UNL     1      46.519   2.960   7.381  0.00  0.00    +0.000 A 
ATOM     26  N   UNL     1      46.362   4.195   7.902  0.00  0.00    +0.000 NA
ATOM     27  N   UNL     1      45.661   4.343   9.070  0.00  0.00    +0.000 NA
ATOM     28  H   UNL     1      43.470   2.990  10.791  0.00  0.00    +0.000 HD
BRANCH  25  29
ATOM     29  C   UNL     1      47.287   2.868   6.108  0.00  0.00    +0.000 C 
ATOM     30  N   UNL     1      48.620   2.576   6.230  0.00  0.00    +0.000 N 
ATOM     31  O   UNL     1      46.764   3.047   5.014  0.00  0.00    +0.000 OA
ATOM     32  H   UNL     1      49.039   2.425   7.141  0.00  0.00    +0.000 HD
ATOM     33  H   UNL     1      49.190   2.501   5.397  0.00  0.00    +0.000 HD
ENDBRANCH  25  29
ENDBRANCH  20  21
ENDBRANCH  19  20
ENDBRANCH   3  19
TORSDOF 6
ENDMDL
MODEL 5
REMARK VINA RESULT:    -7.060      4.637      8.036
REMARK INTER + INTRA:         -10.761
REMARK INTER:                  -9.458
REMARK INTRA:                  -1.304
REMARK UNBOUND:                -1.225
REMARK  Name = 
REMARK  8 active torsions:
REMARK  status: ('A' for Active; 'I' for Inactive)
REMARK    1  A    between atoms: C_1  and  C_2
REMARK    2  A    between atoms: N_4  and  C_5
REMARK    3  A    between atoms: C_7  and  C_8
REMARK    4  A    between atoms: C_8  and  C_9
REMARK    5  A    between atoms: C_9  and  N_10
REMARK    6  A    between atoms: C_14  and  C_15
REMARK    7  A    between atoms: C_21  and  C_22
REMARK    8  A    between atoms: C_28  and  C_29
REMARK                            x       y       z     vdW  Elec       q    Type
REMARK                         _______ _______ _______ _____ _____    ______ ____
ROOT
ATOM      1  C   UNL     1      44.629   7.165  11.971  0.00  0.00    +0.000 A 
ATOM      2  C   UNL     1      45.916   7.389  12.486  0.00  0.00    +0.000 A 
ATOM      3  C   UNL     1      46.560   8.638  12.395  0.00  0.00    +0.000 A 
ATOM      4  C   UNL     1      45.900   9.701  11.775  0.00  0.00    +0.000 A 
ATOM      5  C   UNL     1      44.618   9.523  11.248  0.00  0.00    +0.000 A 
ATOM      6  C   UNL     1      44.006   8.261  11.359  0.00  0.00    +0.000 A 
ENDROOT
BRANCH   1  10
ATOM      7  C   UNL     1      44.831   3.984   9.668  0.00  0.00    +0.000 C 
ATOM      8  C   UNL     1      43.638   3.960  10.622  0.00  0.00    +0.000 C 
ATOM      9  C   UNL     1      43.154   5.380  10.998  0.00  0.00    +0.000 C 
ATOM     10  N   UNL     1      44.005   5.940  12.055  0.00  0.00    +0.000 N 
ATOM     11  C   UNL     1      44.082   5.075  13.241  0.00  0.00    +0.000 C 
ATOM     12  C   UNL     1      44.601   3.678  12.850  0.00  0.00    +0.000 C 
ATOM     13  C   UNL     1      46.110   3.640  12.625  0.00  0.00    +0.000 C 
ATOM     14  O   UNL     1      43.871   3.101  11.753  0.00  0.00    +0.000 OA
ENDBRANCH   1  10
BRANCH   5  15
ATOM     15  C   UNL     1      43.884  10.641  10.555  0.00  0.00    +0.000 C 
ATOM     16  F   UNL     1      44.672  11.391   9.737  0.00  0.00    +0.000 F 
ATOM     17  F   UNL     1      42.865  10.186   9.774  0.00  0.00    +0.000 F 
ATOM     18  F   UNL     1      43.317  11.516  11.433  0.00  0.00    +0.000 F 
ENDBRANCH   5  15
BRANCH   3  19
ATOM     19  C   UNL     1      47.984   8.808  12.879  0.00  0.00    +0.000 C 
BRANCH  19  20
ATOM     20  C   UNL     1      48.601   7.452  13.236  0.00  0.00    +0.000 C 
BRANCH  20  21
ATOM     21  N   UNL     1      49.267   7.508  14.544  0.00  0.00    +0.000 N 
ATOM     22  C   UNL     1      48.873   6.453  15.396  0.00  0.00    +0.000 A 
ATOM     23  C   UNL     1      49.419   6.387  16.674  0.00  0.00    +0.000 A 
ATOM     24  C   UNL     1      49.055   5.345  17.529  0.00  0.00    +0.000 A 
ATOM     25  C   UNL     1      48.153   4.408  17.060  0.00  0.00    +0.000 A 
ATOM     26  N   UNL     1      47.634   4.471  15.815  0.00  0.00    +0.000 NA
ATOM     27  N   UNL     1      48.012   5.495  14.986  0.00  0.00    +0.000 NA
ATOM     28  H   UNL     1      49.108   8.391  15.023  0.00  0.00    +0.000 HD
BRANCH  25  29
ATOM     29  C   UNL     1      47.697   3.275  17.913  0.00  0.00    +0.000 C 
ATOM     30  N   UNL     1      48.327   3.143  19.123  0.00  0.00    +0.000 N 
ATOM     31  O   UNL     1      46.816   2.502  17.558  0.00  0.00    +0.000 OA
ATOM     32  H   UNL     1      49.052   3.793  19.407  0.00  0.00    +0.000 HD
ATOM     33  H   UNL     1      48.057   2.391  19.744  0.00  0.00    +0.000 HD
ENDBRANCH  25  29
ENDBRANCH  20  21
ENDBRANCH  19  20
ENDBRANCH   3  19
TORSDOF 6
ENDMDL
MODEL 6
REMARK VINA RESULT:    -6.785      1.325      2.082
REMARK INTER + INTRA:         -10.390
REMARK INTER:                  -9.276
REMARK INTRA:                  -1.114
REMARK UNBOUND:                -1.225
REMARK  Name = 
REMARK  8 active torsions:
REMARK  status: ('A' for Active; 'I' for Inactive)
REMARK    1  A    between atoms: C_1  and  C_2
REMARK    2  A    between atoms: N_4  and  C_5
REMARK    3  A    between atoms: C_7  and  C_8
REMARK    4  A    between atoms: C_8  and  C_9
REMARK    5  A    between atoms: C_9  and  N_10
REMARK    6  A    between atoms: C_14  and  C_15
REMARK    7  A    between atoms: C_21  and  C_22
REMARK    8  A    between atoms: C_28  and  C_29
REMARK                            x       y       z     vdW  Elec       q    Type
REMARK                         _______ _______ _______ _____ _____    ______ ____
ROOT
ATOM      1  C   UNL     1      47.772   6.977  13.936  0.00  0.00    +0.000 A 
ATOM      2  C   UNL     1      46.564   6.947  13.222  0.00  0.00    +0.000 A 
ATOM      3  C   UNL     1      45.646   5.885  13.334  0.00  0.00    +0.000 A 
ATOM      4  C   UNL     1      45.938   4.819  14.189  0.00  0.00    +0.000 A 
ATOM      5  C   UNL     1      47.130   4.808  14.918  0.00  0.00    +0.000 A 
ATOM      6  C   UNL     1      48.022   5.887  14.782  0.00  0.00    +0.000 A 
ENDROOT
BRANCH   1  10
ATOM      7  C   UNL     1      50.308   7.905  11.077  0.00  0.00    +0.000 C 
ATOM      8  C   UNL     1      50.593   8.630  12.391  0.00  0.00    +0.000 C 
ATOM      9  C   UNL     1      50.115   7.828  13.624  0.00  0.00    +0.000 C 
ATOM     10  N   UNL     1      48.672   8.014  13.819  0.00  0.00    +0.000 N 
ATOM     11  C   UNL     1      48.290   9.430  13.927  0.00  0.00    +0.000 C 
ATOM     12  C   UNL     1      48.742  10.201  12.673  0.00  0.00    +0.000 C 
ATOM     13  C   UNL     1      47.838   9.966  11.465  0.00  0.00    +0.000 C 
ATOM     14  O   UNL     1      50.131   9.994  12.363  0.00  0.00    +0.000 OA
ENDBRANCH   1  10
BRANCH   5  15
ATOM     15  C   UNL     1      47.487   3.666  15.834  0.00  0.00    +0.000 C 
ATOM     16  F   UNL     1      46.527   3.381  16.756  0.00  0.00    +0.000 F 
ATOM     17  F   UNL     1      47.707   2.506  15.154  0.00  0.00    +0.000 F 
ATOM     18  F   UNL     1      48.627   3.902  16.543  0.00  0.00    +0.000 F 
ENDBRANCH   5  15
BRANCH   3  19
ATOM     19  C   UNL     1      44.401   5.848  12.475  0.00  0.00    +0.000 C 
BRANCH  19  20
ATOM     20  C   UNL     1      44.519   4.764  11.397  0.00  0.00    +0.000 C 
BRANCH  20  21
ATOM     21  N   UNL     1      44.982   5.338  10.126  0.00  0.00    +0.000 N 
ATOM     22  C   UNL     1      45.563   4.370   9.278  0.00  0.00    +0.000 A 
ATOM     23  C   UNL     1      46.056   4.775   8.041  0.00  0.00    +0.000 A 
ATOM     24  C   UNL     1      46.622   3.834   7.180  0.00  0.00    +0.000 A 
ATOM     25  C   UNL     1      46.668   2.518   7.600  0.00  0.00    +0.000 A 
ATOM     26  N   UNL     1      46.180   2.128   8.797  0.00  0.00    +0.000 NA
ATOM     27  N   UNL     1      45.617   3.064   9.625  0.00  0.00    +0.000 NA
ATOM     28  H   UNL     1      45.648   6.095  10.262  0.00  0.00    +0.000 HD
BRANCH  25  29
ATOM     29  C   UNL     1      47.272   1.453   6.751  0.00  0.00    +0.000 C 
ATOM     30  N   UNL     1      48.261   1.858   5.893  0.00  0.00    +0.000 N 
ATOM     31  O   UNL     1      46.907   0.285   6.808  0.00  0.00    +0.000 OA
ATOM     32  H   UNL     1      48.558   2.827   5.860  0.00  0.00    +0.000 HD
ATOM     33  H   UNL     1      48.707   1.176   5.293  0.00  0.00    +0.000 HD
ENDBRANCH  25  29
ENDBRANCH  20  21
ENDBRANCH  19  20
ENDBRANCH   3  19
TORSDOF 6
ENDMDL
MODEL 7
REMARK VINA RESULT:    -6.633      4.673      7.092
REMARK INTER + INTRA:         -10.184
REMARK INTER:                  -9.531
REMARK INTRA:                  -0.654
REMARK UNBOUND:                -1.225
REMARK  Name = 
REMARK  8 active torsions:
REMARK  status: ('A' for Active; 'I' for Inactive)
REMARK    1  A    between atoms: C_1  and  C_2
REMARK    2  A    between atoms: N_4  and  C_5
REMARK    3  A    between atoms: C_7  and  C_8
REMARK    4  A    between atoms: C_8  and  C_9
REMARK    5  A    between atoms: C_9  and  N_10
REMARK    6  A    between atoms: C_14  and  C_15
REMARK    7  A    between atoms: C_21  and  C_22
REMARK    8  A    between atoms: C_28  and  C_29
REMARK                            x       y       z     vdW  Elec       q    Type
REMARK                         _______ _______ _______ _____ _____    ______ ____
ROOT
ATOM      1  C   UNL     1      46.942   6.985  13.299  0.00  0.00    +0.000 A 
ATOM      2  C   UNL     1      47.476   5.875  13.972  0.00  0.00    +0.000 A 
ATOM      3  C   UNL     1      46.788   4.650  14.076  0.00  0.00    +0.000 A 
ATOM      4  C   UNL     1      45.528   4.525  13.487  0.00  0.00    +0.000 A 
ATOM      5  C   UNL     1      44.958   5.605  12.807  0.00  0.00    +0.000 A 
ATOM      6  C   UNL     1      45.676   6.813  12.723  0.00  0.00    +0.000 A 
ENDROOT
BRANCH   1  10
ATOM      7  C   UNL     1      50.483   8.086  14.609  0.00  0.00    +0.000 C 
ATOM      8  C   UNL     1      49.597   9.264  14.212  0.00  0.00    +0.000 C 
ATOM      9  C   UNL     1      48.090   8.949  14.365  0.00  0.00    +0.000 C 
ATOM     10  N   UNL     1      47.614   8.184  13.206  0.00  0.00    +0.000 N 
ATOM     11  C   UNL     1      47.888   8.857  11.928  0.00  0.00    +0.000 C 
ATOM     12  C   UNL     1      49.397   9.129  11.780  0.00  0.00    +0.000 C 
ATOM     13  C   UNL     1      50.194   7.887  11.388  0.00  0.00    +0.000 C 
ATOM     14  O   UNL     1      49.957   9.798  12.924  0.00  0.00    +0.000 OA
ENDBRANCH   1  10
BRANCH   5  15
ATOM     15  C   UNL     1      43.593   5.513  12.177  0.00  0.00    +0.000 C 
ATOM     16  F   UNL     1      42.570   5.557  13.073  0.00  0.00    +0.000 F 
ATOM     17  F   UNL     1      43.360   6.525  11.295  0.00  0.00    +0.000 F 
ATOM     18  F   UNL     1      43.421   4.360  11.470  0.00  0.00    +0.000 F 
ENDBRANCH   5  15
BRANCH   3  19
ATOM     19  C   UNL     1      47.360   3.511  14.891  0.00  0.00    +0.000 C 
BRANCH  19  20
ATOM     20  C   UNL     1      47.191   3.779  16.390  0.00  0.00    +0.000 C 
BRANCH  20  21
ATOM     21  N   UNL     1      48.357   4.491  16.930  0.00  0.00    +0.000 N 
ATOM     22  C   UNL     1      49.467   3.640  17.126  0.00  0.00    +0.000 A 
ATOM     23  C   UNL     1      50.640   4.179  17.643  0.00  0.00    +0.000 A 
ATOM     24  C   UNL     1      51.753   3.359  17.833  0.00  0.00    +0.000 A 
ATOM     25  C   UNL     1      51.640   2.024  17.492  0.00  0.00    +0.000 A 
ATOM     26  N   UNL     1      50.502   1.508  16.981  0.00  0.00    +0.000 NA
ATOM     27  N   UNL     1      49.422   2.330  16.791  0.00  0.00    +0.000 NA
ATOM     28  H   UNL     1      48.151   4.966  17.805  0.00  0.00    +0.000 HD
BRANCH  25  29
ATOM     29  C   UNL     1      52.774   1.077  17.679  0.00  0.00    +0.000 C 
ATOM     30  N   UNL     1      52.460  -0.131  18.246  0.00  0.00    +0.000 N 
ATOM     31  O   UNL     1      53.921   1.356  17.353  0.00  0.00    +0.000 OA
ATOM     32  H   UNL     1      51.505  -0.352  18.506  0.00  0.00    +0.000 HD
ATOM     33  H   UNL     1      53.191  -0.814  18.396  0.00  0.00    +0.000 HD
ENDBRANCH  25  29
ENDBRANCH  20  21
ENDBRANCH  19  20
ENDBRANCH   3  19
TORSDOF 6
ENDMDL
MODEL 8
REMARK VINA RESULT:    -6.472      3.944      5.903
REMARK INTER + INTRA:          -9.967
REMARK INTER:                  -8.962
REMARK INTRA:                  -1.005
REMARK UNBOUND:                -1.225
REMARK  Name = 
REMARK  8 active torsions:
REMARK  status: ('A' for Active; 'I' for Inactive)
REMARK    1  A    between atoms: C_1  and  C_2
REMARK    2  A    between atoms: N_4  and  C_5
REMARK    3  A    between atoms: C_7  and  C_8
REMARK    4  A    between atoms: C_8  and  C_9
REMARK    5  A    between atoms: C_9  and  N_10
REMARK    6  A    between atoms: C_14  and  C_15
REMARK    7  A    between atoms: C_21  and  C_22
REMARK    8  A    between atoms: C_28  and  C_29
REMARK                            x       y       z     vdW  Elec       q    Type
REMARK                         _______ _______ _______ _____ _____    ______ ____
ROOT
ATOM      1  C   UNL     1      51.443   5.928  17.091  0.00  0.00    +0.000 A 
ATOM      2  C   UNL     1      50.051   5.749  17.124  0.00  0.00    +0.000 A 
ATOM      3  C   UNL     1      49.455   4.516  17.451  0.00  0.00    +0.000 A 
ATOM      4  C   UNL     1      50.271   3.425  17.759  0.00  0.00    +0.000 A 
ATOM      5  C   UNL     1      51.661   3.558  17.738  0.00  0.00    +0.000 A 
ATOM      6  C   UNL     1      52.222   4.806  17.408  0.00  0.00    +0.000 A 
ENDROOT
BRANCH   1  10
ATOM      7  C   UNL     1      50.908   8.319  14.015  0.00  0.00    +0.000 C 
ATOM      8  C   UNL     1      52.180   8.627  14.801  0.00  0.00    +0.000 C 
ATOM      9  C   UNL     1      52.753   7.379  15.513  0.00  0.00    +0.000 C 
ATOM     10  N   UNL     1      52.024   7.134  16.764  0.00  0.00    +0.000 N 
ATOM     11  C   UNL     1      52.020   8.300  17.659  0.00  0.00    +0.000 C 
ATOM     12  C   UNL     1      51.414   9.521  16.942  0.00  0.00    +0.000 C 
ATOM     13  C   UNL     1      49.890   9.474  16.865  0.00  0.00    +0.000 C 
ATOM     14  O   UNL     1      52.017   9.770  15.660  0.00  0.00    +0.000 OA
ENDBRANCH   1  10
BRANCH   5  15
ATOM     15  C   UNL     1      52.572   2.398  18.045  0.00  0.00    +0.000 C 
ATOM     16  F   UNL     1      53.603   2.262  17.167  0.00  0.00    +0.000 F 
ATOM     17  F   UNL     1      53.144   2.502  19.278  0.00  0.00    +0.000 F 
ATOM     18  F   UNL     1      51.917   1.203  18.040  0.00  0.00    +0.000 F 
ENDBRANCH   5  15
BRANCH   3  19
ATOM     19  C   UNL     1      47.953   4.344  17.382  0.00  0.00    +0.000 C 
BRANCH  19  20
ATOM     20  C   UNL     1      47.519   3.935  15.970  0.00  0.00    +0.000 C 
BRANCH  20  21
ATOM     21  N   UNL     1      47.201   5.117  15.158  0.00  0.00    +0.000 N 
ATOM     22  C   UNL     1      46.532   4.784  13.959  0.00  0.00    +0.000 A 
ATOM     23  C   UNL     1      46.178   5.807  13.086  0.00  0.00    +0.000 A 
ATOM     24  C   UNL     1      45.504   5.503  11.902  0.00  0.00    +0.000 A 
ATOM     25  C   UNL     1      45.210   4.177  11.646  0.00  0.00    +0.000 A 
ATOM     26  N   UNL     1      45.548   3.189  12.502  0.00  0.00    +0.000 NA
ATOM     27  N   UNL     1      46.199   3.507  13.665  0.00  0.00    +0.000 NA
ATOM     28  H   UNL     1      48.028   5.664  14.929  0.00  0.00    +0.000 HD
BRANCH  25  29
ATOM     29  C   UNL     1      44.510   3.763  10.399  0.00  0.00    +0.000 C 
ATOM     30  N   UNL     1      43.760   4.731   9.781  0.00  0.00    +0.000 N 
ATOM     31  O   UNL     1      44.591   2.627   9.948  0.00  0.00    +0.000 OA
ATOM     32  H   UNL     1      43.706   5.670  10.162  0.00  0.00    +0.000 HD
ATOM     33  H   UNL     1      43.263   4.506   8.930  0.00  0.00    +0.000 HD
ENDBRANCH  25  29
ENDBRANCH  20  21
ENDBRANCH  19  20
ENDBRANCH   3  19
TORSDOF 6
ENDMDL
MODEL 9
REMARK VINA RESULT:    -6.459      4.554      6.343
REMARK INTER + INTRA:          -9.949
REMARK INTER:                  -8.945
REMARK INTRA:                  -1.004
REMARK UNBOUND:                -1.225
REMARK  Name = 
REMARK  8 active torsions:
REMARK  status: ('A' for Active; 'I' for Inactive)
REMARK    1  A    between atoms: C_1  and  C_2
REMARK    2  A    between atoms: N_4  and  C_5
REMARK    3  A    between atoms: C_7  and  C_8
REMARK    4  A    between atoms: C_8  and  C_9
REMARK    5  A    between atoms: C_9  and  N_10
REMARK    6  A    between atoms: C_14  and  C_15
REMARK    7  A    between atoms: C_21  and  C_22
REMARK    8  A    between atoms: C_28  and  C_29
REMARK                            x       y       z     vdW  Elec       q    Type
REMARK                         _______ _______ _______ _____ _____    ______ ____
ROOT
ATOM      1  C   UNL     1      49.897   6.623  18.828  0.00  0.00    +0.000 A 
ATOM      2  C   UNL     1      48.665   6.101  18.401  0.00  0.00    +0.000 A 
ATOM      3  C   UNL     1      48.532   4.792  17.900  0.00  0.00    +0.000 A 
ATOM      4  C   UNL     1      49.661   3.973  17.824  0.00  0.00    +0.000 A 
ATOM      5  C   UNL     1      50.907   4.452  18.237  0.00  0.00    +0.000 A 
ATOM      6  C   UNL     1      51.002   5.765  18.734  0.00  0.00    +0.000 A 
ENDROOT
BRANCH   1  10
ATOM      7  C   UNL     1      48.501  10.051  17.500  0.00  0.00    +0.000 C 
ATOM      8  C   UNL     1      49.614  10.216  18.532  0.00  0.00    +0.000 C 
ATOM      9  C   UNL     1      50.594   9.019  18.541  0.00  0.00    +0.000 C 
ATOM     10  N   UNL     1      50.026   7.907  19.312  0.00  0.00    +0.000 N 
ATOM     11  C   UNL     1      49.650   8.295  20.679  0.00  0.00    +0.000 C 
ATOM     12  C   UNL     1      48.647   9.462  20.647  0.00  0.00    +0.000 C 
ATOM     13  C   UNL     1      47.227   9.023  20.296  0.00  0.00    +0.000 C 
ATOM     14  O   UNL     1      49.096  10.559  19.830  0.00  0.00    +0.000 OA
ENDBRANCH   1  10
BRANCH   5  15
ATOM     15  C   UNL     1      52.150   3.604  18.151  0.00  0.00    +0.000 C 
ATOM     16  F   UNL     1      51.947   2.390  17.571  0.00  0.00    +0.000 F 
ATOM     17  F   UNL     1      53.136   4.204  17.426  0.00  0.00    +0.000 F 
ATOM     18  F   UNL     1      52.693   3.348  19.375  0.00  0.00    +0.000 F 
ENDBRANCH   5  15
BRANCH   3  19
ATOM     19  C   UNL     1      47.205   4.303  17.363  0.00  0.00    +0.000 C 
BRANCH  19  20
ATOM     20  C   UNL     1      47.317   3.952  15.876  0.00  0.00    +0.000 C 
BRANCH  20  21
ATOM     21  N   UNL     1      47.050   5.128  15.038  0.00  0.00    +0.000 N 
ATOM     22  C   UNL     1      46.360   4.800  13.850  0.00  0.00    +0.000 A 
ATOM     23  C   UNL     1      46.049   5.818  12.955  0.00  0.00    +0.000 A 
ATOM     24  C   UNL     1      45.355   5.519  11.782  0.00  0.00    +0.000 A 
ATOM     25  C   UNL     1      45.000   4.202  11.557  0.00  0.00    +0.000 A 
ATOM     26  N   UNL     1      45.296   3.219  12.434  0.00  0.00    +0.000 NA
ATOM     27  N   UNL     1      45.968   3.533  13.587  0.00  0.00    +0.000 NA
ATOM     28  H   UNL     1      47.900   5.631  14.793  0.00  0.00    +0.000 HD
BRANCH  25  29
ATOM     29  C   UNL     1      44.275   3.794  10.322  0.00  0.00    +0.000 C 
ATOM     30  N   UNL     1      44.111   4.768   9.371  0.00  0.00    +0.000 N 
ATOM     31  O   UNL     1      43.843   2.658  10.161  0.00  0.00    +0.000 OA
ATOM     32  H   UNL     1      44.478   5.702   9.514  0.00  0.00    +0.000 HD
ATOM     33  H   UNL     1      43.626   4.545   8.512  0.00  0.00    +0.000 HD
ENDBRANCH  25  29
ENDBRANCH  20  21
ENDBRANCH  19  20
ENDBRANCH   3  19
TORSDOF 6
ENDMDL
