MODEL 1
REMARK VINA RESULT:    -6.516      0.000      0.000
REMARK INTER + INTRA:          -9.450
REMARK INTER:                  -8.421
REMARK INTRA:                  -1.030
REMARK UNBOUND:                -1.030
REMARK  Name = 
REMARK  5 active torsions:
REMARK  status: ('A' for Active; 'I' for Inactive)
REMARK    1  A    between atoms: C_2  and  C_3
REMARK    2  A    between atoms: C_6  and  C_7
REMARK    3  A    between atoms: C_10  and  C_11
REMARK    4  A    between atoms: C_11  and  N_12
REMARK    5  A    between atoms: C_15  and  C_16
REMARK                            x       y       z     vdW  Elec       q    Type
REMARK                         _______ _______ _______ _____ _____    ______ ____
ROOT
ATOM      1  C   UNL     1      49.743   6.570  18.180  0.00  0.00    +0.000 C 
ATOM      2  C   UNL     1      49.009   6.507  19.503  0.00  0.00    +0.000 C 
ATOM      3  C   UNL     1      49.386   7.843  18.961  0.00  0.00    +0.000 C 
ENDROOT
BRANCH   1   4
ATOM      4  N   UNL     1      51.183   6.322  18.065  0.00  0.00    +0.000 N 
ATOM      5  C   UNL     1      51.840   5.096  18.063  0.00  0.00    +0.000 A 
ATOM      6  C   UNL     1      51.251   3.889  17.741  0.00  0.00    +0.000 A 
ATOM      7  C   UNL     1      52.014   2.715  17.732  0.00  0.00    +0.000 A 
ATOM      8  C   UNL     1      53.363   2.785  18.059  0.00  0.00    +0.000 A 
ATOM      9  C   UNL     1      53.877   4.029  18.367  0.00  0.00    +0.000 A 
ATOM     10  N   UNL     1      53.151   5.166  18.371  0.00  0.00    +0.000 NA
ATOM     11  H   UNL     1      51.834   7.026  18.395  0.00  0.00    +0.000 HD
BRANCH   7  12
ATOM     12  C   UNL     1      51.324   1.447  17.362  0.00  0.00    +0.000 C 
ATOM     13  N   UNL     1      51.628   0.309  18.052  0.00  0.00    +0.000 N 
ATOM     14  O   UNL     1      50.493   1.411  16.461  0.00  0.00    +0.000 OA
ATOM     15  H   UNL     1      52.280   0.240  18.816  0.00  0.00    +0.000 HD
ATOM     16  H   UNL     1      51.135  -0.533  17.777  0.00  0.00    +0.000 HD
ENDBRANCH   7  12
ENDBRANCH   1   4
BRANCH   1  20
ATOM     17  C   UNL     1      47.513   5.745  14.495  0.00  0.00    +0.000 A 
ATOM     18  C   UNL     1      48.329   6.877  14.600  0.00  0.00    +0.000 A 
ATOM     19  C   UNL     1      49.055   7.135  15.767  0.00  0.00    +0.000 A 
ATOM     20  C   UNL     1      48.942   6.325  16.907  0.00  0.00    +0.000 A 
ATOM     21  C   UNL     1      48.084   5.224  16.812  0.00  0.00    +0.000 A 
ATOM     22  C   UNL     1      47.420   4.918  15.625  0.00  0.00    +0.000 A 
BRANCH  17  26
ATOM     23  C   UNL     1      45.396   4.751  10.891  0.00  0.00    +0.000 A 
ATOM     24  C   UNL     1      46.086   5.957  10.976  0.00  0.00    +0.000 A 
ATOM     25  C   UNL     1      46.777   6.284  12.144  0.00  0.00    +0.000 A 
ATOM     26  C   UNL     1      46.778   5.421  13.256  0.00  0.00    +0.000 A 
ATOM     27  C   UNL     1      46.058   4.218  13.144  0.00  0.00    +0.000 A 
ATOM     28  C   UNL     1      45.383   3.875  11.975  0.00  0.00    +0.000 A 
BRANCH  23  30
ATOM     29  N   UNL     1      44.135   4.141   8.718  0.00  0.00    +0.000 NA
ATOM     30  C   UNL     1      44.698   4.408   9.694  0.00  0.00    +0.000 C 
ENDBRANCH  23  30
ENDBRANCH  17  26
ENDBRANCH   1  20
TORSDOF 5
ENDMDL
MODEL 2
REMARK VINA RESULT:    -6.417      5.012      9.107
REMARK INTER + INTRA:          -9.323
REMARK INTER:                  -8.214
REMARK INTRA:                  -1.109
REMARK UNBOUND:                -1.030
REMARK  Name = 
REMARK  5 active torsions:
REMARK  status: ('A' for Active; 'I' for Inactive)
REMARK    1  A    between atoms: C_2  and  C_3
REMARK    2  A    between atoms: C_6  and  C_7
REMARK    3  A    between atoms: C_10  and  C_11
REMARK    4  A    between atoms: C_11  and  N_12
REMARK    5  A    between atoms: C_15  and  C_16
REMARK                            x       y       z     vdW  Elec       q    Type
REMARK                         _______ _______ _______ _____ _____    ______ ____
ROOT
ATOM      1  C   UNL     1      43.882   5.009  11.900  0.00  0.00    +0.000 C 
ATOM      2  C   UNL     1      42.696   5.887  11.561  0.00  0.00    +0.000 C 
ATOM      3  C   UNL     1      42.763   5.271  12.917  0.00  0.00    +0.000 C 
ENDROOT
BRANCH   1   4
ATOM      4  N   UNL     1      43.980   3.613  11.464  0.00  0.00    +0.000 N 
ATOM      5  C   UNL     1      44.448   3.130  10.247  0.00  0.00    +0.000 A 
ATOM      6  C   UNL     1      45.293   3.820   9.399  0.00  0.00    +0.000 A 
ATOM      7  C   UNL     1      45.737   3.225   8.212  0.00  0.00    +0.000 A 
ATOM      8  C   UNL     1      45.308   1.940   7.901  0.00  0.00    +0.000 A 
ATOM      9  C   UNL     1      44.467   1.317   8.800  0.00  0.00    +0.000 A 
ATOM     10  N   UNL     1      44.039   1.879   9.950  0.00  0.00    +0.000 NA
ATOM     11  H   UNL     1      43.336   2.929  11.846  0.00  0.00    +0.000 HD
BRANCH   7  12
ATOM     12  C   UNL     1      46.658   4.016   7.348  0.00  0.00    +0.000 C 
ATOM     13  N   UNL     1      46.996   3.518   6.122  0.00  0.00    +0.000 N 
ATOM     14  O   UNL     1      47.109   5.095   7.714  0.00  0.00    +0.000 OA
ATOM     15  H   UNL     1      46.666   2.653   5.726  0.00  0.00    +0.000 HD
ATOM     16  H   UNL     1      47.619   4.085   5.559  0.00  0.00    +0.000 HD
ENDBRANCH   7  12
ENDBRANCH   1   4
BRANCH   1  20
ATOM     17  C   UNL     1      47.757   6.943  12.593  0.00  0.00    +0.000 A 
ATOM     18  C   UNL     1      47.398   5.787  13.295  0.00  0.00    +0.000 A 
ATOM     19  C   UNL     1      46.170   5.158  13.066  0.00  0.00    +0.000 A 
ATOM     20  C   UNL     1      45.215   5.691  12.187  0.00  0.00    +0.000 A 
ATOM     21  C   UNL     1      45.561   6.875  11.527  0.00  0.00    +0.000 A 
ATOM     22  C   UNL     1      46.814   7.462  11.692  0.00  0.00    +0.000 A 
BRANCH  17  26
ATOM     23  C   UNL     1      51.591   8.820  13.082  0.00  0.00    +0.000 A 
ATOM     24  C   UNL     1      50.990   8.186  14.166  0.00  0.00    +0.000 A 
ATOM     25  C   UNL     1      49.745   7.572  14.011  0.00  0.00    +0.000 A 
ATOM     26  C   UNL     1      49.069   7.596  12.778  0.00  0.00    +0.000 A 
ATOM     27  C   UNL     1      49.695   8.260  11.707  0.00  0.00    +0.000 A 
ATOM     28  C   UNL     1      50.946   8.856  11.847  0.00  0.00    +0.000 A 
BRANCH  23  30
ATOM     29  N   UNL     1      53.905   9.942  13.346  0.00  0.00    +0.000 NA
ATOM     30  C   UNL     1      52.869   9.438  13.234  0.00  0.00    +0.000 C 
ENDBRANCH  23  30
ENDBRANCH  17  26
ENDBRANCH   1  20
TORSDOF 5
ENDMDL
MODEL 3
REMARK VINA RESULT:    -5.698      5.489      6.914
REMARK INTER + INTRA:          -8.394
REMARK INTER:                  -7.314
REMARK INTRA:                  -1.080
REMARK UNBOUND:                -1.030
REMARK  Name = 
REMARK  5 active torsions:
REMARK  status: ('A' for Active; 'I' for Inactive)
REMARK    1  A    between atoms: C_2  and  C_3
REMARK    2  A    between atoms: C_6  and  C_7
REMARK    3  A    between atoms: C_10  and  C_11
REMARK    4  A    between atoms: C_11  and  N_12
REMARK    5  A    between atoms: C_15  and  C_16
REMARK                            x       y       z     vdW  Elec       q    Type
REMARK                         _______ _______ _______ _____ _____    ______ ____
ROOT
ATOM      1  C   UNL     1      50.983  10.213  12.503  0.00  0.00    +0.000 C 
ATOM      2  C   UNL     1      51.837  10.224  13.753  0.00  0.00    +0.000 C 
ATOM      3  C   UNL     1      50.831  11.308  13.568  0.00  0.00    +0.000 C 
ENDROOT
BRANCH   1   4
ATOM      4  N   UNL     1      51.472  10.699  11.209  0.00  0.00    +0.000 N 
ATOM      5  C   UNL     1      52.252  10.019  10.281  0.00  0.00    +0.000 A 
ATOM      6  C   UNL     1      52.355   8.644  10.198  0.00  0.00    +0.000 A 
ATOM      7  C   UNL     1      53.140   8.057   9.198  0.00  0.00    +0.000 A 
ATOM      8  C   UNL     1      53.815   8.878   8.303  0.00  0.00    +0.000 A 
ATOM      9  C   UNL     1      53.660  10.241   8.451  0.00  0.00    +0.000 A 
ATOM     10  N   UNL     1      52.900  10.816   9.407  0.00  0.00    +0.000 NA
ATOM     11  H   UNL     1      51.628  11.694  11.082  0.00  0.00    +0.000 HD
BRANCH   7  12
ATOM     12  C   UNL     1      53.198   6.569   9.152  0.00  0.00    +0.000 C 
ATOM     13  N   UNL     1      53.210   5.876  10.330  0.00  0.00    +0.000 N 
ATOM     14  O   UNL     1      53.230   5.962   8.088  0.00  0.00    +0.000 OA
ATOM     15  H   UNL     1      53.170   6.281  11.251  0.00  0.00    +0.000 HD
ATOM     16  H   UNL     1      53.245   4.867  10.261  0.00  0.00    +0.000 HD
ENDBRANCH   7  12
ENDBRANCH   1   4
BRANCH   1  20
ATOM     17  C   UNL     1      47.792   7.221  12.184  0.00  0.00    +0.000 A 
ATOM     18  C   UNL     1      47.590   8.533  11.744  0.00  0.00    +0.000 A 
ATOM     19  C   UNL     1      48.609   9.487  11.828  0.00  0.00    +0.000 A 
ATOM     20  C   UNL     1      49.847   9.199  12.424  0.00  0.00    +0.000 A 
ATOM     21  C   UNL     1      50.024   7.899  12.908  0.00  0.00    +0.000 A 
ATOM     22  C   UNL     1      49.040   6.924  12.755  0.00  0.00    +0.000 A 
BRANCH  17  26
ATOM     23  C   UNL     1      44.797   4.161  11.833  0.00  0.00    +0.000 A 
ATOM     24  C   UNL     1      44.957   5.091  10.809  0.00  0.00    +0.000 A 
ATOM     25  C   UNL     1      45.931   6.085  10.918  0.00  0.00    +0.000 A 
ATOM     26  C   UNL     1      46.750   6.182  12.057  0.00  0.00    +0.000 A 
ATOM     27  C   UNL     1      46.552   5.238  13.082  0.00  0.00    +0.000 A 
ATOM     28  C   UNL     1      45.597   4.230  12.971  0.00  0.00    +0.000 A 
BRANCH  23  30
ATOM     29  N   UNL     1      43.002   2.311  11.631  0.00  0.00    +0.000 NA
ATOM     30  C   UNL     1      43.810   3.135  11.720  0.00  0.00    +0.000 C 
ENDBRANCH  23  30
ENDBRANCH  17  26
ENDBRANCH   1  20
TORSDOF 5
ENDMDL
MODEL 4
REMARK VINA RESULT:    -4.967      3.592      5.565
REMARK INTER + INTRA:          -7.449
REMARK INTER:                  -7.368
REMARK INTRA:                  -0.081
REMARK UNBOUND:                -1.030
REMARK  Name = 
REMARK  5 active torsions:
REMARK  status: ('A' for Active; 'I' for Inactive)
REMARK    1  A    between atoms: C_2  and  C_3
REMARK    2  A    between atoms: C_6  and  C_7
REMARK    3  A    between atoms: C_10  and  C_11
REMARK    4  A    between atoms: C_11  and  N_12
REMARK    5  A    between atoms: C_15  and  C_16
REMARK                            x       y       z     vdW  Elec       q    Type
REMARK                         _______ _______ _______ _____ _____    ______ ____
ROOT
ATOM      1  C   UNL     1      50.329  10.613  12.355  0.00  0.00    +0.000 C 
ATOM      2  C   UNL     1      50.600  11.514  11.168  0.00  0.00    +0.000 C 
ATOM      3  C   UNL     1      51.639  10.520  11.561  0.00  0.00    +0.000 C 
ENDROOT
BRANCH   1   4
ATOM      4  N   UNL     1      50.498  11.061  13.740  0.00  0.00    +0.000 N 
ATOM      5  C   UNL     1      50.063  10.430  14.900  0.00  0.00    +0.000 A 
ATOM      6  C   UNL     1      49.775   9.083  15.002  0.00  0.00    +0.000 A 
ATOM      7  C   UNL     1      49.380   8.540  16.231  0.00  0.00    +0.000 A 
ATOM      8  C   UNL     1      49.275   9.377  17.335  0.00  0.00    +0.000 A 
ATOM      9  C   UNL     1      49.581  10.710  17.152  0.00  0.00    +0.000 A 
ATOM     10  N   UNL     1      49.970  11.241  15.974  0.00  0.00    +0.000 NA
ATOM     11  H   UNL     1      50.575  12.054  13.933  0.00  0.00    +0.000 HD
BRANCH   7  12
ATOM     12  C   UNL     1      49.098   7.077  16.278  0.00  0.00    +0.000 C 
ATOM     13  N   UNL     1      48.227   6.607  17.220  0.00  0.00    +0.000 N 
ATOM     14  O   UNL     1      49.625   6.298  15.492  0.00  0.00    +0.000 OA
ATOM     15  H   UNL     1      47.733   7.166  17.895  0.00  0.00    +0.000 HD
ATOM     16  H   UNL     1      48.055   5.609  17.219  0.00  0.00    +0.000 HD
ENDBRANCH   7  12
ENDBRANCH   1   4
BRANCH   1  20
ATOM     17  C   UNL     1      47.475   7.309  11.940  0.00  0.00    +0.000 A 
ATOM     18  C   UNL     1      48.853   7.076  11.885  0.00  0.00    +0.000 A 
ATOM     19  C   UNL     1      49.767   8.123  12.033  0.00  0.00    +0.000 A 
ATOM     20  C   UNL     1      49.353   9.457  12.164  0.00  0.00    +0.000 A 
ATOM     21  C   UNL     1      47.973   9.689  12.167  0.00  0.00    +0.000 A 
ATOM     22  C   UNL     1      47.059   8.640  12.100  0.00  0.00    +0.000 A 
BRANCH  17  26
ATOM     23  C   UNL     1      44.646   4.086  11.676  0.00  0.00    +0.000 A 
ATOM     24  C   UNL     1      44.865   4.904  10.571  0.00  0.00    +0.000 A 
ATOM     25  C   UNL     1      45.786   5.951  10.651  0.00  0.00    +0.000 A 
ATOM     26  C   UNL     1      46.490   6.213  11.840  0.00  0.00    +0.000 A 
ATOM     27  C   UNL     1      46.233   5.379  12.944  0.00  0.00    +0.000 A 
ATOM     28  C   UNL     1      45.332   4.319  12.865  0.00  0.00    +0.000 A 
BRANCH  23  30
ATOM     29  N   UNL     1      42.967   2.126  11.521  0.00  0.00    +0.000 NA
ATOM     30  C   UNL     1      43.714   3.007  11.594  0.00  0.00    +0.000 C 
ENDBRANCH  23  30
ENDBRANCH  17  26
ENDBRANCH   1  20
TORSDOF 5
ENDMDL
MODEL 5
REMARK VINA RESULT:    -4.914      2.002      2.695
REMARK INTER + INTRA:          -7.380
REMARK INTER:                  -6.877
REMARK INTRA:                  -0.503
REMARK UNBOUND:                -1.030
REMARK  Name = 
REMARK  5 active torsions:
REMARK  status: ('A' for Active; 'I' for Inactive)
REMARK    1  A    between atoms: C_2  and  C_3
REMARK    2  A    between atoms: C_6  and  C_7
REMARK    3  A    between atoms: C_10  and  C_11
REMARK    4  A    between atoms: C_11  and  N_12
REMARK    5  A    between atoms: C_15  and  C_16
REMARK                            x       y       z     vdW  Elec       q    Type
REMARK                         _______ _______ _______ _____ _____    ______ ____
ROOT
ATOM      1  C   UNL     1      49.417   4.962  19.192  0.00  0.00    +0.000 C 
ATOM      2  C   UNL     1      48.654   5.408  20.421  0.00  0.00    +0.000 C 
ATOM      3  C   UNL     1      49.647   6.343  19.819  0.00  0.00    +0.000 C 
ENDROOT
BRANCH   1   4
ATOM      4  N   UNL     1      50.577   4.070  19.265  0.00  0.00    +0.000 N 
ATOM      5  C   UNL     1      51.754   4.138  18.528  0.00  0.00    +0.000 A 
ATOM      6  C   UNL     1      52.229   5.277  17.908  0.00  0.00    +0.000 A 
ATOM      7  C   UNL     1      53.449   5.247  17.221  0.00  0.00    +0.000 A 
ATOM      8  C   UNL     1      54.162   4.056  17.166  0.00  0.00    +0.000 A 
ATOM      9  C   UNL     1      53.622   2.963  17.812  0.00  0.00    +0.000 A 
ATOM     10  N   UNL     1      52.451   2.984  18.483  0.00  0.00    +0.000 NA
ATOM     11  H   UNL     1      50.444   3.106  19.554  0.00  0.00    +0.000 HD
BRANCH   7  12
ATOM     12  C   UNL     1      53.913   6.513  16.586  0.00  0.00    +0.000 C 
ATOM     13  N   UNL     1      53.411   6.857  15.363  0.00  0.00    +0.000 N 
ATOM     14  O   UNL     1      54.726   7.245  17.139  0.00  0.00    +0.000 OA
ATOM     15  H   UNL     1      52.730   6.334  14.838  0.00  0.00    +0.000 HD
ATOM     16  H   UNL     1      53.745   7.726  14.965  0.00  0.00    +0.000 HD
ENDBRANCH   7  12
ENDBRANCH   1   4
BRANCH   1  20
ATOM     17  C   UNL     1      47.361   4.814  15.320  0.00  0.00    +0.000 A 
ATOM     18  C   UNL     1      48.235   5.863  15.628  0.00  0.00    +0.000 A 
ATOM     19  C   UNL     1      48.905   5.906  16.855  0.00  0.00    +0.000 A 
ATOM     20  C   UNL     1      48.678   4.952  17.858  0.00  0.00    +0.000 A 
ATOM     21  C   UNL     1      47.765   3.934  17.563  0.00  0.00    +0.000 A 
ATOM     22  C   UNL     1      47.155   3.843  16.313  0.00  0.00    +0.000 A 
BRANCH  17  26
ATOM     23  C   UNL     1      45.419   4.488  11.502  0.00  0.00    +0.000 A 
ATOM     24  C   UNL     1      45.821   5.737  11.968  0.00  0.00    +0.000 A 
ATOM     25  C   UNL     1      46.455   5.848  13.207  0.00  0.00    +0.000 A 
ATOM     26  C   UNL     1      46.683   4.717  14.012  0.00  0.00    +0.000 A 
ATOM     27  C   UNL     1      46.249   3.472  13.521  0.00  0.00    +0.000 A 
ATOM     28  C   UNL     1      45.636   3.351  12.276  0.00  0.00    +0.000 A 
BRANCH  23  30
ATOM     29  N   UNL     1      44.274   4.269   9.195  0.00  0.00    +0.000 NA
ATOM     30  C   UNL     1      44.781   4.370  10.230  0.00  0.00    +0.000 C 
ENDBRANCH  23  30
ENDBRANCH  17  26
ENDBRANCH   1  20
TORSDOF 5
ENDMDL
MODEL 6
REMARK VINA RESULT:    -4.807      3.925      5.342
REMARK INTER + INTRA:          -7.242
REMARK INTER:                  -6.807
REMARK INTRA:                  -0.435
REMARK UNBOUND:                -1.030
REMARK  Name = 
REMARK  5 active torsions:
REMARK  status: ('A' for Active; 'I' for Inactive)
REMARK    1  A    between atoms: C_2  and  C_3
REMARK    2  A    between atoms: C_6  and  C_7
REMARK    3  A    between atoms: C_10  and  C_11
REMARK    4  A    between atoms: C_11  and  N_12
REMARK    5  A    between atoms: C_15  and  C_16
REMARK                            x       y       z     vdW  Elec       q    Type
REMARK                         _______ _______ _______ _____ _____    ______ ____
ROOT
ATOM      1  C   UNL     1      50.051  10.377  14.450  0.00  0.00    +0.000 C 
ATOM      2  C   UNL     1      50.966  11.033  13.437  0.00  0.00    +0.000 C 
ATOM      3  C   UNL     1      51.560  10.095  14.432  0.00  0.00    +0.000 C 
ENDROOT
BRANCH   1   4
ATOM      4  N   UNL     1      49.585  11.068  15.655  0.00  0.00    +0.000 N 
ATOM      5  C   UNL     1      48.892  10.528  16.734  0.00  0.00    +0.000 A 
ATOM      6  C   UNL     1      48.886   9.189  17.075  0.00  0.00    +0.000 A 
ATOM      7  C   UNL     1      48.185   8.755  18.206  0.00  0.00    +0.000 A 
ATOM      8  C   UNL     1      47.493   9.688  18.969  0.00  0.00    +0.000 A 
ATOM      9  C   UNL     1      47.549  11.006  18.564  0.00  0.00    +0.000 A 
ATOM     10  N   UNL     1      48.228  11.435  17.479  0.00  0.00    +0.000 NA
ATOM     11  H   UNL     1      49.366  12.057  15.605  0.00  0.00    +0.000 HD
BRANCH   7  12
ATOM     12  C   UNL     1      48.230   7.301  18.528  0.00  0.00    +0.000 C 
ATOM     13  N   UNL     1      47.056   6.645  18.766  0.00  0.00    +0.000 N 
ATOM     14  O   UNL     1      49.291   6.690  18.578  0.00  0.00    +0.000 OA
ATOM     15  H   UNL     1      46.136   7.053  18.732  0.00  0.00    +0.000 HD
ATOM     16  H   UNL     1      47.124   5.657  18.976  0.00  0.00    +0.000 HD
ENDBRANCH   7  12
ENDBRANCH   1   4
BRANCH   1  20
ATOM     17  C   UNL     1      47.395   7.125  13.184  0.00  0.00    +0.000 A 
ATOM     18  C   UNL     1      48.723   6.867  13.540  0.00  0.00    +0.000 A 
ATOM     19  C   UNL     1      49.569   7.898  13.960  0.00  0.00    +0.000 A 
ATOM     20  C   UNL     1      49.157   9.239  13.970  0.00  0.00    +0.000 A 
ATOM     21  C   UNL     1      47.843   9.495  13.564  0.00  0.00    +0.000 A 
ATOM     22  C   UNL     1      46.972   8.463  13.221  0.00  0.00    +0.000 A 
BRANCH  17  26
ATOM     23  C   UNL     1      44.651   4.024  12.036  0.00  0.00    +0.000 A 
ATOM     24  C   UNL     1      45.628   3.762  12.993  0.00  0.00    +0.000 A 
ATOM     25  C   UNL     1      46.520   4.767  13.371  0.00  0.00    +0.000 A 
ATOM     26  C   UNL     1      46.466   6.046  12.789  0.00  0.00    +0.000 A 
ATOM     27  C   UNL     1      45.479   6.274  11.813  0.00  0.00    +0.000 A 
ATOM     28  C   UNL     1      44.571   5.283  11.446  0.00  0.00    +0.000 A 
BRANCH  23  30
ATOM     29  N   UNL     1      42.986   2.174  11.338  0.00  0.00    +0.000 NA
ATOM     30  C   UNL     1      43.729   3.002  11.656  0.00  0.00    +0.000 C 
ENDBRANCH  23  30
ENDBRANCH  17  26
ENDBRANCH   1  20
TORSDOF 5
ENDMDL
MODEL 7
REMARK VINA RESULT:    -4.798     10.776     13.797
REMARK INTER + INTRA:          -7.230
REMARK INTER:                  -6.619
REMARK INTRA:                  -0.611
REMARK UNBOUND:                -1.030
REMARK  Name = 
REMARK  5 active torsions:
REMARK  status: ('A' for Active; 'I' for Inactive)
REMARK    1  A    between atoms: C_2  and  C_3
REMARK    2  A    between atoms: C_6  and  C_7
REMARK    3  A    between atoms: C_10  and  C_11
REMARK    4  A    between atoms: C_11  and  N_12
REMARK    5  A    between atoms: C_15  and  C_16
REMARK                            x       y       z     vdW  Elec       q    Type
REMARK                         _______ _______ _______ _____ _____    ______ ____
ROOT
ATOM      1  C   UNL     1      38.470  -2.085  17.925  0.00  0.00    +0.000 C 
ATOM      2  C   UNL     1      37.864  -1.699  19.257  0.00  0.00    +0.000 C 
ATOM      3  C   UNL     1      37.294  -2.866  18.526  0.00  0.00    +0.000 C 
ENDROOT
BRANCH   1   4
ATOM      4  N   UNL     1      38.149  -1.383  16.679  0.00  0.00    +0.000 N 
ATOM      5  C   UNL     1      37.886  -0.028  16.506  0.00  0.00    +0.000 A 
ATOM      6  C   UNL     1      38.289   0.969  17.374  0.00  0.00    +0.000 A 
ATOM      7  C   UNL     1      38.005   2.309  17.086  0.00  0.00    +0.000 A 
ATOM      8  C   UNL     1      37.307   2.615  15.924  0.00  0.00    +0.000 A 
ATOM      9  C   UNL     1      36.941   1.564  15.108  0.00  0.00    +0.000 A 
ATOM     10  N   UNL     1      37.217   0.270  15.374  0.00  0.00    +0.000 NA
ATOM     11  H   UNL     1      37.689  -1.889  15.930  0.00  0.00    +0.000 HD
BRANCH   7  12
ATOM     12  C   UNL     1      38.479   3.337  18.054  0.00  0.00    +0.000 C 
ATOM     13  N   UNL     1      39.235   4.376  17.590  0.00  0.00    +0.000 N 
ATOM     14  O   UNL     1      38.203   3.269  19.246  0.00  0.00    +0.000 OA
ATOM     15  H   UNL     1      39.500   4.529  16.631  0.00  0.00    +0.000 HD
ATOM     16  H   UNL     1      39.535   5.059  18.276  0.00  0.00    +0.000 HD
ENDBRANCH   7  12
ENDBRANCH   1   4
BRANCH   1  20
ATOM     17  C   UNL     1      42.283  -4.252  17.888  0.00  0.00    +0.000 A 
ATOM     18  C   UNL     1      41.658  -3.923  19.096  0.00  0.00    +0.000 A 
ATOM     19  C   UNL     1      40.434  -3.247  19.112  0.00  0.00    +0.000 A 
ATOM     20  C   UNL     1      39.817  -2.799  17.934  0.00  0.00    +0.000 A 
ATOM     21  C   UNL     1      40.474  -3.087  16.733  0.00  0.00    +0.000 A 
ATOM     22  C   UNL     1      41.653  -3.830  16.707  0.00  0.00    +0.000 A 
BRANCH  17  26
ATOM     23  C   UNL     1      45.935  -6.512  17.763  0.00  0.00    +0.000 A 
ATOM     24  C   UNL     1      45.879  -5.331  18.499  0.00  0.00    +0.000 A 
ATOM     25  C   UNL     1      44.694  -4.594  18.545  0.00  0.00    +0.000 A 
ATOM     26  C   UNL     1      43.548  -5.012  17.843  0.00  0.00    +0.000 A 
ATOM     27  C   UNL     1      43.643  -6.200  17.095  0.00  0.00    +0.000 A 
ATOM     28  C   UNL     1      44.815  -6.952  17.062  0.00  0.00    +0.000 A 
BRANCH  23  30
ATOM     29  N   UNL     1      48.126  -7.881  17.689  0.00  0.00    +0.000 NA
ATOM     30  C   UNL     1      47.142  -7.273  17.724  0.00  0.00    +0.000 C 
ENDBRANCH  23  30
ENDBRANCH  17  26
ENDBRANCH   1  20
TORSDOF 5
ENDMDL
MODEL 8
REMARK VINA RESULT:    -4.782      5.169      6.257
REMARK INTER + INTRA:          -7.209
REMARK INTER:                  -6.441
REMARK INTRA:                  -0.768
REMARK UNBOUND:                -1.030
REMARK  Name = 
REMARK  5 active torsions:
REMARK  status: ('A' for Active; 'I' for Inactive)
REMARK    1  A    between atoms: C_2  and  C_3
REMARK    2  A    between atoms: C_6  and  C_7
REMARK    3  A    between atoms: C_10  and  C_11
REMARK    4  A    between atoms: C_11  and  N_12
REMARK    5  A    between atoms: C_15  and  C_16
REMARK                            x       y       z     vdW  Elec       q    Type
REMARK                         _______ _______ _______ _____ _____    ______ ____
ROOT
ATOM      1  C   UNL     1      49.706   8.555  15.127  0.00  0.00    +0.000 C 
ATOM      2  C   UNL     1      48.249   8.965  15.157  0.00  0.00    +0.000 C 
ATOM      3  C   UNL     1      49.280   9.964  15.561  0.00  0.00    +0.000 C 
ENDROOT
BRANCH   1   4
ATOM      4  N   UNL     1      50.324   7.762  16.194  0.00  0.00    +0.000 N 
ATOM      5  C   UNL     1      49.772   6.693  16.891  0.00  0.00    +0.000 A 
ATOM      6  C   UNL     1      48.728   5.911  16.435  0.00  0.00    +0.000 A 
ATOM      7  C   UNL     1      48.272   4.831  17.200  0.00  0.00    +0.000 A 
ATOM      8  C   UNL     1      48.879   4.568  18.423  0.00  0.00    +0.000 A 
ATOM      9  C   UNL     1      49.916   5.393  18.807  0.00  0.00    +0.000 A 
ATOM     10  N   UNL     1      50.367   6.432  18.073  0.00  0.00    +0.000 NA
ATOM     11  H   UNL     1      51.030   8.190  16.783  0.00  0.00    +0.000 HD
BRANCH   7  12
ATOM     12  C   UNL     1      47.153   4.018  16.646  0.00  0.00    +0.000 C 
ATOM     13  N   UNL     1      46.708   4.288  15.383  0.00  0.00    +0.000 N 
ATOM     14  O   UNL     1      46.634   3.118  17.296  0.00  0.00    +0.000 OA
ATOM     15  H   UNL     1      47.080   4.992  14.766  0.00  0.00    +0.000 HD
ATOM     16  H   UNL     1      45.951   3.712  15.037  0.00  0.00    +0.000 HD
ENDBRANCH   7  12
ENDBRANCH   1   4
BRANCH   1  20
ATOM     17  C   UNL     1      51.663   8.131  11.225  0.00  0.00    +0.000 A 
ATOM     18  C   UNL     1      52.367   8.623  12.329  0.00  0.00    +0.000 A 
ATOM     19  C   UNL     1      51.752   8.745  13.580  0.00  0.00    +0.000 A 
ATOM     20  C   UNL     1      50.392   8.457  13.769  0.00  0.00    +0.000 A 
ATOM     21  C   UNL     1      49.682   8.014  12.648  0.00  0.00    +0.000 A 
ATOM     22  C   UNL     1      50.309   7.815  11.420  0.00  0.00    +0.000 A 
BRANCH  17  26
ATOM     23  C   UNL     1      53.495   7.624   7.372  0.00  0.00    +0.000 A 
ATOM     24  C   UNL     1      53.103   6.505   8.103  0.00  0.00    +0.000 A 
ATOM     25  C   UNL     1      52.505   6.665   9.354  0.00  0.00    +0.000 A 
ATOM     26  C   UNL     1      52.304   7.942   9.908  0.00  0.00    +0.000 A 
ATOM     27  C   UNL     1      52.726   9.051   9.152  0.00  0.00    +0.000 A 
ATOM     28  C   UNL     1      53.304   8.901   7.894  0.00  0.00    +0.000 A 
BRANCH  23  30
ATOM     29  N   UNL     1      54.583   7.323   5.046  0.00  0.00    +0.000 NA
ATOM     30  C   UNL     1      54.096   7.464   6.087  0.00  0.00    +0.000 C 
ENDBRANCH  23  30
ENDBRANCH  17  26
ENDBRANCH   1  20
TORSDOF 5
ENDMDL
MODEL 9
REMARK VINA RESULT:    -4.733      5.503      6.905
REMARK INTER + INTRA:          -7.146
REMARK INTER:                  -6.314
REMARK INTRA:                  -0.832
REMARK UNBOUND:                -1.030
REMARK  Name = 
REMARK  5 active torsions:
REMARK  status: ('A' for Active; 'I' for Inactive)
REMARK    1  A    between atoms: C_2  and  C_3
REMARK    2  A    between atoms: C_6  and  C_7
REMARK    3  A    between atoms: C_10  and  C_11
REMARK    4  A    between atoms: C_11  and  N_12
REMARK    5  A    between atoms: C_15  and  C_16
REMARK                            x       y       z     vdW  Elec       q    Type
REMARK                         _______ _______ _______ _____ _____    ______ ____
ROOT
ATOM      1  C   UNL     1      49.760   8.483  14.812  0.00  0.00    +0.000 C 
ATOM      2  C   UNL     1      48.709   9.566  14.928  0.00  0.00    +0.000 C 
ATOM      3  C   UNL     1      50.047   9.803  15.541  0.00  0.00    +0.000 C 
ENDROOT
BRANCH   1   4
ATOM      4  N   UNL     1      49.776   7.303  15.681  0.00  0.00    +0.000 N 
ATOM      5  C   UNL     1      48.850   6.267  15.730  0.00  0.00    +0.000 A 
ATOM      6  C   UNL     1      47.989   5.932  14.703  0.00  0.00    +0.000 A 
ATOM      7  C   UNL     1      47.120   4.843  14.841  0.00  0.00    +0.000 A 
ATOM      8  C   UNL     1      47.133   4.117  16.026  0.00  0.00    +0.000 A 
ATOM      9  C   UNL     1      48.024   4.513  17.004  0.00  0.00    +0.000 A 
ATOM     10  N   UNL     1      48.870   5.556  16.877  0.00  0.00    +0.000 NA
ATOM     11  H   UNL     1      50.230   7.362  16.586  0.00  0.00    +0.000 HD
BRANCH   7  12
ATOM     12  C   UNL     1      46.227   4.524  13.692  0.00  0.00    +0.000 C 
ATOM     13  N   UNL     1      46.196   3.243  13.221  0.00  0.00    +0.000 N 
ATOM     14  O   UNL     1      45.525   5.383  13.171  0.00  0.00    +0.000 OA
ATOM     15  H   UNL     1      46.720   2.466  13.591  0.00  0.00    +0.000 HD
ATOM     16  H   UNL     1      45.573   3.061  12.443  0.00  0.00    +0.000 HD
ENDBRANCH   7  12
ENDBRANCH   1   4
BRANCH   1  20
ATOM     17  C   UNL     1      51.776   8.106  10.935  0.00  0.00    +0.000 A 
ATOM     18  C   UNL     1      50.419   7.795  11.070  0.00  0.00    +0.000 A 
ATOM     19  C   UNL     1      49.768   7.929  12.300  0.00  0.00    +0.000 A 
ATOM     20  C   UNL     1      50.453   8.304  13.466  0.00  0.00    +0.000 A 
ATOM     21  C   UNL     1      51.821   8.564  13.333  0.00  0.00    +0.000 A 
ATOM     22  C   UNL     1      52.457   8.508  12.095  0.00  0.00    +0.000 A 
BRANCH  17  26
ATOM     23  C   UNL     1      53.826   7.818   7.170  0.00  0.00    +0.000 A 
ATOM     24  C   UNL     1      53.851   9.016   7.880  0.00  0.00    +0.000 A 
ATOM     25  C   UNL     1      53.189   9.113   9.105  0.00  0.00    +0.000 A 
ATOM     26  C   UNL     1      52.474   8.024   9.636  0.00  0.00    +0.000 A 
ATOM     27  C   UNL     1      52.453   6.834   8.886  0.00  0.00    +0.000 A 
ATOM     28  C   UNL     1      53.130   6.721   7.674  0.00  0.00    +0.000 A 
BRANCH  23  30
ATOM     29  N   UNL     1      55.064   7.614   4.910  0.00  0.00    +0.000 NA
ATOM     30  C   UNL     1      54.513   7.711   5.923  0.00  0.00    +0.000 C 
ENDBRANCH  23  30
ENDBRANCH  17  26
ENDBRANCH   1  20
TORSDOF 5
ENDMDL
