MODEL 1
REMARK VINA RESULT:    -8.338      0.000      0.000
REMARK INTER + INTRA:         -12.349
REMARK INTER:                 -11.263
REMARK INTRA:                  -1.086
REMARK UNBOUND:                -1.086
REMARK  Name = 
REMARK  6 active torsions:
REMARK  status: ('A' for Active; 'I' for Inactive)
REMARK    1  A    between atoms: C_2  and  C_20
REMARK    2  A    between atoms: N_3  and  C_4
REMARK    3  A    between atoms: C_4  and  C_5
REMARK    4  A    between atoms: C_8  and  C_9
REMARK    5  A    between atoms: C_9  and  N_10
REMARK    6  A    between atoms: C_11  and  C_13
REMARK                            x       y       z     vdW  Elec       q    Type
REMARK                         _______ _______ _______ _____ _____    ______ ____
ROOT
ATOM      1  C   UNL     1      47.349   8.224  13.653  0.00  0.00    +0.000 C 
ENDROOT
BRANCH   1   2
ATOM      2  C   UNL     1      46.374   7.410  12.839  0.00  0.00    +0.000 A 
ATOM      3  C   UNL     1      45.264   8.015  12.231  0.00  0.00    +0.000 A 
ATOM      4  C   UNL     1      44.392   7.271  11.423  0.00  0.00    +0.000 A 
ATOM      5  C   UNL     1      44.596   5.899  11.220  0.00  0.00    +0.000 A 
ATOM      6  C   UNL     1      45.695   5.292  11.844  0.00  0.00    +0.000 A 
ATOM      7  C   UNL     1      46.566   6.035  12.652  0.00  0.00    +0.000 A 
BRANCH   5   8
ATOM      8  C   UNL     1      43.664   5.089  10.348  0.00  0.00    +0.000 C 
BRANCH   8   9
ATOM      9  N   UNL     1      44.354   4.458   9.245  0.00  0.00    +0.000 N 
ATOM     10  C   UNL     1      44.578   3.097   9.219  0.00  0.00    +0.000 C 
ATOM     11  O   UNL     1      44.210   2.342  10.116  0.00  0.00    +0.000 OA
ATOM     12  H   UNL     1      44.662   5.038   8.477  0.00  0.00    +0.000 HD
BRANCH  10  13
ATOM     13  C   UNL     1      45.278   2.614   7.950  0.00  0.00    +0.000 C 
ATOM     14  C   UNL     1      46.235   1.438   8.156  0.00  0.00    +0.000 C 
ATOM     15  C   UNL     1      47.171   1.476   6.949  0.00  0.00    +0.000 C 
ATOM     16  C   UNL     1      47.068   2.887   6.373  0.00  0.00    +0.000 C 
ATOM     17  C   UNL     1      46.197   3.670   7.345  0.00  0.00    +0.000 C 
ENDBRANCH  10  13
ENDBRANCH   8   9
ENDBRANCH   5   8
ENDBRANCH   1   2
BRANCH   1  20
ATOM     18  O   UNL     1      49.777   6.937  13.927  0.00  0.00    +0.000 OA
ATOM     19  C   UNL     1      49.046   6.998  14.912  0.00  0.00    +0.000 C 
ATOM     20  N   UNL     1      47.785   7.549  14.852  0.00  0.00    +0.000 N 
ATOM     21  H   UNL     1      47.297   7.774  15.714  0.00  0.00    +0.000 HD
BRANCH  19  22
ATOM     22  C   UNL     1      49.473   6.461  16.210  0.00  0.00    +0.000 A 
ATOM     23  C   UNL     1      50.529   7.051  16.891  0.00  0.00    +0.000 A 
ATOM     24  S   UNL     1      50.874   6.313  18.391  0.00  0.00    +0.000 S 
ATOM     25  C   UNL     1      49.591   5.211  18.204  0.00  0.00    +0.000 A 
ATOM     26  N   UNL     1      49.295   4.306  19.178  0.00  0.00    +0.000 NA
ATOM     27  C   UNL     1      48.274   3.561  18.916  0.00  0.00    +0.000 A 
ATOM     28  N   UNL     1      47.531   3.625  17.766  0.00  0.00    +0.000 N 
ATOM     29  C   UNL     1      47.822   4.489  16.738  0.00  0.00    +0.000 A 
ATOM     30  O   UNL     1      47.186   4.467  15.687  0.00  0.00    +0.000 OA
ATOM     31  C   UNL     1      48.937   5.376  16.996  0.00  0.00    +0.000 A 
ATOM     32  H   UNL     1      46.757   2.995  17.613  0.00  0.00    +0.000 HD
ENDBRANCH  19  22
ENDBRANCH   1  20
TORSDOF 6
ENDMDL
MODEL 2
REMARK VINA RESULT:    -7.992      1.992      3.592
REMARK INTER + INTRA:         -11.882
REMARK INTER:                 -10.796
REMARK INTRA:                  -1.086
REMARK UNBOUND:                -1.086
REMARK  Name = 
REMARK  6 active torsions:
REMARK  status: ('A' for Active; 'I' for Inactive)
REMARK    1  A    between atoms: C_2  and  C_20
REMARK    2  A    between atoms: N_3  and  C_4
REMARK    3  A    between atoms: C_4  and  C_5
REMARK    4  A    between atoms: C_8  and  C_9
REMARK    5  A    between atoms: C_9  and  N_10
REMARK    6  A    between atoms: C_11  and  C_13
REMARK                            x       y       z     vdW  Elec       q    Type
REMARK                         _______ _______ _______ _____ _____    ______ ____
ROOT
ATOM      1  C   UNL     1      47.104   4.412  15.106  0.00  0.00    +0.000 C 
ENDROOT
BRANCH   1   2
ATOM      2  C   UNL     1      46.307   4.466  13.826  0.00  0.00    +0.000 A 
ATOM      3  C   UNL     1      45.987   3.293  13.128  0.00  0.00    +0.000 A 
ATOM      4  C   UNL     1      45.194   3.338  11.972  0.00  0.00    +0.000 A 
ATOM      5  C   UNL     1      44.719   4.559  11.474  0.00  0.00    +0.000 A 
ATOM      6  C   UNL     1      45.056   5.733  12.162  0.00  0.00    +0.000 A 
ATOM      7  C   UNL     1      45.849   5.688  13.317  0.00  0.00    +0.000 A 
BRANCH   5   8
ATOM      8  C   UNL     1      43.860   4.618  10.231  0.00  0.00    +0.000 C 
BRANCH   8   9
ATOM      9  N   UNL     1      44.359   3.763   9.177  0.00  0.00    +0.000 N 
ATOM     10  C   UNL     1      45.402   4.156   8.364  0.00  0.00    +0.000 C 
ATOM     11  O   UNL     1      45.969   5.241   8.481  0.00  0.00    +0.000 OA
ATOM     12  H   UNL     1      43.933   2.855   9.053  0.00  0.00    +0.000 HD
BRANCH  10  13
ATOM     13  C   UNL     1      45.817   3.099   7.343  0.00  0.00    +0.000 C 
ATOM     14  C   UNL     1      46.420   1.829   7.947  0.00  0.00    +0.000 C 
ATOM     15  C   UNL     1      47.214   1.190   6.809  0.00  0.00    +0.000 C 
ATOM     16  C   UNL     1      47.458   2.296   5.784  0.00  0.00    +0.000 C 
ATOM     17  C   UNL     1      46.935   3.576   6.422  0.00  0.00    +0.000 C 
ENDBRANCH  10  13
ENDBRANCH   8   9
ENDBRANCH   5   8
ENDBRANCH   1   2
BRANCH   1  20
ATOM     18  O   UNL     1      49.248   4.720  16.819  0.00  0.00    +0.000 OA
ATOM     19  C   UNL     1      48.805   5.724  16.268  0.00  0.00    +0.000 C 
ATOM     20  N   UNL     1      47.690   5.681  15.461  0.00  0.00    +0.000 N 
ATOM     21  H   UNL     1      47.479   6.474  14.861  0.00  0.00    +0.000 HD
BRANCH  19  22
ATOM     22  C   UNL     1      49.432   7.037  16.464  0.00  0.00    +0.000 A 
ATOM     23  C   UNL     1      49.602   7.539  17.747  0.00  0.00    +0.000 A 
ATOM     24  S   UNL     1      50.368   9.064  17.789  0.00  0.00    +0.000 S 
ATOM     25  C   UNL     1      50.542   9.083  16.096  0.00  0.00    +0.000 A 
ATOM     26  N   UNL     1      51.176  10.110  15.466  0.00  0.00    +0.000 NA
ATOM     27  C   UNL     1      51.268   9.971  14.186  0.00  0.00    +0.000 A 
ATOM     28  N   UNL     1      50.773   8.909  13.475  0.00  0.00    +0.000 N 
ATOM     29  C   UNL     1      50.085   7.875  14.063  0.00  0.00    +0.000 A 
ATOM     30  O   UNL     1      49.584   6.978  13.389  0.00  0.00    +0.000 OA
ATOM     31  C   UNL     1      49.986   7.962  15.505  0.00  0.00    +0.000 A 
ATOM     32  H   UNL     1      50.858   8.874  12.470  0.00  0.00    +0.000 HD
ENDBRANCH  19  22
ENDBRANCH   1  20
TORSDOF 6
ENDMDL
MODEL 3
REMARK VINA RESULT:    -7.874      2.441      3.020
REMARK INTER + INTRA:         -11.722
REMARK INTER:                 -10.900
REMARK INTRA:                  -0.822
REMARK UNBOUND:                -1.086
REMARK  Name = 
REMARK  6 active torsions:
REMARK  status: ('A' for Active; 'I' for Inactive)
REMARK    1  A    between atoms: C_2  and  C_20
REMARK    2  A    between atoms: N_3  and  C_4
REMARK    3  A    between atoms: C_4  and  C_5
REMARK    4  A    between atoms: C_8  and  C_9
REMARK    5  A    between atoms: C_9  and  N_10
REMARK    6  A    between atoms: C_11  and  C_13
REMARK                            x       y       z     vdW  Elec       q    Type
REMARK                         _______ _______ _______ _____ _____    ______ ____
ROOT
ATOM      1  C   UNL     1      47.198   4.337  14.921  0.00  0.00    +0.000 C 
ENDROOT
BRANCH   1   2
ATOM      2  C   UNL     1      46.296   4.431  13.715  0.00  0.00    +0.000 A 
ATOM      3  C   UNL     1      45.923   5.678  13.193  0.00  0.00    +0.000 A 
ATOM      4  C   UNL     1      45.136   5.765  12.035  0.00  0.00    +0.000 A 
ATOM      5  C   UNL     1      44.686   4.609  11.384  0.00  0.00    +0.000 A 
ATOM      6  C   UNL     1      45.044   3.363  11.919  0.00  0.00    +0.000 A 
ATOM      7  C   UNL     1      45.830   3.275  13.076  0.00  0.00    +0.000 A 
BRANCH   5   8
ATOM      8  C   UNL     1      43.840   4.692  10.133  0.00  0.00    +0.000 C 
BRANCH   8   9
ATOM      9  N   UNL     1      44.319   3.816   9.087  0.00  0.00    +0.000 N 
ATOM     10  C   UNL     1      45.426   4.136   8.329  0.00  0.00    +0.000 C 
ATOM     11  O   UNL     1      46.071   5.170   8.491  0.00  0.00    +0.000 OA
ATOM     12  H   UNL     1      43.828   2.947   8.927  0.00  0.00    +0.000 HD
BRANCH  10  13
ATOM     13  C   UNL     1      45.803   3.064   7.309  0.00  0.00    +0.000 C 
ATOM     14  C   UNL     1      46.404   1.792   7.911  0.00  0.00    +0.000 C 
ATOM     15  C   UNL     1      47.162   1.132   6.760  0.00  0.00    +0.000 C 
ATOM     16  C   UNL     1      47.397   2.225   5.720  0.00  0.00    +0.000 C 
ATOM     17  C   UNL     1      46.906   3.518   6.357  0.00  0.00    +0.000 C 
ENDBRANCH  10  13
ENDBRANCH   8   9
ENDBRANCH   5   8
ENDBRANCH   1   2
BRANCH   1  20
ATOM     18  O   UNL     1      49.325   4.817  16.616  0.00  0.00    +0.000 OA
ATOM     19  C   UNL     1      48.641   5.776  16.269  0.00  0.00    +0.000 C 
ATOM     20  N   UNL     1      47.514   5.624  15.492  0.00  0.00    +0.000 N 
ATOM     21  H   UNL     1      47.098   6.441  15.052  0.00  0.00    +0.000 HD
BRANCH  19  22
ATOM     22  C   UNL     1      48.977   7.141  16.690  0.00  0.00    +0.000 A 
ATOM     23  C   UNL     1      49.807   7.926  15.900  0.00  0.00    +0.000 A 
ATOM     24  S   UNL     1      50.071   9.490  16.529  0.00  0.00    +0.000 S 
ATOM     25  C   UNL     1      49.047   9.189  17.854  0.00  0.00    +0.000 A 
ATOM     26  N   UNL     1      48.790  10.157  18.777  0.00  0.00    +0.000 NA
ATOM     27  C   UNL     1      47.966   9.799  19.704  0.00  0.00    +0.000 A 
ATOM     28  N   UNL     1      47.387   8.561  19.803  0.00  0.00    +0.000 N 
ATOM     29  C   UNL     1      47.654   7.541  18.923  0.00  0.00    +0.000 A 
ATOM     30  O   UNL     1      47.181   6.419  19.084  0.00  0.00    +0.000 OA
ATOM     31  C   UNL     1      48.545   7.900  17.839  0.00  0.00    +0.000 A 
ATOM     32  H   UNL     1      46.768   8.338  20.569  0.00  0.00    +0.000 HD
ENDBRANCH  19  22
ENDBRANCH   1  20
TORSDOF 6
ENDMDL
MODEL 4
REMARK VINA RESULT:    -7.712      1.910      2.175
REMARK INTER + INTRA:         -11.503
REMARK INTER:                 -10.479
REMARK INTRA:                  -1.024
REMARK UNBOUND:                -1.086
REMARK  Name = 
REMARK  6 active torsions:
REMARK  status: ('A' for Active; 'I' for Inactive)
REMARK    1  A    between atoms: C_2  and  C_20
REMARK    2  A    between atoms: N_3  and  C_4
REMARK    3  A    between atoms: C_4  and  C_5
REMARK    4  A    between atoms: C_8  and  C_9
REMARK    5  A    between atoms: C_9  and  N_10
REMARK    6  A    between atoms: C_11  and  C_13
REMARK                            x       y       z     vdW  Elec       q    Type
REMARK                         _______ _______ _______ _____ _____    ______ ____
ROOT
ATOM      1  C   UNL     1      47.985   7.647  14.045  0.00  0.00    +0.000 C 
ENDROOT
BRANCH   1   2
ATOM      2  C   UNL     1      46.900   7.049  13.183  0.00  0.00    +0.000 A 
ATOM      3  C   UNL     1      46.152   7.851  12.309  0.00  0.00    +0.000 A 
ATOM      4  C   UNL     1      45.187   7.286  11.463  0.00  0.00    +0.000 A 
ATOM      5  C   UNL     1      44.930   5.908  11.486  0.00  0.00    +0.000 A 
ATOM      6  C   UNL     1      45.666   5.110  12.375  0.00  0.00    +0.000 A 
ATOM      7  C   UNL     1      46.630   5.675  13.220  0.00  0.00    +0.000 A 
BRANCH   5   8
ATOM      8  C   UNL     1      43.895   5.288  10.575  0.00  0.00    +0.000 C 
BRANCH   8   9
ATOM      9  N   UNL     1      44.492   4.602   9.451  0.00  0.00    +0.000 N 
ATOM     10  C   UNL     1      44.494   3.224   9.367  0.00  0.00    +0.000 C 
ATOM     11  O   UNL     1      43.994   2.501  10.226  0.00  0.00    +0.000 OA
ATOM     12  H   UNL     1      44.902   5.156   8.713  0.00  0.00    +0.000 HD
BRANCH  10  13
ATOM     13  C   UNL     1      45.127   2.688   8.085  0.00  0.00    +0.000 C 
ATOM     14  C   UNL     1      46.084   1.512   8.287  0.00  0.00    +0.000 C 
ATOM     15  C   UNL     1      46.961   1.498   7.036  0.00  0.00    +0.000 C 
ATOM     16  C   UNL     1      46.840   2.887   6.413  0.00  0.00    +0.000 C 
ATOM     17  C   UNL     1      46.023   3.714   7.396  0.00  0.00    +0.000 C 
ENDBRANCH  10  13
ENDBRANCH   8   9
ENDBRANCH   5   8
ENDBRANCH   1   2
BRANCH   1  20
ATOM     18  O   UNL     1      50.245   6.706  15.322  0.00  0.00    +0.000 OA
ATOM     19  C   UNL     1      49.195   6.733  15.960  0.00  0.00    +0.000 C 
ATOM     20  N   UNL     1      48.002   7.110  15.384  0.00  0.00    +0.000 N 
ATOM     21  H   UNL     1      47.207   7.324  15.980  0.00  0.00    +0.000 HD
BRANCH  19  22
ATOM     22  C   UNL     1      49.154   6.338  17.372  0.00  0.00    +0.000 A 
ATOM     23  C   UNL     1      49.705   5.126  17.770  0.00  0.00    +0.000 A 
ATOM     24  S   UNL     1      49.589   4.840  19.449  0.00  0.00    +0.000 S 
ATOM     25  C   UNL     1      48.842   6.347  19.708  0.00  0.00    +0.000 A 
ATOM     26  N   UNL     1      48.513   6.761  20.964  0.00  0.00    +0.000 NA
ATOM     27  C   UNL     1      47.989   7.940  21.013  0.00  0.00    +0.000 A 
ATOM     28  N   UNL     1      47.749   8.736  19.924  0.00  0.00    +0.000 N 
ATOM     29  C   UNL     1      48.020   8.340  18.636  0.00  0.00    +0.000 A 
ATOM     30  O   UNL     1      47.719   9.045  17.676  0.00  0.00    +0.000 OA
ATOM     31  C   UNL     1      48.646   7.039  18.527  0.00  0.00    +0.000 A 
ATOM     32  H   UNL     1      47.313   9.641  20.029  0.00  0.00    +0.000 HD
ENDBRANCH  19  22
ENDBRANCH   1  20
TORSDOF 6
ENDMDL
MODEL 5
REMARK VINA RESULT:    -7.665      2.335      3.431
REMARK INTER + INTRA:         -11.439
REMARK INTER:                 -10.518
REMARK INTRA:                  -0.921
REMARK UNBOUND:                -1.086
REMARK  Name = 
REMARK  6 active torsions:
REMARK  status: ('A' for Active; 'I' for Inactive)
REMARK    1  A    between atoms: C_2  and  C_20
REMARK    2  A    between atoms: N_3  and  C_4
REMARK    3  A    between atoms: C_4  and  C_5
REMARK    4  A    between atoms: C_8  and  C_9
REMARK    5  A    between atoms: C_9  and  N_10
REMARK    6  A    between atoms: C_11  and  C_13
REMARK                            x       y       z     vdW  Elec       q    Type
REMARK                         _______ _______ _______ _____ _____    ______ ____
ROOT
ATOM      1  C   UNL     1      47.521   4.350  15.657  0.00  0.00    +0.000 C 
ENDROOT
BRANCH   1   2
ATOM      2  C   UNL     1      46.910   4.794  14.351  0.00  0.00    +0.000 A 
ATOM      3  C   UNL     1      47.506   5.808  13.587  0.00  0.00    +0.000 A 
ATOM      4  C   UNL     1      46.973   6.178  12.343  0.00  0.00    +0.000 A 
ATOM      5  C   UNL     1      45.819   5.560  11.844  0.00  0.00    +0.000 A 
ATOM      6  C   UNL     1      45.213   4.560  12.618  0.00  0.00    +0.000 A 
ATOM      7  C   UNL     1      45.745   4.190  13.860  0.00  0.00    +0.000 A 
BRANCH   5   8
ATOM      8  C   UNL     1      45.239   5.949  10.503  0.00  0.00    +0.000 C 
BRANCH   8   9
ATOM      9  N   UNL     1      45.616   5.029   9.453  0.00  0.00    +0.000 N 
ATOM     10  C   UNL     1      44.827   3.944   9.128  0.00  0.00    +0.000 C 
ATOM     11  O   UNL     1      43.767   3.694   9.698  0.00  0.00    +0.000 OA
ATOM     12  H   UNL     1      46.473   5.203   8.947  0.00  0.00    +0.000 HD
BRANCH  10  13
ATOM     13  C   UNL     1      45.368   3.118   7.963  0.00  0.00    +0.000 C 
ATOM     14  C   UNL     1      45.981   1.775   8.361  0.00  0.00    +0.000 C 
ATOM     15  C   UNL     1      46.889   1.394   7.192  0.00  0.00    +0.000 C 
ATOM     16  C   UNL     1      47.158   2.685   6.422  0.00  0.00    +0.000 C 
ATOM     17  C   UNL     1      46.529   3.800   7.246  0.00  0.00    +0.000 C 
ENDBRANCH  10  13
ENDBRANCH   8   9
ENDBRANCH   5   8
ENDBRANCH   1   2
BRANCH   1  20
ATOM     18  O   UNL     1      49.766   5.634  16.624  0.00  0.00    +0.000 OA
ATOM     19  C   UNL     1      48.670   6.009  17.032  0.00  0.00    +0.000 C 
ATOM     20  N   UNL     1      47.501   5.378  16.669  0.00  0.00    +0.000 N 
ATOM     21  H   UNL     1      46.611   5.834  16.849  0.00  0.00    +0.000 HD
BRANCH  19  22
ATOM     22  C   UNL     1      48.551   7.143  17.956  0.00  0.00    +0.000 A 
ATOM     23  C   UNL     1      48.676   6.940  19.324  0.00  0.00    +0.000 A 
ATOM     24  S   UNL     1      48.534   8.370  20.245  0.00  0.00    +0.000 S 
ATOM     25  C   UNL     1      48.349   9.317  18.843  0.00  0.00    +0.000 A 
ATOM     26  N   UNL     1      48.227  10.672  18.922  0.00  0.00    +0.000 NA
ATOM     27  C   UNL     1      48.134  11.262  17.778  0.00  0.00    +0.000 A 
ATOM     28  N   UNL     1      48.135  10.626  16.565  0.00  0.00    +0.000 N 
ATOM     29  C   UNL     1      48.208   9.260  16.440  0.00  0.00    +0.000 A 
ATOM     30  O   UNL     1      48.127   8.714  15.342  0.00  0.00    +0.000 OA
ATOM     31  C   UNL     1      48.353   8.548  17.693  0.00  0.00    +0.000 A 
ATOM     32  H   UNL     1      48.034  11.147  15.706  0.00  0.00    +0.000 HD
ENDBRANCH  19  22
ENDBRANCH   1  20
TORSDOF 6
ENDMDL
MODEL 6
REMARK VINA RESULT:    -7.416      2.044      2.981
REMARK INTER + INTRA:         -11.103
REMARK INTER:                 -10.204
REMARK INTRA:                  -0.899
REMARK UNBOUND:                -1.086
REMARK  Name = 
REMARK  6 active torsions:
REMARK  status: ('A' for Active; 'I' for Inactive)
REMARK    1  A    between atoms: C_2  and  C_20
REMARK    2  A    between atoms: N_3  and  C_4
REMARK    3  A    between atoms: C_4  and  C_5
REMARK    4  A    between atoms: C_8  and  C_9
REMARK    5  A    between atoms: C_9  and  N_10
REMARK    6  A    between atoms: C_11  and  C_13
REMARK                            x       y       z     vdW  Elec       q    Type
REMARK                         _______ _______ _______ _____ _____    ______ ____
ROOT
ATOM      1  C   UNL     1      47.178   4.361  15.596  0.00  0.00    +0.000 C 
ENDROOT
BRANCH   1   2
ATOM      2  C   UNL     1      46.705   4.822  14.239  0.00  0.00    +0.000 A 
ATOM      3  C   UNL     1      47.378   5.843  13.553  0.00  0.00    +0.000 A 
ATOM      4  C   UNL     1      46.977   6.229  12.266  0.00  0.00    +0.000 A 
ATOM      5  C   UNL     1      45.880   5.619  11.642  0.00  0.00    +0.000 A 
ATOM      6  C   UNL     1      45.196   4.612  12.338  0.00  0.00    +0.000 A 
ATOM      7  C   UNL     1      45.596   4.226  13.624  0.00  0.00    +0.000 A 
BRANCH   5   8
ATOM      8  C   UNL     1      45.442   6.025  10.253  0.00  0.00    +0.000 C 
BRANCH   8   9
ATOM      9  N   UNL     1      45.848   5.068   9.248  0.00  0.00    +0.000 N 
ATOM     10  C   UNL     1      45.025   4.027   8.870  0.00  0.00    +0.000 C 
ATOM     11  O   UNL     1      43.909   3.848   9.354  0.00  0.00    +0.000 OA
ATOM     12  H   UNL     1      46.752   5.185   8.811  0.00  0.00    +0.000 HD
BRANCH  10  13
ATOM     13  C   UNL     1      45.609   3.153   7.762  0.00  0.00    +0.000 C 
ATOM     14  C   UNL     1      46.152   1.802   8.232  0.00  0.00    +0.000 C 
ATOM     15  C   UNL     1      47.116   1.362   7.131  0.00  0.00    +0.000 C 
ATOM     16  C   UNL     1      47.475   2.622   6.347  0.00  0.00    +0.000 C 
ATOM     17  C   UNL     1      46.834   3.778   7.102  0.00  0.00    +0.000 C 
ENDBRANCH  10  13
ENDBRANCH   8   9
ENDBRANCH   5   8
ENDBRANCH   1   2
BRANCH   1  20
ATOM     18  O   UNL     1      47.026   4.912  18.298  0.00  0.00    +0.000 OA
ATOM     19  C   UNL     1      47.886   5.493  17.641  0.00  0.00    +0.000 C 
ATOM     20  N   UNL     1      47.987   5.344  16.276  0.00  0.00    +0.000 N 
ATOM     21  H   UNL     1      48.825   5.663  15.800  0.00  0.00    +0.000 HD
BRANCH  19  22
ATOM     22  C   UNL     1      48.844   6.404  18.281  0.00  0.00    +0.000 A 
ATOM     23  C   UNL     1      48.384   7.491  19.012  0.00  0.00    +0.000 A 
ATOM     24  S   UNL     1      49.633   8.428  19.704  0.00  0.00    +0.000 S 
ATOM     25  C   UNL     1      50.828   7.383  19.090  0.00  0.00    +0.000 A 
ATOM     26  N   UNL     1      52.147   7.588  19.362  0.00  0.00    +0.000 NA
ATOM     27  C   UNL     1      52.936   6.696  18.864  0.00  0.00    +0.000 A 
ATOM     28  N   UNL     1      52.532   5.628  18.107  0.00  0.00    +0.000 N 
ATOM     29  C   UNL     1      51.219   5.409  17.768  0.00  0.00    +0.000 A 
ATOM     30  O   UNL     1      50.898   4.488  17.021  0.00  0.00    +0.000 OA
ATOM     31  C   UNL     1      50.285   6.360  18.333  0.00  0.00    +0.000 A 
ATOM     32  H   UNL     1      53.205   4.979  17.726  0.00  0.00    +0.000 HD
ENDBRANCH  19  22
ENDBRANCH   1  20
TORSDOF 6
ENDMDL
MODEL 7
REMARK VINA RESULT:    -7.379      4.615      9.419
REMARK INTER + INTRA:         -11.054
REMARK INTER:                 -10.140
REMARK INTRA:                  -0.913
REMARK UNBOUND:                -1.086
REMARK  Name = 
REMARK  6 active torsions:
REMARK  status: ('A' for Active; 'I' for Inactive)
REMARK    1  A    between atoms: C_2  and  C_20
REMARK    2  A    between atoms: N_3  and  C_4
REMARK    3  A    between atoms: C_4  and  C_5
REMARK    4  A    between atoms: C_8  and  C_9
REMARK    5  A    between atoms: C_9  and  N_10
REMARK    6  A    between atoms: C_11  and  C_13
REMARK                            x       y       z     vdW  Elec       q    Type
REMARK                         _______ _______ _______ _____ _____    ______ ____
ROOT
ATOM      1  C   UNL     1      47.222   3.357  16.637  0.00  0.00    +0.000 C 
ENDROOT
BRANCH   1   2
ATOM      2  C   UNL     1      48.690   3.418  16.981  0.00  0.00    +0.000 A 
ATOM      3  C   UNL     1      49.291   4.629  17.356  0.00  0.00    +0.000 A 
ATOM      4  C   UNL     1      50.640   4.674  17.735  0.00  0.00    +0.000 A 
ATOM      5  C   UNL     1      51.428   3.514  17.728  0.00  0.00    +0.000 A 
ATOM      6  C   UNL     1      50.830   2.308  17.335  0.00  0.00    +0.000 A 
ATOM      7  C   UNL     1      49.482   2.263  16.955  0.00  0.00    +0.000 A 
BRANCH   5   8
ATOM      8  C   UNL     1      52.882   3.552  18.140  0.00  0.00    +0.000 C 
BRANCH   8   9
ATOM      9  N   UNL     1      53.600   2.365  17.730  0.00  0.00    +0.000 N 
ATOM     10  C   UNL     1      54.260   1.571  18.645  0.00  0.00    +0.000 C 
ATOM     11  O   UNL     1      54.279   1.814  19.850  0.00  0.00    +0.000 OA
ATOM     12  H   UNL     1      53.599   2.118  16.750  0.00  0.00    +0.000 HD
BRANCH  10  13
ATOM     13  C   UNL     1      54.916   0.338  18.027  0.00  0.00    +0.000 C 
ATOM     14  C   UNL     1      54.664   0.163  16.528  0.00  0.00    +0.000 C 
ATOM     15  C   UNL     1      54.930  -1.317  16.255  0.00  0.00    +0.000 C 
ATOM     16  C   UNL     1      54.838  -2.025  17.605  0.00  0.00    +0.000 C 
ATOM     17  C   UNL     1      54.372  -0.968  18.598  0.00  0.00    +0.000 C 
ENDBRANCH  10  13
ENDBRANCH   8   9
ENDBRANCH   5   8
ENDBRANCH   1   2
BRANCH   1  20
ATOM     18  O   UNL     1      47.188   3.138  13.885  0.00  0.00    +0.000 OA
ATOM     19  C   UNL     1      46.759   4.175  14.383  0.00  0.00    +0.000 C 
ATOM     20  N   UNL     1      46.808   4.408  15.739  0.00  0.00    +0.000 N 
ATOM     21  H   UNL     1      46.262   5.168  16.135  0.00  0.00    +0.000 HD
BRANCH  19  22
ATOM     22  C   UNL     1      46.188   5.239  13.548  0.00  0.00    +0.000 A 
ATOM     23  C   UNL     1      46.939   6.372  13.259  0.00  0.00    +0.000 A 
ATOM     24  S   UNL     1      46.128   7.492  12.258  0.00  0.00    +0.000 S 
ATOM     25  C   UNL     1      44.766   6.480  12.138  0.00  0.00    +0.000 A 
ATOM     26  N   UNL     1      43.698   6.829  11.368  0.00  0.00    +0.000 NA
ATOM     27  C   UNL     1      42.754   5.949  11.340  0.00  0.00    +0.000 A 
ATOM     28  N   UNL     1      42.771   4.760  12.021  0.00  0.00    +0.000 N 
ATOM     29  C   UNL     1      43.805   4.388  12.846  0.00  0.00    +0.000 A 
ATOM     30  O   UNL     1      43.755   3.353  13.505  0.00  0.00    +0.000 OA
ATOM     31  C   UNL     1      44.910   5.324  12.884  0.00  0.00    +0.000 A 
ATOM     32  H   UNL     1      41.988   4.125  11.975  0.00  0.00    +0.000 HD
ENDBRANCH  19  22
ENDBRANCH   1  20
TORSDOF 6
ENDMDL
MODEL 8
REMARK VINA RESULT:    -6.795      2.883      4.078
REMARK INTER + INTRA:         -10.265
REMARK INTER:                  -9.594
REMARK INTRA:                  -0.671
REMARK UNBOUND:                -1.086
REMARK  Name = 
REMARK  6 active torsions:
REMARK  status: ('A' for Active; 'I' for Inactive)
REMARK    1  A    between atoms: C_2  and  C_20
REMARK    2  A    between atoms: N_3  and  C_4
REMARK    3  A    between atoms: C_4  and  C_5
REMARK    4  A    between atoms: C_8  and  C_9
REMARK    5  A    between atoms: C_9  and  N_10
REMARK    6  A    between atoms: C_11  and  C_13
REMARK                            x       y       z     vdW  Elec       q    Type
REMARK                         _______ _______ _______ _____ _____    ______ ____
ROOT
ATOM      1  C   UNL     1      47.856   5.809  14.590  0.00  0.00    +0.000 C 
ENDROOT
BRANCH   1   2
ATOM      2  C   UNL     1      46.827   5.555  13.516  0.00  0.00    +0.000 A 
ATOM      3  C   UNL     1      46.438   6.577  12.637  0.00  0.00    +0.000 A 
ATOM      4  C   UNL     1      45.528   6.326  11.600  0.00  0.00    +0.000 A 
ATOM      5  C   UNL     1      44.967   5.052  11.430  0.00  0.00    +0.000 A 
ATOM      6  C   UNL     1      45.342   4.037  12.322  0.00  0.00    +0.000 A 
ATOM      7  C   UNL     1      46.251   4.288  13.358  0.00  0.00    +0.000 A 
BRANCH   5   8
ATOM      8  C   UNL     1      43.988   4.770  10.313  0.00  0.00    +0.000 C 
BRANCH   8   9
ATOM      9  N   UNL     1      44.482   3.773   9.389  0.00  0.00    +0.000 N 
ATOM     10  C   UNL     1      45.467   4.069   8.469  0.00  0.00    +0.000 C 
ATOM     11  O   UNL     1      45.985   5.180   8.378  0.00  0.00    +0.000 OA
ATOM     12  H   UNL     1      44.095   2.841   9.437  0.00  0.00    +0.000 HD
BRANCH  10  13
ATOM     13  C   UNL     1      45.888   2.875   7.615  0.00  0.00    +0.000 C 
ATOM     14  C   UNL     1      46.006   1.553   8.378  0.00  0.00    +0.000 C 
ATOM     15  C   UNL     1      46.908   0.677   7.509  0.00  0.00    +0.000 C 
ATOM     16  C   UNL     1      47.659   1.626   6.578  0.00  0.00    +0.000 C 
ATOM     17  C   UNL     1      47.289   3.032   7.032  0.00  0.00    +0.000 C 
ENDBRANCH  10  13
ENDBRANCH   8   9
ENDBRANCH   5   8
ENDBRANCH   1   2
BRANCH   1  20
ATOM     18  O   UNL     1      49.422   7.061  16.489  0.00  0.00    +0.000 OA
ATOM     19  C   UNL     1      49.451   7.500  15.342  0.00  0.00    +0.000 C 
ATOM     20  N   UNL     1      48.645   6.993  14.347  0.00  0.00    +0.000 N 
ATOM     21  H   UNL     1      48.841   7.228  13.378  0.00  0.00    +0.000 HD
BRANCH  19  22
ATOM     22  C   UNL     1      50.334   8.613  14.977  0.00  0.00    +0.000 A 
ATOM     23  C   UNL     1      49.795   9.788  14.468  0.00  0.00    +0.000 A 
ATOM     24  S   UNL     1      50.964  10.983  14.121  0.00  0.00    +0.000 S 
ATOM     25  C   UNL     1      52.225   9.989  14.683  0.00  0.00    +0.000 A 
ATOM     26  N   UNL     1      53.512  10.434  14.710  0.00  0.00    +0.000 NA
ATOM     27  C   UNL     1      54.356   9.588  15.197  0.00  0.00    +0.000 A 
ATOM     28  N   UNL     1      54.037   8.333  15.646  0.00  0.00    +0.000 N 
ATOM     29  C   UNL     1      52.761   7.825  15.594  0.00  0.00    +0.000 A 
ATOM     30  O   UNL     1      52.522   6.668  15.929  0.00  0.00    +0.000 OA
ATOM     31  C   UNL     1      51.766   8.749  15.090  0.00  0.00    +0.000 A 
ATOM     32  H   UNL     1      54.751   7.710  15.994  0.00  0.00    +0.000 HD
ENDBRANCH  19  22
ENDBRANCH   1  20
TORSDOF 6
ENDMDL
MODEL 9
REMARK VINA RESULT:    -6.779      4.812      7.810
REMARK INTER + INTRA:         -10.242
REMARK INTER:                  -9.267
REMARK INTRA:                  -0.975
REMARK UNBOUND:                -1.086
REMARK  Name = 
REMARK  6 active torsions:
REMARK  status: ('A' for Active; 'I' for Inactive)
REMARK    1  A    between atoms: C_2  and  C_20
REMARK    2  A    between atoms: N_3  and  C_4
REMARK    3  A    between atoms: C_4  and  C_5
REMARK    4  A    between atoms: C_8  and  C_9
REMARK    5  A    between atoms: C_9  and  N_10
REMARK    6  A    between atoms: C_11  and  C_13
REMARK                            x       y       z     vdW  Elec       q    Type
REMARK                         _______ _______ _______ _____ _____    ______ ____
ROOT
ATOM      1  C   UNL     1      46.273   8.236  12.700  0.00  0.00    +0.000 C 
ENDROOT
BRANCH   1   2
ATOM      2  C   UNL     1      47.680   8.509  12.225  0.00  0.00    +0.000 A 
ATOM      3  C   UNL     1      48.141   9.823  12.061  0.00  0.00    +0.000 A 
ATOM      4  C   UNL     1      49.466  10.078  11.681  0.00  0.00    +0.000 A 
ATOM      5  C   UNL     1      50.357   9.024  11.433  0.00  0.00    +0.000 A 
ATOM      6  C   UNL     1      49.889   7.710  11.579  0.00  0.00    +0.000 A 
ATOM      7  C   UNL     1      48.565   7.456  11.959  0.00  0.00    +0.000 A 
BRANCH   5   8
ATOM      8  C   UNL     1      51.789   9.288  11.026  0.00  0.00    +0.000 C 
BRANCH   8   9
ATOM      9  N   UNL     1      52.305   8.268  10.140  0.00  0.00    +0.000 N 
ATOM     10  C   UNL     1      52.885   8.591   8.930  0.00  0.00    +0.000 C 
ATOM     11  O   UNL     1      53.003   9.748   8.533  0.00  0.00    +0.000 OA
ATOM     12  H   UNL     1      52.243   7.302  10.432  0.00  0.00    +0.000 HD
BRANCH  10  13
ATOM     13  C   UNL     1      53.412   7.382   8.160  0.00  0.00    +0.000 C 
ATOM     14  C   UNL     1      52.362   6.652   7.320  0.00  0.00    +0.000 C 
ATOM     15  C   UNL     1      52.941   5.256   7.092  0.00  0.00    +0.000 C 
ATOM     16  C   UNL     1      54.009   5.056   8.165  0.00  0.00    +0.000 C 
ATOM     17  C   UNL     1      53.916   6.272   9.077  0.00  0.00    +0.000 C 
ENDBRANCH  10  13
ENDBRANCH   8   9
ENDBRANCH   5   8
ENDBRANCH   1   2
BRANCH   1  20
ATOM     18  O   UNL     1      44.026   7.485  11.282  0.00  0.00    +0.000 OA
ATOM     19  C   UNL     1      44.762   6.597  11.703  0.00  0.00    +0.000 C 
ATOM     20  N   UNL     1      45.860   6.870  12.487  0.00  0.00    +0.000 N 
ATOM     21  H   UNL     1      46.557   6.146  12.639  0.00  0.00    +0.000 HD
BRANCH  19  22
ATOM     22  C   UNL     1      44.491   5.184  11.410  0.00  0.00    +0.000 A 
ATOM     23  C   UNL     1      43.714   4.432  12.282  0.00  0.00    +0.000 A 
ATOM     24  S   UNL     1      43.483   2.819  11.773  0.00  0.00    +0.000 S 
ATOM     25  C   UNL     1      44.373   3.084  10.348  0.00  0.00    +0.000 A 
ATOM     26  N   UNL     1      44.523   2.099   9.420  0.00  0.00    +0.000 NA
ATOM     27  C   UNL     1      45.189   2.454   8.372  0.00  0.00    +0.000 A 
ATOM     28  N   UNL     1      45.731   3.697   8.172  0.00  0.00    +0.000 N 
ATOM     29  C   UNL     1      45.645   4.705   9.101  0.00  0.00    +0.000 A 
ATOM     30  O   UNL     1      46.210   5.782   8.927  0.00  0.00    +0.000 OA
ATOM     31  C   UNL     1      44.875   4.372  10.281  0.00  0.00    +0.000 A 
ATOM     32  H   UNL     1      46.262   3.903   7.339  0.00  0.00    +0.000 HD
ENDBRANCH  19  22
ENDBRANCH   1  20
TORSDOF 6
ENDMDL
