MODEL 1
REMARK VINA RESULT:    -8.187      0.000      0.000
REMARK INTER + INTRA:         -12.522
REMARK INTER:                 -11.538
REMARK INTRA:                  -0.984
REMARK UNBOUND:                -0.984
REMARK  Name = 
REMARK  7 active torsions:
REMARK  status: ('A' for Active; 'I' for Inactive)
REMARK    1  A    between atoms: C_2  and  C_3
REMARK    2  A    between atoms: C_7  and  C_8
REMARK    3  A    between atoms: C_8  and  O_9
REMARK    4  A    between atoms: O_9  and  C_10
REMARK    5  A    between atoms: C_13  and  C_14
REMARK    6  A    between atoms: C_14  and  N_15
REMARK    7  A    between atoms: C_16  and  C_18
REMARK                            x       y       z     vdW  Elec       q    Type
REMARK                         _______ _______ _______ _____ _____    ______ ____
ROOT
ATOM      1  C   UNL     1      45.226   4.449  11.868  0.00  0.00    +0.000 A 
ATOM      2  C   UNL     1      45.252   5.770  11.415  0.00  0.00    +0.000 A 
ATOM      3  C   UNL     1      46.129   6.699  11.999  0.00  0.00    +0.000 A 
ATOM      4  C   UNL     1      46.980   6.312  13.045  0.00  0.00    +0.000 A 
ATOM      5  C   UNL     1      46.894   5.003  13.530  0.00  0.00    +0.000 A 
ATOM      6  C   UNL     1      46.023   4.084  12.952  0.00  0.00    +0.000 A 
ENDROOT
BRANCH   1   7
ATOM      7  O   UNL     1      44.404   3.573  11.207  0.00  0.00    +0.000 OA
BRANCH   7   8
ATOM      8  C   UNL     1      44.054   3.988   9.877  0.00  0.00    +0.000 C 
BRANCH   8  13
ATOM      9  C   UNL     1      46.345   1.715   7.859  0.00  0.00    +0.000 A 
ATOM     10  C   UNL     1      47.053   2.644   7.089  0.00  0.00    +0.000 A 
ATOM     11  C   UNL     1      46.792   4.007   7.220  0.00  0.00    +0.000 A 
ATOM     12  C   UNL     1      45.826   4.453   8.124  0.00  0.00    +0.000 A 
ATOM     13  C   UNL     1      45.118   3.535   8.912  0.00  0.00    +0.000 A 
ATOM     14  C   UNL     1      45.374   2.164   8.763  0.00  0.00    +0.000 A 
BRANCH   9  16
ATOM     15  N   UNL     1      46.818  -0.822   7.621  0.00  0.00    +0.000 NA
ATOM     16  C   UNL     1      46.607   0.312   7.727  0.00  0.00    +0.000 C 
ENDBRANCH   9  16
ENDBRANCH   8  13
ENDBRANCH   7   8
ENDBRANCH   1   7
BRANCH   4  17
ATOM     17  C   UNL     1      47.976   7.256  13.668  0.00  0.00    +0.000 C 
BRANCH  17  18
ATOM     18  N   UNL     1      47.912   7.249  15.107  0.00  0.00    +0.000 N 
ATOM     19  C   UNL     1      49.014   6.909  15.852  0.00  0.00    +0.000 C 
ATOM     20  O   UNL     1      50.087   6.618  15.331  0.00  0.00    +0.000 OA
ATOM     21  H   UNL     1      46.992   7.217  15.539  0.00  0.00    +0.000 HD
BRANCH  19  22
ATOM     22  C   UNL     1      48.867   6.963  17.312  0.00  0.00    +0.000 A 
ATOM     23  C   UNL     1      48.721   8.193  17.941  0.00  0.00    +0.000 A 
ATOM     24  S   UNL     1      48.574   8.081  19.637  0.00  0.00    +0.000 S 
ATOM     25  C   UNL     1      48.736   6.388  19.592  0.00  0.00    +0.000 A 
ATOM     26  N   UNL     1      48.745   5.656  20.739  0.00  0.00    +0.000 NA
ATOM     27  C   UNL     1      48.896   4.386  20.558  0.00  0.00    +0.000 A 
ATOM     28  N   UNL     1      49.021   3.779  19.335  0.00  0.00    +0.000 N 
ATOM     29  C   UNL     1      48.972   4.473  18.149  0.00  0.00    +0.000 A 
ATOM     30  O   UNL     1      49.006   3.895  17.068  0.00  0.00    +0.000 OA
ATOM     31  C   UNL     1      48.852   5.910  18.298  0.00  0.00    +0.000 A 
ATOM     32  H   UNL     1      49.103   2.776  19.263  0.00  0.00    +0.000 HD
ENDBRANCH  19  22
ENDBRANCH  17  18
ENDBRANCH   4  17
TORSDOF 7
ENDMDL
MODEL 2
REMARK VINA RESULT:    -7.956      1.411      2.093
REMARK INTER + INTRA:         -12.195
REMARK INTER:                 -10.905
REMARK INTRA:                  -1.290
REMARK UNBOUND:                -0.984
REMARK  Name = 
REMARK  7 active torsions:
REMARK  status: ('A' for Active; 'I' for Inactive)
REMARK    1  A    between atoms: C_2  and  C_3
REMARK    2  A    between atoms: C_7  and  C_8
REMARK    3  A    between atoms: C_8  and  O_9
REMARK    4  A    between atoms: O_9  and  C_10
REMARK    5  A    between atoms: C_13  and  C_14
REMARK    6  A    between atoms: C_14  and  N_15
REMARK    7  A    between atoms: C_16  and  C_18
REMARK                            x       y       z     vdW  Elec       q    Type
REMARK                         _______ _______ _______ _____ _____    ______ ____
ROOT
ATOM      1  C   UNL     1      45.041   4.240  12.045  0.00  0.00    +0.000 A 
ATOM      2  C   UNL     1      44.885   5.625  11.947  0.00  0.00    +0.000 A 
ATOM      3  C   UNL     1      45.805   6.485  12.568  0.00  0.00    +0.000 A 
ATOM      4  C   UNL     1      46.884   5.964  13.298  0.00  0.00    +0.000 A 
ATOM      5  C   UNL     1      46.988   4.576  13.442  0.00  0.00    +0.000 A 
ATOM      6  C   UNL     1      46.073   3.725  12.828  0.00  0.00    +0.000 A 
ENDROOT
BRANCH   1   7
ATOM      7  O   UNL     1      44.154   3.456  11.354  0.00  0.00    +0.000 OA
BRANCH   7   8
ATOM      8  C   UNL     1      43.839   3.945  10.040  0.00  0.00    +0.000 C 
BRANCH   8  13
ATOM      9  C   UNL     1      46.251   1.846   7.975  0.00  0.00    +0.000 A 
ATOM     10  C   UNL     1      46.959   2.835   7.282  0.00  0.00    +0.000 A 
ATOM     11  C   UNL     1      46.658   4.181   7.480  0.00  0.00    +0.000 A 
ATOM     12  C   UNL     1      45.652   4.552   8.376  0.00  0.00    +0.000 A 
ATOM     13  C   UNL     1      44.944   3.573   9.087  0.00  0.00    +0.000 A 
ATOM     14  C   UNL     1      45.241   2.220   8.870  0.00  0.00    +0.000 A 
BRANCH   9  16
ATOM     15  N   UNL     1      46.798  -0.660   7.611  0.00  0.00    +0.000 NA
ATOM     16  C   UNL     1      46.554   0.460   7.773  0.00  0.00    +0.000 C 
ENDBRANCH   9  16
ENDBRANCH   8  13
ENDBRANCH   7   8
ENDBRANCH   1   7
BRANCH   4  17
ATOM     17  C   UNL     1      47.927   6.843  13.937  0.00  0.00    +0.000 C 
BRANCH  17  18
ATOM     18  N   UNL     1      47.922   6.744  15.375  0.00  0.00    +0.000 N 
ATOM     19  C   UNL     1      49.092   6.546  16.064  0.00  0.00    +0.000 C 
ATOM     20  O   UNL     1      50.177   6.464  15.494  0.00  0.00    +0.000 OA
ATOM     21  H   UNL     1      47.037   6.538  15.830  0.00  0.00    +0.000 HD
BRANCH  19  22
ATOM     22  C   UNL     1      48.996   6.493  17.528  0.00  0.00    +0.000 A 
ATOM     23  C   UNL     1      49.475   5.379  18.206  0.00  0.00    +0.000 A 
ATOM     24  S   UNL     1      49.278   5.472  19.898  0.00  0.00    +0.000 S 
ATOM     25  C   UNL     1      48.513   6.987  19.780  0.00  0.00    +0.000 A 
ATOM     26  N   UNL     1      48.038   7.619  20.887  0.00  0.00    +0.000 NA
ATOM     27  C   UNL     1      47.464   8.751  20.648  0.00  0.00    +0.000 A 
ATOM     28  N   UNL     1      47.336   9.316  19.405  0.00  0.00    +0.000 N 
ATOM     29  C   UNL     1      47.839   8.735  18.266  0.00  0.00    +0.000 A 
ATOM     30  O   UNL     1      47.781   9.302  17.179  0.00  0.00    +0.000 OA
ATOM     31  C   UNL     1      48.453   7.438  18.473  0.00  0.00    +0.000 A 
ATOM     32  H   UNL     1      46.904  10.221  19.292  0.00  0.00    +0.000 HD
ENDBRANCH  19  22
ENDBRANCH  17  18
ENDBRANCH   4  17
TORSDOF 7
ENDMDL
MODEL 3
REMARK VINA RESULT:    -7.677      1.843      2.007
REMARK INTER + INTRA:         -11.803
REMARK INTER:                 -10.435
REMARK INTRA:                  -1.368
REMARK UNBOUND:                -0.984
REMARK  Name = 
REMARK  7 active torsions:
REMARK  status: ('A' for Active; 'I' for Inactive)
REMARK    1  A    between atoms: C_2  and  C_3
REMARK    2  A    between atoms: C_7  and  C_8
REMARK    3  A    between atoms: C_8  and  O_9
REMARK    4  A    between atoms: O_9  and  C_10
REMARK    5  A    between atoms: C_13  and  C_14
REMARK    6  A    between atoms: C_14  and  N_15
REMARK    7  A    between atoms: C_16  and  C_18
REMARK                            x       y       z     vdW  Elec       q    Type
REMARK                         _______ _______ _______ _____ _____    ______ ____
ROOT
ATOM      1  C   UNL     1      45.085   4.329  12.414  0.00  0.00    +0.000 A 
ATOM      2  C   UNL     1      44.615   5.643  12.377  0.00  0.00    +0.000 A 
ATOM      3  C   UNL     1      45.429   6.697  12.826  0.00  0.00    +0.000 A 
ATOM      4  C   UNL     1      46.715   6.439  13.323  0.00  0.00    +0.000 A 
ATOM      5  C   UNL     1      47.144   5.111  13.415  0.00  0.00    +0.000 A 
ATOM      6  C   UNL     1      46.336   4.068  12.972  0.00  0.00    +0.000 A 
ENDROOT
BRANCH   1   7
ATOM      7  O   UNL     1      44.273   3.355  11.892  0.00  0.00    +0.000 OA
BRANCH   7   8
ATOM      8  C   UNL     1      43.712   3.684  10.611  0.00  0.00    +0.000 C 
BRANCH   8  13
ATOM      9  C   UNL     1      46.086   1.955   8.190  0.00  0.00    +0.000 A 
ATOM     10  C   UNL     1      46.641   3.048   7.514  0.00  0.00    +0.000 A 
ATOM     11  C   UNL     1      46.249   4.345   7.839  0.00  0.00    +0.000 A 
ATOM     12  C   UNL     1      45.305   4.563   8.845  0.00  0.00    +0.000 A 
ATOM     13  C   UNL     1      44.751   3.478   9.540  0.00  0.00    +0.000 A 
ATOM     14  C   UNL     1      45.136   2.175   9.196  0.00  0.00    +0.000 A 
BRANCH   9  16
ATOM     15  N   UNL     1      46.803  -0.461   7.588  0.00  0.00    +0.000 NA
ATOM     16  C   UNL     1      46.482   0.619   7.857  0.00  0.00    +0.000 C 
ENDBRANCH   9  16
ENDBRANCH   8  13
ENDBRANCH   7   8
ENDBRANCH   1   7
BRANCH   4  17
ATOM     17  C   UNL     1      47.645   7.539  13.765  0.00  0.00    +0.000 C 
BRANCH  17  18
ATOM     18  N   UNL     1      48.805   7.031  14.454  0.00  0.00    +0.000 N 
ATOM     19  C   UNL     1      49.226   7.607  15.627  0.00  0.00    +0.000 C 
ATOM     20  O   UNL     1      48.632   8.552  16.138  0.00  0.00    +0.000 OA
ATOM     21  H   UNL     1      49.450   6.450  13.927  0.00  0.00    +0.000 HD
BRANCH  19  22
ATOM     22  C   UNL     1      50.394   7.002  16.278  0.00  0.00    +0.000 A 
ATOM     23  C   UNL     1      51.583   7.716  16.354  0.00  0.00    +0.000 A 
ATOM     24  S   UNL     1      52.843   6.867  17.130  0.00  0.00    +0.000 S 
ATOM     25  C   UNL     1      51.854   5.502  17.358  0.00  0.00    +0.000 A 
ATOM     26  N   UNL     1      52.344   4.372  17.936  0.00  0.00    +0.000 NA
ATOM     27  C   UNL     1      51.491   3.408  18.028  0.00  0.00    +0.000 A 
ATOM     28  N   UNL     1      50.186   3.475  17.610  0.00  0.00    +0.000 N 
ATOM     29  C   UNL     1      49.636   4.610  17.062  0.00  0.00    +0.000 A 
ATOM     30  O   UNL     1      48.446   4.668  16.772  0.00  0.00    +0.000 OA
ATOM     31  C   UNL     1      50.567   5.708  16.893  0.00  0.00    +0.000 A 
ATOM     32  H   UNL     1      49.562   2.694  17.741  0.00  0.00    +0.000 HD
ENDBRANCH  19  22
ENDBRANCH  17  18
ENDBRANCH   4  17
TORSDOF 7
ENDMDL
MODEL 4
REMARK VINA RESULT:    -7.434      3.126      8.743
REMARK INTER + INTRA:         -11.460
REMARK INTER:                  -9.949
REMARK INTRA:                  -1.511
REMARK UNBOUND:                -0.984
REMARK  Name = 
REMARK  7 active torsions:
REMARK  status: ('A' for Active; 'I' for Inactive)
REMARK    1  A    between atoms: C_2  and  C_3
REMARK    2  A    between atoms: C_7  and  C_8
REMARK    3  A    between atoms: C_8  and  O_9
REMARK    4  A    between atoms: O_9  and  C_10
REMARK    5  A    between atoms: C_13  and  C_14
REMARK    6  A    between atoms: C_14  and  N_15
REMARK    7  A    between atoms: C_16  and  C_18
REMARK                            x       y       z     vdW  Elec       q    Type
REMARK                         _______ _______ _______ _____ _____    ______ ____
ROOT
ATOM      1  C   UNL     1      49.510   8.442  15.851  0.00  0.00    +0.000 A 
ATOM      2  C   UNL     1      48.229   8.892  15.525  0.00  0.00    +0.000 A 
ATOM      3  C   UNL     1      47.729   8.718  14.224  0.00  0.00    +0.000 A 
ATOM      4  C   UNL     1      48.513   8.100  13.238  0.00  0.00    +0.000 A 
ATOM      5  C   UNL     1      49.818   7.715  13.564  0.00  0.00    +0.000 A 
ATOM      6  C   UNL     1      50.313   7.890  14.854  0.00  0.00    +0.000 A 
ENDROOT
BRANCH   1   7
ATOM      7  O   UNL     1      49.910   8.572  17.156  0.00  0.00    +0.000 OA
BRANCH   7   8
ATOM      8  C   UNL     1      50.502   7.386  17.709  0.00  0.00    +0.000 C 
BRANCH   8  13
ATOM      9  C   UNL     1      48.752   4.028  17.326  0.00  0.00    +0.000 A 
ATOM     10  C   UNL     1      47.564   4.249  18.033  0.00  0.00    +0.000 A 
ATOM     11  C   UNL     1      47.327   5.483  18.635  0.00  0.00    +0.000 A 
ATOM     12  C   UNL     1      48.270   6.509  18.532  0.00  0.00    +0.000 A 
ATOM     13  C   UNL     1      49.458   6.306  17.815  0.00  0.00    +0.000 A 
ATOM     14  C   UNL     1      49.698   5.056  17.227  0.00  0.00    +0.000 A 
BRANCH   9  16
ATOM     15  N   UNL     1      49.207   1.735  16.209  0.00  0.00    +0.000 NA
ATOM     16  C   UNL     1      49.003   2.760  16.708  0.00  0.00    +0.000 C 
ENDBRANCH   9  16
ENDBRANCH   8  13
ENDBRANCH   7   8
ENDBRANCH   1   7
BRANCH   4  17
ATOM     17  C   UNL     1      48.004   7.843  11.844  0.00  0.00    +0.000 C 
BRANCH  17  18
ATOM     18  N   UNL     1      47.198   6.651  11.767  0.00  0.00    +0.000 N 
ATOM     19  C   UNL     1      45.827   6.735  11.757  0.00  0.00    +0.000 C 
ATOM     20  O   UNL     1      45.242   7.814  11.794  0.00  0.00    +0.000 OA
ATOM     21  H   UNL     1      47.638   5.767  12.006  0.00  0.00    +0.000 HD
BRANCH  19  22
ATOM     22  C   UNL     1      45.088   5.473  11.640  0.00  0.00    +0.000 A 
ATOM     23  C   UNL     1      44.349   5.009  12.721  0.00  0.00    +0.000 A 
ATOM     24  S   UNL     1      43.560   3.526  12.425  0.00  0.00    +0.000 S 
ATOM     25  C   UNL     1      44.209   3.433  10.855  0.00  0.00    +0.000 A 
ATOM     26  N   UNL     1      43.960   2.360  10.057  0.00  0.00    +0.000 NA
ATOM     27  C   UNL     1      44.532   2.412   8.901  0.00  0.00    +0.000 A 
ATOM     28  N   UNL     1      45.316   3.448   8.462  0.00  0.00    +0.000 N 
ATOM     29  C   UNL     1      45.558   4.572   9.216  0.00  0.00    +0.000 A 
ATOM     30  O   UNL     1      46.196   5.519   8.767  0.00  0.00    +0.000 OA
ATOM     31  C   UNL     1      44.977   4.542  10.543  0.00  0.00    +0.000 A 
ATOM     32  H   UNL     1      45.707   3.441   7.532  0.00  0.00    +0.000 HD
ENDBRANCH  19  22
ENDBRANCH  17  18
ENDBRANCH   4  17
TORSDOF 7
ENDMDL
MODEL 5
REMARK VINA RESULT:    -7.305      3.547      8.300
REMARK INTER + INTRA:         -11.279
REMARK INTER:                  -9.784
REMARK INTRA:                  -1.494
REMARK UNBOUND:                -0.984
REMARK  Name = 
REMARK  7 active torsions:
REMARK  status: ('A' for Active; 'I' for Inactive)
REMARK    1  A    between atoms: C_2  and  C_3
REMARK    2  A    between atoms: C_7  and  C_8
REMARK    3  A    between atoms: C_8  and  O_9
REMARK    4  A    between atoms: O_9  and  C_10
REMARK    5  A    between atoms: C_13  and  C_14
REMARK    6  A    between atoms: C_14  and  N_15
REMARK    7  A    between atoms: C_16  and  C_18
REMARK                            x       y       z     vdW  Elec       q    Type
REMARK                         _______ _______ _______ _____ _____    ______ ____
ROOT
ATOM      1  C   UNL     1      49.601   7.534  16.222  0.00  0.00    +0.000 A 
ATOM      2  C   UNL     1      48.556   8.460  16.160  0.00  0.00    +0.000 A 
ATOM      3  C   UNL     1      48.010   8.825  14.919  0.00  0.00    +0.000 A 
ATOM      4  C   UNL     1      48.511   8.273  13.731  0.00  0.00    +0.000 A 
ATOM      5  C   UNL     1      49.600   7.398  13.806  0.00  0.00    +0.000 A 
ATOM      6  C   UNL     1      50.143   7.039  15.037  0.00  0.00    +0.000 A 
ENDROOT
BRANCH   1   7
ATOM      7  O   UNL     1      50.040   7.162  17.466  0.00  0.00    +0.000 OA
BRANCH   7   8
ATOM      8  C   UNL     1      49.024   6.572  18.294  0.00  0.00    +0.000 C 
BRANCH   8  13
ATOM      9  C   UNL     1      49.503   2.923  17.324  0.00  0.00    +0.000 A 
ATOM     10  C   UNL     1      48.203   2.558  16.957  0.00  0.00    +0.000 A 
ATOM     11  C   UNL     1      47.169   3.490  17.023  0.00  0.00    +0.000 A 
ATOM     12  C   UNL     1      47.425   4.795  17.450  0.00  0.00    +0.000 A 
ATOM     13  C   UNL     1      48.725   5.178  17.807  0.00  0.00    +0.000 A 
ATOM     14  C   UNL     1      49.758   4.231  17.755  0.00  0.00    +0.000 A 
BRANCH   9  16
ATOM     15  N   UNL     1      51.432   1.196  17.212  0.00  0.00    +0.000 NA
ATOM     16  C   UNL     1      50.570   1.968  17.261  0.00  0.00    +0.000 C 
ENDBRANCH   9  16
ENDBRANCH   8  13
ENDBRANCH   7   8
ENDBRANCH   1   7
BRANCH   4  17
ATOM     17  C   UNL     1      47.923   8.592  12.381  0.00  0.00    +0.000 C 
BRANCH  17  18
ATOM     18  N   UNL     1      47.390   7.424  11.726  0.00  0.00    +0.000 N 
ATOM     19  C   UNL     1      46.052   7.128  11.809  0.00  0.00    +0.000 C 
ATOM     20  O   UNL     1      45.264   7.844  12.422  0.00  0.00    +0.000 OA
ATOM     21  H   UNL     1      48.044   6.694  11.457  0.00  0.00    +0.000 HD
BRANCH  19  22
ATOM     22  C   UNL     1      45.592   5.939  11.082  0.00  0.00    +0.000 A 
ATOM     23  C   UNL     1      45.885   5.806   9.731  0.00  0.00    +0.000 A 
ATOM     24  S   UNL     1      45.270   4.376   9.035  0.00  0.00    +0.000 S 
ATOM     25  C   UNL     1      44.559   3.902  10.506  0.00  0.00    +0.000 A 
ATOM     26  N   UNL     1      43.822   2.762  10.592  0.00  0.00    +0.000 NA
ATOM     27  C   UNL     1      43.325   2.536  11.762  0.00  0.00    +0.000 A 
ATOM     28  N   UNL     1      43.513   3.337  12.859  0.00  0.00    +0.000 N 
ATOM     29  C   UNL     1      44.286   4.473  12.830  0.00  0.00    +0.000 A 
ATOM     30  O   UNL     1      44.502   5.127  13.846  0.00  0.00    +0.000 OA
ATOM     31  C   UNL     1      44.829   4.798  11.526  0.00  0.00    +0.000 A 
ATOM     32  H   UNL     1      43.122   3.085  13.755  0.00  0.00    +0.000 HD
ENDBRANCH  19  22
ENDBRANCH  17  18
ENDBRANCH   4  17
TORSDOF 7
ENDMDL
MODEL 6
REMARK VINA RESULT:    -7.258      1.416      1.988
REMARK INTER + INTRA:         -11.212
REMARK INTER:                 -10.228
REMARK INTRA:                  -0.984
REMARK UNBOUND:                -0.984
REMARK  Name = 
REMARK  7 active torsions:
REMARK  status: ('A' for Active; 'I' for Inactive)
REMARK    1  A    between atoms: C_2  and  C_3
REMARK    2  A    between atoms: C_7  and  C_8
REMARK    3  A    between atoms: C_8  and  O_9
REMARK    4  A    between atoms: O_9  and  C_10
REMARK    5  A    between atoms: C_13  and  C_14
REMARK    6  A    between atoms: C_14  and  N_15
REMARK    7  A    between atoms: C_16  and  C_18
REMARK                            x       y       z     vdW  Elec       q    Type
REMARK                         _______ _______ _______ _____ _____    ______ ____
ROOT
ATOM      1  C   UNL     1      45.534   6.530  11.426  0.00  0.00    +0.000 A 
ATOM      2  C   UNL     1      46.883   6.312  11.715  0.00  0.00    +0.000 A 
ATOM      3  C   UNL     1      47.587   7.219  12.525  0.00  0.00    +0.000 A 
ATOM      4  C   UNL     1      46.946   8.354  13.044  0.00  0.00    +0.000 A 
ATOM      5  C   UNL     1      45.614   8.591  12.690  0.00  0.00    +0.000 A 
ATOM      6  C   UNL     1      44.918   7.693  11.886  0.00  0.00    +0.000 A 
ENDROOT
BRANCH   1   7
ATOM      7  O   UNL     1      44.884   5.571  10.693  0.00  0.00    +0.000 OA
BRANCH   7   8
ATOM      8  C   UNL     1      45.308   5.492   9.323  0.00  0.00    +0.000 C 
BRANCH   8  13
ATOM      9  C   UNL     1      46.573   2.355   7.579  0.00  0.00    +0.000 A 
ATOM     10  C   UNL     1      45.795   1.363   8.187  0.00  0.00    +0.000 A 
ATOM     11  C   UNL     1      44.861   1.706   9.163  0.00  0.00    +0.000 A 
ATOM     12  C   UNL     1      44.691   3.042   9.534  0.00  0.00    +0.000 A 
ATOM     13  C   UNL     1      45.454   4.047   8.923  0.00  0.00    +0.000 A 
ATOM     14  C   UNL     1      46.404   3.693   7.955  0.00  0.00    +0.000 A 
BRANCH   9  16
ATOM     15  N   UNL     1      48.316   1.726   5.768  0.00  0.00    +0.000 NA
ATOM     16  C   UNL     1      47.538   2.007   6.577  0.00  0.00    +0.000 C 
ENDBRANCH   9  16
ENDBRANCH   8  13
ENDBRANCH   7   8
ENDBRANCH   1   7
BRANCH   4  17
ATOM     17  C   UNL     1      47.643   9.326  13.960  0.00  0.00    +0.000 C 
BRANCH  17  18
ATOM     18  N   UNL     1      47.629   8.890  15.334  0.00  0.00    +0.000 N 
ATOM     19  C   UNL     1      48.726   8.270  15.879  0.00  0.00    +0.000 C 
ATOM     20  O   UNL     1      49.754   8.081  15.234  0.00  0.00    +0.000 OA
ATOM     21  H   UNL     1      46.726   8.790  15.788  0.00  0.00    +0.000 HD
BRANCH  19  22
ATOM     22  C   UNL     1      48.636   7.892  17.294  0.00  0.00    +0.000 A 
ATOM     23  C   UNL     1      48.534   8.883  18.263  0.00  0.00    +0.000 A 
ATOM     24  S   UNL     1      48.449   8.276  19.855  0.00  0.00    +0.000 S 
ATOM     25  C   UNL     1      48.583   6.670  19.307  0.00  0.00    +0.000 A 
ATOM     26  N   UNL     1      48.624   5.633  20.186  0.00  0.00    +0.000 NA
ATOM     27  C   UNL     1      48.746   4.472  19.633  0.00  0.00    +0.000 A 
ATOM     28  N   UNL     1      48.815   4.253  18.281  0.00  0.00    +0.000 N 
ATOM     29  C   UNL     1      48.732   5.266  17.356  0.00  0.00    +0.000 A 
ATOM     30  O   UNL     1      48.716   5.033  16.152  0.00  0.00    +0.000 OA
ATOM     31  C   UNL     1      48.641   6.596  17.926  0.00  0.00    +0.000 A 
ATOM     32  H   UNL     1      48.878   3.316  17.914  0.00  0.00    +0.000 HD
ENDBRANCH  19  22
ENDBRANCH  17  18
ENDBRANCH   4  17
TORSDOF 7
ENDMDL
MODEL 7
REMARK VINA RESULT:    -7.092      2.310      2.989
REMARK INTER + INTRA:         -10.977
REMARK INTER:                  -9.483
REMARK INTRA:                  -1.494
REMARK UNBOUND:                -0.984
REMARK  Name = 
REMARK  7 active torsions:
REMARK  status: ('A' for Active; 'I' for Inactive)
REMARK    1  A    between atoms: C_2  and  C_3
REMARK    2  A    between atoms: C_7  and  C_8
REMARK    3  A    between atoms: C_8  and  O_9
REMARK    4  A    between atoms: O_9  and  C_10
REMARK    5  A    between atoms: C_13  and  C_14
REMARK    6  A    between atoms: C_14  and  N_15
REMARK    7  A    between atoms: C_16  and  C_18
REMARK                            x       y       z     vdW  Elec       q    Type
REMARK                         _______ _______ _______ _____ _____    ______ ____
ROOT
ATOM      1  C   UNL     1      44.887   6.211  12.722  0.00  0.00    +0.000 A 
ATOM      2  C   UNL     1      45.137   7.497  12.238  0.00  0.00    +0.000 A 
ATOM      3  C   UNL     1      46.449   7.998  12.212  0.00  0.00    +0.000 A 
ATOM      4  C   UNL     1      47.517   7.217  12.679  0.00  0.00    +0.000 A 
ATOM      5  C   UNL     1      47.240   5.958  13.221  0.00  0.00    +0.000 A 
ATOM      6  C   UNL     1      45.939   5.464  13.248  0.00  0.00    +0.000 A 
ENDROOT
BRANCH   1   7
ATOM      7  O   UNL     1      43.597   5.751  12.650  0.00  0.00    +0.000 OA
BRANCH   7   8
ATOM      8  C   UNL     1      43.081   5.658  11.312  0.00  0.00    +0.000 C 
BRANCH   8  13
ATOM      9  C   UNL     1      45.089   3.578   8.837  0.00  0.00    +0.000 A 
ATOM     10  C   UNL     1      44.890   2.284   9.332  0.00  0.00    +0.000 A 
ATOM     11  C   UNL     1      44.106   2.081  10.466  0.00  0.00    +0.000 A 
ATOM     12  C   UNL     1      43.511   3.167  11.113  0.00  0.00    +0.000 A 
ATOM     13  C   UNL     1      43.691   4.467  10.620  0.00  0.00    +0.000 A 
ATOM     14  C   UNL     1      44.495   4.666   9.488  0.00  0.00    +0.000 A 
BRANCH   9  16
ATOM     15  N   UNL     1      46.549   3.968   6.732  0.00  0.00    +0.000 NA
ATOM     16  C   UNL     1      45.897   3.793   7.672  0.00  0.00    +0.000 C 
ENDBRANCH   9  16
ENDBRANCH   8  13
ENDBRANCH   7   8
ENDBRANCH   1   7
BRANCH   4  17
ATOM     17  C   UNL     1      48.947   7.689  12.623  0.00  0.00    +0.000 C 
BRANCH  17  18
ATOM     18  N   UNL     1      49.759   7.099  13.657  0.00  0.00    +0.000 N 
ATOM     19  C   UNL     1      50.447   7.893  14.541  0.00  0.00    +0.000 C 
ATOM     20  O   UNL     1      50.385   9.119  14.498  0.00  0.00    +0.000 OA
ATOM     21  H   UNL     1      50.036   6.128  13.543  0.00  0.00    +0.000 HD
BRANCH  19  22
ATOM     22  C   UNL     1      51.219   7.206  15.583  0.00  0.00    +0.000 A 
ATOM     23  C   UNL     1      52.583   7.446  15.695  0.00  0.00    +0.000 A 
ATOM     24  S   UNL     1      53.333   6.562  16.947  0.00  0.00    +0.000 S 
ATOM     25  C   UNL     1      51.867   5.802  17.359  0.00  0.00    +0.000 A 
ATOM     26  N   UNL     1      51.818   4.867  18.346  0.00  0.00    +0.000 NA
ATOM     27  C   UNL     1      50.647   4.358  18.539  0.00  0.00    +0.000 A 
ATOM     28  N   UNL     1      49.517   4.711  17.847  0.00  0.00    +0.000 N 
ATOM     29  C   UNL     1      49.511   5.682  16.874  0.00  0.00    +0.000 A 
ATOM     30  O   UNL     1      48.470   6.034  16.328  0.00  0.00    +0.000 OA
ATOM     31  C   UNL     1      50.812   6.252  16.585  0.00  0.00    +0.000 A 
ATOM     32  H   UNL     1      48.625   4.297  18.071  0.00  0.00    +0.000 HD
ENDBRANCH  19  22
ENDBRANCH  17  18
ENDBRANCH   4  17
TORSDOF 7
ENDMDL
MODEL 8
REMARK VINA RESULT:    -7.060      4.804      9.337
REMARK INTER + INTRA:         -10.932
REMARK INTER:                 -10.008
REMARK INTRA:                  -0.925
REMARK UNBOUND:                -0.984
REMARK  Name = 
REMARK  7 active torsions:
REMARK  status: ('A' for Active; 'I' for Inactive)
REMARK    1  A    between atoms: C_2  and  C_3
REMARK    2  A    between atoms: C_7  and  C_8
REMARK    3  A    between atoms: C_8  and  O_9
REMARK    4  A    between atoms: O_9  and  C_10
REMARK    5  A    between atoms: C_13  and  C_14
REMARK    6  A    between atoms: C_14  and  N_15
REMARK    7  A    between atoms: C_16  and  C_18
REMARK                            x       y       z     vdW  Elec       q    Type
REMARK                         _______ _______ _______ _____ _____    ______ ____
ROOT
ATOM      1  C   UNL     1      51.424   3.801  17.621  0.00  0.00    +0.000 A 
ATOM      2  C   UNL     1      50.691   4.967  17.391  0.00  0.00    +0.000 A 
ATOM      3  C   UNL     1      49.321   4.892  17.090  0.00  0.00    +0.000 A 
ATOM      4  C   UNL     1      48.679   3.647  17.008  0.00  0.00    +0.000 A 
ATOM      5  C   UNL     1      49.442   2.487  17.176  0.00  0.00    +0.000 A 
ATOM      6  C   UNL     1      50.800   2.563  17.473  0.00  0.00    +0.000 A 
ENDROOT
BRANCH   1   7
ATOM      7  O   UNL     1      52.738   3.945  17.985  0.00  0.00    +0.000 OA
BRANCH   7   8
ATOM      8  C   UNL     1      53.247   2.866  18.785  0.00  0.00    +0.000 C 
BRANCH   8  13
ATOM      9  C   UNL     1      54.924  -0.233  17.345  0.00  0.00    +0.000 A 
ATOM     10  C   UNL     1      55.751   0.328  16.365  0.00  0.00    +0.000 A 
ATOM     11  C   UNL     1      55.767   1.707  16.166  0.00  0.00    +0.000 A 
ATOM     12  C   UNL     1      54.964   2.539  16.949  0.00  0.00    +0.000 A 
ATOM     13  C   UNL     1      54.141   1.993  17.944  0.00  0.00    +0.000 A 
ATOM     14  C   UNL     1      54.117   0.603  18.127  0.00  0.00    +0.000 A 
BRANCH   9  16
ATOM     15  N   UNL     1      54.883  -2.796  17.718  0.00  0.00    +0.000 NA
ATOM     16  C   UNL     1      54.901  -1.650  17.552  0.00  0.00    +0.000 C 
ENDBRANCH   9  16
ENDBRANCH   8  13
ENDBRANCH   7   8
ENDBRANCH   1   7
BRANCH   4  17
ATOM     17  C   UNL     1      47.202   3.516  16.742  0.00  0.00    +0.000 C 
BRANCH  17  18
ATOM     18  N   UNL     1      46.731   4.483  15.783  0.00  0.00    +0.000 N 
ATOM     19  C   UNL     1      46.820   4.231  14.436  0.00  0.00    +0.000 C 
ATOM     20  O   UNL     1      47.282   3.179  14.001  0.00  0.00    +0.000 OA
ATOM     21  H   UNL     1      46.605   5.440  16.100  0.00  0.00    +0.000 HD
BRANCH  19  22
ATOM     22  C   UNL     1      46.283   5.256  13.534  0.00  0.00    +0.000 A 
ATOM     23  C   UNL     1      47.026   6.402  13.279  0.00  0.00    +0.000 A 
ATOM     24  S   UNL     1      46.256   7.495  12.220  0.00  0.00    +0.000 S 
ATOM     25  C   UNL     1      44.887   6.493  12.095  0.00  0.00    +0.000 A 
ATOM     26  N   UNL     1      43.807   6.872  11.360  0.00  0.00    +0.000 NA
ATOM     27  C   UNL     1      42.833   6.025  11.370  0.00  0.00    +0.000 A 
ATOM     28  N   UNL     1      42.845   4.826  12.034  0.00  0.00    +0.000 N 
ATOM     29  C   UNL     1      43.931   4.382  12.752  0.00  0.00    +0.000 A 
ATOM     30  O   UNL     1      43.944   3.269  13.269  0.00  0.00    +0.000 OA
ATOM     31  C   UNL     1      45.036   5.318  12.812  0.00  0.00    +0.000 A 
ATOM     32  H   UNL     1      42.061   4.194  11.973  0.00  0.00    +0.000 HD
ENDBRANCH  19  22
ENDBRANCH  17  18
ENDBRANCH   4  17
TORSDOF 7
ENDMDL
MODEL 9
REMARK VINA RESULT:    -6.883      5.024      8.276
REMARK INTER + INTRA:         -10.683
REMARK INTER:                  -9.538
REMARK INTRA:                  -1.145
REMARK UNBOUND:                -0.984
REMARK  Name = 
REMARK  7 active torsions:
REMARK  status: ('A' for Active; 'I' for Inactive)
REMARK    1  A    between atoms: C_2  and  C_3
REMARK    2  A    between atoms: C_7  and  C_8
REMARK    3  A    between atoms: C_8  and  O_9
REMARK    4  A    between atoms: O_9  and  C_10
REMARK    5  A    between atoms: C_13  and  C_14
REMARK    6  A    between atoms: C_14  and  N_15
REMARK    7  A    between atoms: C_16  and  C_18
REMARK                            x       y       z     vdW  Elec       q    Type
REMARK                         _______ _______ _______ _____ _____    ______ ____
ROOT
ATOM      1  C   UNL     1      50.334   8.984  11.479  0.00  0.00    +0.000 A 
ATOM      2  C   UNL     1      49.443  10.048  11.644  0.00  0.00    +0.000 A 
ATOM      3  C   UNL     1      48.115   9.802  12.029  0.00  0.00    +0.000 A 
ATOM      4  C   UNL     1      47.668   8.489  12.244  0.00  0.00    +0.000 A 
ATOM      5  C   UNL     1      48.555   7.433  12.010  0.00  0.00    +0.000 A 
ATOM      6  C   UNL     1      49.871   7.678  11.626  0.00  0.00    +0.000 A 
ENDROOT
BRANCH   1   7
ATOM      7  O   UNL     1      51.635   9.295  11.176  0.00  0.00    +0.000 OA
BRANCH   7   8
ATOM      8  C   UNL     1      52.473   8.150  10.948  0.00  0.00    +0.000 C 
BRANCH   8  13
ATOM      9  C   UNL     1      53.058   6.569   7.536  0.00  0.00    +0.000 A 
ATOM     10  C   UNL     1      53.187   7.700   6.722  0.00  0.00    +0.000 A 
ATOM     11  C   UNL     1      53.085   8.976   7.274  0.00  0.00    +0.000 A 
ATOM     12  C   UNL     1      52.859   9.133   8.643  0.00  0.00    +0.000 A 
ATOM     13  C   UNL     1      52.741   8.009   9.472  0.00  0.00    +0.000 A 
ATOM     14  C   UNL     1      52.828   6.728   8.908  0.00  0.00    +0.000 A 
BRANCH   9  16
ATOM     15  N   UNL     1      53.239   4.193   6.519  0.00  0.00    +0.000 NA
ATOM     16  C   UNL     1      53.159   5.255   6.973  0.00  0.00    +0.000 C 
ENDBRANCH   9  16
ENDBRANCH   8  13
ENDBRANCH   7   8
ENDBRANCH   1   7
BRANCH   4  17
ATOM     17  C   UNL     1      46.270   8.178  12.709  0.00  0.00    +0.000 C 
BRANCH  17  18
ATOM     18  N   UNL     1      45.875   6.829  12.393  0.00  0.00    +0.000 N 
ATOM     19  C   UNL     1      44.749   6.589  11.645  0.00  0.00    +0.000 C 
ATOM     20  O   UNL     1      44.053   7.501  11.207  0.00  0.00    +0.000 OA
ATOM     21  H   UNL     1      46.265   6.078  12.956  0.00  0.00    +0.000 HD
BRANCH  19  22
ATOM     22  C   UNL     1      44.443   5.186  11.341  0.00  0.00    +0.000 A 
ATOM     23  C   UNL     1      43.657   4.450  12.219  0.00  0.00    +0.000 A 
ATOM     24  S   UNL     1      43.406   2.837  11.725  0.00  0.00    +0.000 S 
ATOM     25  C   UNL     1      44.370   3.055  10.340  0.00  0.00    +0.000 A 
ATOM     26  N   UNL     1      44.611   2.024   9.487  0.00  0.00    +0.000 NA
ATOM     27  C   UNL     1      45.374   2.326   8.489  0.00  0.00    +0.000 A 
ATOM     28  N   UNL     1      45.903   3.570   8.258  0.00  0.00    +0.000 N 
ATOM     29  C   UNL     1      45.649   4.651   9.068  0.00  0.00    +0.000 A 
ATOM     30  O   UNL     1      46.070   5.770   8.792  0.00  0.00    +0.000 OA
ATOM     31  C   UNL     1      44.836   4.354  10.230  0.00  0.00    +0.000 A 
ATOM     32  H   UNL     1      46.466   3.746   7.440  0.00  0.00    +0.000 HD
ENDBRANCH  19  22
ENDBRANCH  17  18
ENDBRANCH   4  17
TORSDOF 7
ENDMDL
