MODEL 1
REMARK VINA RESULT:    -7.901      0.000      0.000
REMARK INTER + INTRA:         -12.658
REMARK INTER:                 -11.596
REMARK INTRA:                  -1.063
REMARK UNBOUND:                -1.063
REMARK  Name = 
REMARK  10 active torsions:
REMARK  status: ('A' for Active; 'I' for Inactive)
REMARK    1  A    between atoms: C_1  and  C_2
REMARK    2  A    between atoms: C_2  and  N_3
REMARK    3  A    between atoms: C_2  and  C_20
REMARK    4  A    between atoms: N_3  and  C_4
REMARK    5  A    between atoms: C_4  and  C_5
REMARK    6  A    between atoms: C_8  and  C_9
REMARK    7  A    between atoms: C_9  and  N_10
REMARK    8  A    between atoms: N_10  and  C_11
REMARK    9  A    between atoms: C_11  and  C_12
REMARK   10  A    between atoms: N_15  and  C_16
REMARK                            x       y       z     vdW  Elec       q    Type
REMARK                         _______ _______ _______ _____ _____    ______ ____
ROOT
ATOM      1  C   UNL     1      47.898   5.557  14.712  0.00  0.00    +0.000 C 
ENDROOT
BRANCH   1   2
ATOM      2  C   UNL     1      46.823   5.256  13.686  0.00  0.00    +0.000 A 
ATOM      3  C   UNL     1      46.162   6.295  13.014  0.00  0.00    +0.000 A 
ATOM      4  C   UNL     1      45.154   6.021  12.088  0.00  0.00    +0.000 A 
ATOM      5  C   UNL     1      44.793   4.699  11.793  0.00  0.00    +0.000 A 
ATOM      6  C   UNL     1      45.455   3.659  12.460  0.00  0.00    +0.000 A 
ATOM      7  C   UNL     1      46.456   3.934  13.398  0.00  0.00    +0.000 A 
BRANCH   5   8
ATOM      8  C   UNL     1      43.693   4.409  10.796  0.00  0.00    +0.000 C 
BRANCH   8   9
ATOM      9  N   UNL     1      44.024   4.924   9.462  0.00  0.00    +0.000 NA
ATOM     10  H   UNL     1      44.884   5.469   9.537  0.00  0.00    +0.000 HD
BRANCH   9  11
ATOM     11  C   UNL     1      44.211   3.828   8.511  0.00  0.00    +0.000 C 
BRANCH  11  12
ATOM     12  C   UNL     1      45.663   3.336   8.468  0.00  0.00    +0.000 C 
ATOM     13  C   UNL     1      45.766   1.826   8.743  0.00  0.00    +0.000 C 
ATOM     14  C   UNL     1      46.615   1.269   7.610  0.00  0.00    +0.000 C 
ATOM     15  N   UNL     1      47.374   2.439   7.177  0.00  0.00    +0.000 NA
ATOM     16  C   UNL     1      48.060   2.221   5.913  0.00  0.00    +0.000 C 
ATOM     17  C   UNL     1      46.382   3.521   7.129  0.00  0.00    +0.000 C 
ENDBRANCH  11  12
ENDBRANCH   9  11
ENDBRANCH   8   9
ENDBRANCH   5   8
ENDBRANCH   1   2
BRANCH   1  18
ATOM     18  N   UNL     1      47.443   5.186  16.047  0.00  0.00    +0.000 NA
ATOM     19  H   UNL     1      47.730   5.918  16.695  0.00  0.00    +0.000 HD
BRANCH  18  21
ATOM     20  C   UNL     1      46.950   3.121  17.366  0.00  0.00    +0.000 C 
ATOM     21  C   UNL     1      47.975   3.912  16.549  0.00  0.00    +0.000 C 
BRANCH  21  22
ATOM     22  C   UNL     1      49.184   4.263  17.403  0.00  0.00    +0.000 A 
ATOM     23  C   UNL     1      49.308   5.424  18.157  0.00  0.00    +0.000 A 
ATOM     24  S   UNL     1      50.805   5.562  18.958  0.00  0.00    +0.000 S 
ATOM     25  C   UNL     1      51.325   4.054  18.365  0.00  0.00    +0.000 A 
ATOM     26  N   UNL     1      52.550   3.560  18.683  0.00  0.00    +0.000 NA
ATOM     27  C   UNL     1      52.800   2.398  18.181  0.00  0.00    +0.000 A 
ATOM     28  N   UNL     1      51.937   1.682  17.389  0.00  0.00    +0.000 N 
ATOM     29  C   UNL     1      50.687   2.142  17.031  0.00  0.00    +0.000 A 
ATOM     30  O   UNL     1      49.934   1.479  16.329  0.00  0.00    +0.000 OA
ATOM     31  C   UNL     1      50.369   3.453  17.571  0.00  0.00    +0.000 A 
ATOM     32  H   UNL     1      52.191   0.770  17.041  0.00  0.00    +0.000 HD
ENDBRANCH  21  22
ENDBRANCH  18  21
ENDBRANCH   1  18
TORSDOF 8
ENDMDL
MODEL 2
REMARK VINA RESULT:    -7.312      2.205      2.965
REMARK INTER + INTRA:         -11.794
REMARK INTER:                 -10.389
REMARK INTRA:                  -1.404
REMARK UNBOUND:                -1.063
REMARK  Name = 
REMARK  10 active torsions:
REMARK  status: ('A' for Active; 'I' for Inactive)
REMARK    1  A    between atoms: C_1  and  C_2
REMARK    2  A    between atoms: C_2  and  N_3
REMARK    3  A    between atoms: C_2  and  C_20
REMARK    4  A    between atoms: N_3  and  C_4
REMARK    5  A    between atoms: C_4  and  C_5
REMARK    6  A    between atoms: C_8  and  C_9
REMARK    7  A    between atoms: C_9  and  N_10
REMARK    8  A    between atoms: N_10  and  C_11
REMARK    9  A    between atoms: C_11  and  C_12
REMARK   10  A    between atoms: N_15  and  C_16
REMARK                            x       y       z     vdW  Elec       q    Type
REMARK                         _______ _______ _______ _____ _____    ______ ____
ROOT
ATOM      1  C   UNL     1      48.553   7.093  12.628  0.00  0.00    +0.000 C 
ENDROOT
BRANCH   1   2
ATOM      2  C   UNL     1      47.252   6.326  12.493  0.00  0.00    +0.000 A 
ATOM      3  C   UNL     1      46.984   5.219  13.313  0.00  0.00    +0.000 A 
ATOM      4  C   UNL     1      45.798   4.495  13.173  0.00  0.00    +0.000 A 
ATOM      5  C   UNL     1      44.837   4.872  12.225  0.00  0.00    +0.000 A 
ATOM      6  C   UNL     1      45.100   5.981  11.408  0.00  0.00    +0.000 A 
ATOM      7  C   UNL     1      46.295   6.697  11.539  0.00  0.00    +0.000 A 
BRANCH   5   8
ATOM      8  C   UNL     1      43.559   4.077  12.072  0.00  0.00    +0.000 C 
BRANCH   8   9
ATOM      9  N   UNL     1      43.349   3.657  10.681  0.00  0.00    +0.000 NA
ATOM     10  H   UNL     1      43.550   4.453  10.075  0.00  0.00    +0.000 HD
BRANCH   9  11
ATOM     11  C   UNL     1      44.225   2.537  10.336  0.00  0.00    +0.000 C 
BRANCH  11  12
ATOM     12  C   UNL     1      44.631   2.548   8.857  0.00  0.00    +0.000 C 
ATOM     13  C   UNL     1      44.957   3.969   8.363  0.00  0.00    +0.000 C 
ATOM     14  C   UNL     1      46.313   3.854   7.682  0.00  0.00    +0.000 C 
ATOM     15  N   UNL     1      46.367   2.440   7.316  0.00  0.00    +0.000 NA
ATOM     16  C   UNL     1      47.695   2.025   6.895  0.00  0.00    +0.000 C 
ATOM     17  C   UNL     1      45.881   1.736   8.510  0.00  0.00    +0.000 C 
ENDBRANCH  11  12
ENDBRANCH   9  11
ENDBRANCH   8   9
ENDBRANCH   5   8
ENDBRANCH   1   2
BRANCH   1  18
ATOM     18  N   UNL     1      49.304   6.617  13.784  0.00  0.00    +0.000 NA
ATOM     19  H   UNL     1      48.757   5.886  14.237  0.00  0.00    +0.000 HD
BRANCH  18  21
ATOM     20  C   UNL     1      50.013   8.981  14.177  0.00  0.00    +0.000 C 
ATOM     21  C   UNL     1      49.600   7.642  14.793  0.00  0.00    +0.000 C 
BRANCH  21  22
ATOM     22  C   UNL     1      50.723   7.081  15.654  0.00  0.00    +0.000 A 
ATOM     23  C   UNL     1      52.036   7.535  15.631  0.00  0.00    +0.000 A 
ATOM     24  S   UNL     1      53.077   6.666  16.663  0.00  0.00    +0.000 S 
ATOM     25  C   UNL     1      51.802   5.683  17.213  0.00  0.00    +0.000 A 
ATOM     26  N   UNL     1      52.016   4.707  18.135  0.00  0.00    +0.000 NA
ATOM     27  C   UNL     1      50.955   4.056  18.474  0.00  0.00    +0.000 A 
ATOM     28  N   UNL     1      49.696   4.291  17.977  0.00  0.00    +0.000 N 
ATOM     29  C   UNL     1      49.428   5.262  17.035  0.00  0.00    +0.000 A 
ATOM     30  O   UNL     1      48.294   5.455  16.615  0.00  0.00    +0.000 OA
ATOM     31  C   UNL     1      50.600   6.014  16.620  0.00  0.00    +0.000 A 
ATOM     32  H   UNL     1      48.905   3.752  18.298  0.00  0.00    +0.000 HD
ENDBRANCH  21  22
ENDBRANCH  18  21
ENDBRANCH   1  18
TORSDOF 8
ENDMDL
MODEL 3
REMARK VINA RESULT:    -6.948      2.924      3.891
REMARK INTER + INTRA:         -11.261
REMARK INTER:                 -10.033
REMARK INTRA:                  -1.227
REMARK UNBOUND:                -1.063
REMARK  Name = 
REMARK  10 active torsions:
REMARK  status: ('A' for Active; 'I' for Inactive)
REMARK    1  A    between atoms: C_1  and  C_2
REMARK    2  A    between atoms: C_2  and  N_3
REMARK    3  A    between atoms: C_2  and  C_20
REMARK    4  A    between atoms: N_3  and  C_4
REMARK    5  A    between atoms: C_4  and  C_5
REMARK    6  A    between atoms: C_8  and  C_9
REMARK    7  A    between atoms: C_9  and  N_10
REMARK    8  A    between atoms: N_10  and  C_11
REMARK    9  A    between atoms: C_11  and  C_12
REMARK   10  A    between atoms: N_15  and  C_16
REMARK                            x       y       z     vdW  Elec       q    Type
REMARK                         _______ _______ _______ _____ _____    ______ ____
ROOT
ATOM      1  C   UNL     1      48.079   7.140  13.512  0.00  0.00    +0.000 C 
ENDROOT
BRANCH   1   2
ATOM      2  C   UNL     1      46.872   6.295  13.153  0.00  0.00    +0.000 A 
ATOM      3  C   UNL     1      46.773   4.965  13.590  0.00  0.00    +0.000 A 
ATOM      4  C   UNL     1      45.674   4.178  13.240  0.00  0.00    +0.000 A 
ATOM      5  C   UNL     1      44.634   4.705  12.462  0.00  0.00    +0.000 A 
ATOM      6  C   UNL     1      44.729   6.035  12.029  0.00  0.00    +0.000 A 
ATOM      7  C   UNL     1      45.837   6.819  12.367  0.00  0.00    +0.000 A 
BRANCH   5   8
ATOM      8  C   UNL     1      43.452   3.843  12.077  0.00  0.00    +0.000 C 
BRANCH   8   9
ATOM      9  N   UNL     1      43.422   3.583  10.633  0.00  0.00    +0.000 NA
ATOM     10  H   UNL     1      43.638   4.455  10.149  0.00  0.00    +0.000 HD
BRANCH   9  11
ATOM     11  C   UNL     1      44.398   2.556  10.266  0.00  0.00    +0.000 C 
BRANCH  11  12
ATOM     12  C   UNL     1      44.774   2.614   8.781  0.00  0.00    +0.000 C 
ATOM     13  C   UNL     1      45.140   4.041   8.337  0.00  0.00    +0.000 C 
ATOM     14  C   UNL     1      46.478   3.908   7.623  0.00  0.00    +0.000 C 
ATOM     15  N   UNL     1      46.475   2.509   7.201  0.00  0.00    +0.000 NA
ATOM     16  C   UNL     1      47.780   2.066   6.736  0.00  0.00    +0.000 C 
ATOM     17  C   UNL     1      45.989   1.775   8.376  0.00  0.00    +0.000 C 
ENDBRANCH  11  12
ENDBRANCH   9  11
ENDBRANCH   8   9
ENDBRANCH   5   8
ENDBRANCH   1   2
BRANCH   1  18
ATOM     18  N   UNL     1      47.892   7.762  14.818  0.00  0.00    +0.000 NA
ATOM     19  H   UNL     1      47.625   8.734  14.670  0.00  0.00    +0.000 HD
BRANCH  18  21
ATOM     20  C   UNL     1      50.361   7.396  14.929  0.00  0.00    +0.000 C 
ATOM     21  C   UNL     1      49.077   7.751  15.683  0.00  0.00    +0.000 C 
BRANCH  21  22
ATOM     22  C   UNL     1      48.799   6.727  16.775  0.00  0.00    +0.000 A 
ATOM     23  C   UNL     1      48.947   5.353  16.624  0.00  0.00    +0.000 A 
ATOM     24  S   UNL     1      48.498   4.463  18.006  0.00  0.00    +0.000 S 
ATOM     25  C   UNL     1      48.133   5.882  18.871  0.00  0.00    +0.000 A 
ATOM     26  N   UNL     1      47.686   5.826  20.153  0.00  0.00    +0.000 NA
ATOM     27  C   UNL     1      47.471   6.980  20.690  0.00  0.00    +0.000 A 
ATOM     28  N   UNL     1      47.663   8.186  20.064  0.00  0.00    +0.000 N 
ATOM     29  C   UNL     1      48.107   8.296  18.763  0.00  0.00    +0.000 A 
ATOM     30  O   UNL     1      48.277   9.387  18.231  0.00  0.00    +0.000 OA
ATOM     31  C   UNL     1      48.354   7.018  18.118  0.00  0.00    +0.000 A 
ATOM     32  H   UNL     1      47.490   9.054  20.549  0.00  0.00    +0.000 HD
ENDBRANCH  21  22
ENDBRANCH  18  21
ENDBRANCH   1  18
TORSDOF 8
ENDMDL
MODEL 4
REMARK VINA RESULT:    -6.912      1.652      2.421
REMARK INTER + INTRA:         -11.207
REMARK INTER:                 -10.037
REMARK INTRA:                  -1.171
REMARK UNBOUND:                -1.063
REMARK  Name = 
REMARK  10 active torsions:
REMARK  status: ('A' for Active; 'I' for Inactive)
REMARK    1  A    between atoms: C_1  and  C_2
REMARK    2  A    between atoms: C_2  and  N_3
REMARK    3  A    between atoms: C_2  and  C_20
REMARK    4  A    between atoms: N_3  and  C_4
REMARK    5  A    between atoms: C_4  and  C_5
REMARK    6  A    between atoms: C_8  and  C_9
REMARK    7  A    between atoms: C_9  and  N_10
REMARK    8  A    between atoms: N_10  and  C_11
REMARK    9  A    between atoms: C_11  and  C_12
REMARK   10  A    between atoms: N_15  and  C_16
REMARK                            x       y       z     vdW  Elec       q    Type
REMARK                         _______ _______ _______ _____ _____    ______ ____
ROOT
ATOM      1  C   UNL     1      49.149   7.134  15.297  0.00  0.00    +0.000 C 
ENDROOT
BRANCH   1   2
ATOM      2  C   UNL     1      47.989   7.089  14.322  0.00  0.00    +0.000 A 
ATOM      3  C   UNL     1      47.492   5.863  13.855  0.00  0.00    +0.000 A 
ATOM      4  C   UNL     1      46.440   5.820  12.937  0.00  0.00    +0.000 A 
ATOM      5  C   UNL     1      45.841   7.001  12.479  0.00  0.00    +0.000 A 
ATOM      6  C   UNL     1      46.333   8.227  12.948  0.00  0.00    +0.000 A 
ATOM      7  C   UNL     1      47.396   8.271  13.856  0.00  0.00    +0.000 A 
BRANCH   5   8
ATOM      8  C   UNL     1      44.709   6.947  11.477  0.00  0.00    +0.000 C 
BRANCH   8   9
ATOM      9  N   UNL     1      43.728   5.913  11.828  0.00  0.00    +0.000 NA
ATOM     10  H   UNL     1      42.880   6.379  12.155  0.00  0.00    +0.000 HD
BRANCH   9  11
ATOM     11  C   UNL     1      43.418   5.073  10.671  0.00  0.00    +0.000 C 
BRANCH  11  12
ATOM     12  C   UNL     1      44.614   4.217  10.237  0.00  0.00    +0.000 C 
ATOM     13  C   UNL     1      44.279   2.715  10.248  0.00  0.00    +0.000 C 
ATOM     14  C   UNL     1      44.713   2.197   8.884  0.00  0.00    +0.000 C 
ATOM     15  N   UNL     1      45.722   3.174   8.480  0.00  0.00    +0.000 NA
ATOM     16  C   UNL     1      46.090   3.046   7.079  0.00  0.00    +0.000 C 
ATOM     17  C   UNL     1      45.127   4.473   8.817  0.00  0.00    +0.000 C 
ENDBRANCH  11  12
ENDBRANCH   9  11
ENDBRANCH   8   9
ENDBRANCH   5   8
ENDBRANCH   1   2
BRANCH   1  18
ATOM     18  N   UNL     1      49.428   5.799  15.814  0.00  0.00    +0.000 NA
ATOM     19  H   UNL     1      48.800   5.143  15.352  0.00  0.00    +0.000 HD
BRANCH  18  21
ATOM     20  C   UNL     1      49.023   6.983  17.977  0.00  0.00    +0.000 C 
ATOM     21  C   UNL     1      49.243   5.647  17.263  0.00  0.00    +0.000 C 
BRANCH  21  22
ATOM     22  C   UNL     1      50.500   4.963  17.783  0.00  0.00    +0.000 A 
ATOM     23  C   UNL     1      51.500   5.599  18.510  0.00  0.00    +0.000 A 
ATOM     24  S   UNL     1      52.811   4.583  18.899  0.00  0.00    +0.000 S 
ATOM     25  C   UNL     1      52.070   3.246  18.151  0.00  0.00    +0.000 A 
ATOM     26  N   UNL     1      52.677   2.030  18.127  0.00  0.00    +0.000 NA
ATOM     27  C   UNL     1      51.989   1.106  17.545  0.00  0.00    +0.000 A 
ATOM     28  N   UNL     1      50.748   1.284  16.985  0.00  0.00    +0.000 N 
ATOM     29  C   UNL     1      50.094   2.498  16.976  0.00  0.00    +0.000 A 
ATOM     30  O   UNL     1      48.983   2.627  16.476  0.00  0.00    +0.000 OA
ATOM     31  C   UNL     1      50.839   3.569  17.615  0.00  0.00    +0.000 A 
ATOM     32  H   UNL     1      50.258   0.512  16.559  0.00  0.00    +0.000 HD
ENDBRANCH  21  22
ENDBRANCH  18  21
ENDBRANCH   1  18
TORSDOF 8
ENDMDL
MODEL 5
REMARK VINA RESULT:    -6.830      2.247      2.729
REMARK INTER + INTRA:         -11.087
REMARK INTER:                  -9.790
REMARK INTRA:                  -1.297
REMARK UNBOUND:                -1.063
REMARK  Name = 
REMARK  10 active torsions:
REMARK  status: ('A' for Active; 'I' for Inactive)
REMARK    1  A    between atoms: C_1  and  C_2
REMARK    2  A    between atoms: C_2  and  N_3
REMARK    3  A    between atoms: C_2  and  C_20
REMARK    4  A    between atoms: N_3  and  C_4
REMARK    5  A    between atoms: C_4  and  C_5
REMARK    6  A    between atoms: C_8  and  C_9
REMARK    7  A    between atoms: C_9  and  N_10
REMARK    8  A    between atoms: N_10  and  C_11
REMARK    9  A    between atoms: C_11  and  C_12
REMARK   10  A    between atoms: N_15  and  C_16
REMARK                            x       y       z     vdW  Elec       q    Type
REMARK                         _______ _______ _______ _____ _____    ______ ____
ROOT
ATOM      1  C   UNL     1      49.004   6.888  13.468  0.00  0.00    +0.000 C 
ENDROOT
BRANCH   1   2
ATOM      2  C   UNL     1      47.757   6.307  12.828  0.00  0.00    +0.000 A 
ATOM      3  C   UNL     1      47.164   6.930  11.720  0.00  0.00    +0.000 A 
ATOM      4  C   UNL     1      46.001   6.410  11.145  0.00  0.00    +0.000 A 
ATOM      5  C   UNL     1      45.414   5.242  11.650  0.00  0.00    +0.000 A 
ATOM      6  C   UNL     1      46.009   4.616  12.754  0.00  0.00    +0.000 A 
ATOM      7  C   UNL     1      47.164   5.144  13.339  0.00  0.00    +0.000 A 
BRANCH   5   8
ATOM      8  C   UNL     1      44.149   4.691  11.029  0.00  0.00    +0.000 C 
BRANCH   8   9
ATOM      9  N   UNL     1      44.068   5.010   9.598  0.00  0.00    +0.000 NA
ATOM     10  H   UNL     1      44.842   5.634   9.368  0.00  0.00    +0.000 HD
BRANCH   9  11
ATOM     11  C   UNL     1      44.152   3.795   8.787  0.00  0.00    +0.000 C 
BRANCH  11  12
ATOM     12  C   UNL     1      45.591   3.279   8.659  0.00  0.00    +0.000 C 
ATOM     13  C   UNL     1      45.674   1.755   8.855  0.00  0.00    +0.000 C 
ATOM     14  C   UNL     1      46.463   1.240   7.660  0.00  0.00    +0.000 C 
ATOM     15  N   UNL     1      47.228   2.416   7.253  0.00  0.00    +0.000 NA
ATOM     16  C   UNL     1      47.856   2.249   5.952  0.00  0.00    +0.000 C 
ATOM     17  C   UNL     1      46.257   3.517   7.301  0.00  0.00    +0.000 C 
ENDBRANCH  11  12
ENDBRANCH   9  11
ENDBRANCH   8   9
ENDBRANCH   5   8
ENDBRANCH   1   2
BRANCH   1  18
ATOM     18  N   UNL     1      49.048   6.551  14.886  0.00  0.00    +0.000 NA
ATOM     19  H   UNL     1      48.608   5.641  15.009  0.00  0.00    +0.000 HD
BRANCH  18  21
ATOM     20  C   UNL     1      48.523   8.956  15.317  0.00  0.00    +0.000 C 
ATOM     21  C   UNL     1      48.362   7.502  15.769  0.00  0.00    +0.000 C 
BRANCH  21  22
ATOM     22  C   UNL     1      48.959   7.305  17.155  0.00  0.00    +0.000 A 
ATOM     23  C   UNL     1      49.804   8.210  17.786  0.00  0.00    +0.000 A 
ATOM     24  S   UNL     1      50.359   7.680  19.307  0.00  0.00    +0.000 S 
ATOM     25  C   UNL     1      49.454   6.243  19.199  0.00  0.00    +0.000 A 
ATOM     26  N   UNL     1      49.479   5.321  20.198  0.00  0.00    +0.000 NA
ATOM     27  C   UNL     1      48.729   4.293  19.989  0.00  0.00    +0.000 A 
ATOM     28  N   UNL     1      47.952   4.100  18.873  0.00  0.00    +0.000 N 
ATOM     29  C   UNL     1      47.899   4.999  17.829  0.00  0.00    +0.000 A 
ATOM     30  O   UNL     1      47.191   4.805  16.848  0.00  0.00    +0.000 OA
ATOM     31  C   UNL     1      48.737   6.170  18.022  0.00  0.00    +0.000 A 
ATOM     32  H   UNL     1      47.376   3.277  18.781  0.00  0.00    +0.000 HD
ENDBRANCH  21  22
ENDBRANCH  18  21
ENDBRANCH   1  18
TORSDOF 8
ENDMDL
MODEL 6
REMARK VINA RESULT:    -6.768      3.140      9.177
REMARK INTER + INTRA:         -10.995
REMARK INTER:                  -9.809
REMARK INTRA:                  -1.187
REMARK UNBOUND:                -1.063
REMARK  Name = 
REMARK  10 active torsions:
REMARK  status: ('A' for Active; 'I' for Inactive)
REMARK    1  A    between atoms: C_1  and  C_2
REMARK    2  A    between atoms: C_2  and  N_3
REMARK    3  A    between atoms: C_2  and  C_20
REMARK    4  A    between atoms: N_3  and  C_4
REMARK    5  A    between atoms: C_4  and  C_5
REMARK    6  A    between atoms: C_8  and  C_9
REMARK    7  A    between atoms: C_9  and  N_10
REMARK    8  A    between atoms: N_10  and  C_11
REMARK    9  A    between atoms: C_11  and  C_12
REMARK   10  A    between atoms: N_15  and  C_16
REMARK                            x       y       z     vdW  Elec       q    Type
REMARK                         _______ _______ _______ _____ _____    ______ ____
ROOT
ATOM      1  C   UNL     1      47.763   7.277  12.941  0.00  0.00    +0.000 C 
ENDROOT
BRANCH   1   2
ATOM      2  C   UNL     1      47.752   6.254  14.061  0.00  0.00    +0.000 A 
ATOM      3  C   UNL     1      48.420   6.507  15.269  0.00  0.00    +0.000 A 
ATOM      4  C   UNL     1      48.432   5.555  16.291  0.00  0.00    +0.000 A 
ATOM      5  C   UNL     1      47.759   4.335  16.142  0.00  0.00    +0.000 A 
ATOM      6  C   UNL     1      47.088   4.083  14.937  0.00  0.00    +0.000 A 
ATOM      7  C   UNL     1      47.088   5.030  13.908  0.00  0.00    +0.000 A 
BRANCH   5   8
ATOM      8  C   UNL     1      47.786   3.305  17.250  0.00  0.00    +0.000 C 
BRANCH   8   9
ATOM      9  N   UNL     1      49.075   3.305  17.954  0.00  0.00    +0.000 NA
ATOM     10  H   UNL     1      48.900   3.077  18.933  0.00  0.00    +0.000 HD
BRANCH   9  11
ATOM     11  C   UNL     1      49.988   2.322  17.370  0.00  0.00    +0.000 C 
BRANCH  11  12
ATOM     12  C   UNL     1      51.445   2.800  17.386  0.00  0.00    +0.000 C 
ATOM     13  C   UNL     1      51.634   4.035  18.284  0.00  0.00    +0.000 C 
ATOM     14  C   UNL     1      52.804   3.692  19.196  0.00  0.00    +0.000 C 
ATOM     15  N   UNL     1      53.520   2.677  18.427  0.00  0.00    +0.000 NA
ATOM     16  C   UNL     1      54.529   1.991  19.216  0.00  0.00    +0.000 C 
ATOM     17  C   UNL     1      52.464   1.790  17.922  0.00  0.00    +0.000 C 
ENDBRANCH  11  12
ENDBRANCH   9  11
ENDBRANCH   8   9
ENDBRANCH   5   8
ENDBRANCH   1   2
BRANCH   1  18
ATOM     18  N   UNL     1      47.178   6.709  11.731  0.00  0.00    +0.000 NA
ATOM     19  H   UNL     1      47.762   6.978  10.941  0.00  0.00    +0.000 HD
BRANCH  18  21
ATOM     20  C   UNL     1      45.320   8.240  12.400  0.00  0.00    +0.000 C 
ATOM     21  C   UNL     1      45.807   7.150  11.443  0.00  0.00    +0.000 C 
BRANCH  21  22
ATOM     22  C   UNL     1      44.930   5.911  11.553  0.00  0.00    +0.000 A 
ATOM     23  C   UNL     1      44.057   5.653  12.604  0.00  0.00    +0.000 A 
ATOM     24  S   UNL     1      43.257   4.154  12.475  0.00  0.00    +0.000 S 
ATOM     25  C   UNL     1      44.012   3.816  10.988  0.00  0.00    +0.000 A 
ATOM     26  N   UNL     1      43.758   2.660  10.319  0.00  0.00    +0.000 NA
ATOM     27  C   UNL     1      44.384   2.549   9.197  0.00  0.00    +0.000 A 
ATOM     28  N   UNL     1      45.242   3.487   8.678  0.00  0.00    +0.000 N 
ATOM     29  C   UNL     1      45.539   4.671   9.320  0.00  0.00    +0.000 A 
ATOM     30  O   UNL     1      46.302   5.495   8.831  0.00  0.00    +0.000 OA
ATOM     31  C   UNL     1      44.859   4.832  10.594  0.00  0.00    +0.000 A 
ATOM     32  H   UNL     1      45.687   3.342   7.784  0.00  0.00    +0.000 HD
ENDBRANCH  21  22
ENDBRANCH  18  21
ENDBRANCH   1  18
TORSDOF 8
ENDMDL
MODEL 7
REMARK VINA RESULT:    -6.597      3.852      8.822
REMARK INTER + INTRA:         -10.745
REMARK INTER:                  -8.889
REMARK INTRA:                  -1.856
REMARK UNBOUND:                -1.063
REMARK  Name = 
REMARK  10 active torsions:
REMARK  status: ('A' for Active; 'I' for Inactive)
REMARK    1  A    between atoms: C_1  and  C_2
REMARK    2  A    between atoms: C_2  and  N_3
REMARK    3  A    between atoms: C_2  and  C_20
REMARK    4  A    between atoms: N_3  and  C_4
REMARK    5  A    between atoms: C_4  and  C_5
REMARK    6  A    between atoms: C_8  and  C_9
REMARK    7  A    between atoms: C_9  and  N_10
REMARK    8  A    between atoms: N_10  and  C_11
REMARK    9  A    between atoms: C_11  and  C_12
REMARK   10  A    between atoms: N_15  and  C_16
REMARK                            x       y       z     vdW  Elec       q    Type
REMARK                         _______ _______ _______ _____ _____    ______ ____
ROOT
ATOM      1  C   UNL     1      47.841   8.512  14.150  0.00  0.00    +0.000 C 
ENDROOT
BRANCH   1   2
ATOM      2  C   UNL     1      48.633   8.113  15.381  0.00  0.00    +0.000 A 
ATOM      3  C   UNL     1      48.507   8.833  16.578  0.00  0.00    +0.000 A 
ATOM      4  C   UNL     1      49.254   8.483  17.705  0.00  0.00    +0.000 A 
ATOM      5  C   UNL     1      50.131   7.390  17.671  0.00  0.00    +0.000 A 
ATOM      6  C   UNL     1      50.254   6.666  16.477  0.00  0.00    +0.000 A 
ATOM      7  C   UNL     1      49.516   7.026  15.344  0.00  0.00    +0.000 A 
BRANCH   5   8
ATOM      8  C   UNL     1      50.945   7.023  18.892  0.00  0.00    +0.000 C 
BRANCH   8   9
ATOM      9  N   UNL     1      50.605   5.682  19.384  0.00  0.00    +0.000 NA
ATOM     10  H   UNL     1      51.311   5.407  20.067  0.00  0.00    +0.000 HD
BRANCH   9  11
ATOM     11  C   UNL     1      49.282   5.674  20.007  0.00  0.00    +0.000 C 
BRANCH  11  12
ATOM     12  C   UNL     1      48.341   4.647  19.365  0.00  0.00    +0.000 C 
ATOM     13  C   UNL     1      47.295   5.316  18.456  0.00  0.00    +0.000 C 
ATOM     14  C   UNL     1      47.368   4.560  17.137  0.00  0.00    +0.000 C 
ATOM     15  N   UNL     1      47.922   3.270  17.540  0.00  0.00    +0.000 NA
ATOM     16  C   UNL     1      48.345   2.467  16.405  0.00  0.00    +0.000 C 
ATOM     17  C   UNL     1      49.016   3.613  18.459  0.00  0.00    +0.000 C 
ENDBRANCH  11  12
ENDBRANCH   9  11
ENDBRANCH   8   9
ENDBRANCH   5   8
ENDBRANCH   1   2
BRANCH   1  18
ATOM     18  N   UNL     1      46.766   7.556  13.908  0.00  0.00    +0.000 NA
ATOM     19  H   UNL     1      46.620   7.022  14.763  0.00  0.00    +0.000 HD
BRANCH  18  21
ATOM     20  C   UNL     1      47.960   7.158  11.749  0.00  0.00    +0.000 C 
ATOM     21  C   UNL     1      47.022   6.601  12.823  0.00  0.00    +0.000 C 
BRANCH  21  22
ATOM     22  C   UNL     1      45.664   6.263  12.224  0.00  0.00    +0.000 A 
ATOM     23  C   UNL     1      44.836   7.177  11.582  0.00  0.00    +0.000 A 
ATOM     24  S   UNL     1      43.352   6.512  11.073  0.00  0.00    +0.000 S 
ATOM     25  C   UNL     1      43.781   4.970  11.649  0.00  0.00    +0.000 A 
ATOM     26  N   UNL     1      42.935   3.913  11.523  0.00  0.00    +0.000 NA
ATOM     27  C   UNL     1      43.401   2.803  11.984  0.00  0.00    +0.000 A 
ATOM     28  N   UNL     1      44.638   2.648  12.560  0.00  0.00    +0.000 N 
ATOM     29  C   UNL     1      45.529   3.688  12.719  0.00  0.00    +0.000 A 
ATOM     30  O   UNL     1      46.630   3.521  13.230  0.00  0.00    +0.000 OA
ATOM     31  C   UNL     1      45.038   4.961  12.218  0.00  0.00    +0.000 A 
ATOM     32  H   UNL     1      44.946   1.745  12.887  0.00  0.00    +0.000 HD
ENDBRANCH  21  22
ENDBRANCH  18  21
ENDBRANCH   1  18
TORSDOF 8
ENDMDL
MODEL 8
REMARK VINA RESULT:    -6.596      2.346      3.394
REMARK INTER + INTRA:         -10.743
REMARK INTER:                  -9.338
REMARK INTRA:                  -1.405
REMARK UNBOUND:                -1.063
REMARK  Name = 
REMARK  10 active torsions:
REMARK  status: ('A' for Active; 'I' for Inactive)
REMARK    1  A    between atoms: C_1  and  C_2
REMARK    2  A    between atoms: C_2  and  N_3
REMARK    3  A    between atoms: C_2  and  C_20
REMARK    4  A    between atoms: N_3  and  C_4
REMARK    5  A    between atoms: C_4  and  C_5
REMARK    6  A    between atoms: C_8  and  C_9
REMARK    7  A    between atoms: C_9  and  N_10
REMARK    8  A    between atoms: N_10  and  C_11
REMARK    9  A    between atoms: C_11  and  C_12
REMARK   10  A    between atoms: N_15  and  C_16
REMARK                            x       y       z     vdW  Elec       q    Type
REMARK                         _______ _______ _______ _____ _____    ______ ____
ROOT
ATOM      1  C   UNL     1      49.742   8.103  13.928  0.00  0.00    +0.000 C 
ENDROOT
BRANCH   1   2
ATOM      2  C   UNL     1      48.394   7.910  13.261  0.00  0.00    +0.000 A 
ATOM      3  C   UNL     1      47.285   8.677  13.650  0.00  0.00    +0.000 A 
ATOM      4  C   UNL     1      46.037   8.483  13.054  0.00  0.00    +0.000 A 
ATOM      5  C   UNL     1      45.869   7.532  12.038  0.00  0.00    +0.000 A 
ATOM      6  C   UNL     1      46.976   6.769  11.645  0.00  0.00    +0.000 A 
ATOM      7  C   UNL     1      48.223   6.953  12.251  0.00  0.00    +0.000 A 
BRANCH   5   8
ATOM      8  C   UNL     1      44.511   7.320  11.405  0.00  0.00    +0.000 C 
BRANCH   8   9
ATOM      9  N   UNL     1      43.808   6.180  12.007  0.00  0.00    +0.000 NA
ATOM     10  H   UNL     1      42.998   6.538  12.513  0.00  0.00    +0.000 HD
BRANCH   9  11
ATOM     11  C   UNL     1      43.373   5.234  10.979  0.00  0.00    +0.000 C 
BRANCH  11  12
ATOM     12  C   UNL     1      44.510   4.316  10.514  0.00  0.00    +0.000 C 
ATOM     13  C   UNL     1      44.072   2.842  10.459  0.00  0.00    +0.000 C 
ATOM     14  C   UNL     1      44.480   2.353   9.077  0.00  0.00    +0.000 C 
ATOM     15  N   UNL     1      45.557   3.273   8.720  0.00  0.00    +0.000 NA
ATOM     16  C   UNL     1      45.925   3.181   7.316  0.00  0.00    +0.000 C 
ATOM     17  C   UNL     1      45.051   4.596   9.109  0.00  0.00    +0.000 C 
ENDBRANCH  11  12
ENDBRANCH   9  11
ENDBRANCH   8   9
ENDBRANCH   5   8
ENDBRANCH   1   2
BRANCH   1  18
ATOM     18  N   UNL     1      49.870   7.214  15.077  0.00  0.00    +0.000 NA
ATOM     19  H   UNL     1      49.492   6.304  14.817  0.00  0.00    +0.000 HD
BRANCH  18  21
ATOM     20  C   UNL     1      49.741   8.955  16.864  0.00  0.00    +0.000 C 
ATOM     21  C   UNL     1      49.165   7.661  16.285  0.00  0.00    +0.000 C 
BRANCH  21  22
ATOM     22  C   UNL     1      49.283   6.525  17.292  0.00  0.00    +0.000 A 
ATOM     23  C   UNL     1      50.031   6.585  18.463  0.00  0.00    +0.000 A 
ATOM     24  S   UNL     1      50.018   5.133  19.355  0.00  0.00    +0.000 S 
ATOM     25  C   UNL     1      48.976   4.388  18.234  0.00  0.00    +0.000 A 
ATOM     26  N   UNL     1      48.560   3.106  18.408  0.00  0.00    +0.000 NA
ATOM     27  C   UNL     1      47.757   2.681  17.492  0.00  0.00    +0.000 A 
ATOM     28  N   UNL     1      47.329   3.419  16.417  0.00  0.00    +0.000 N 
ATOM     29  C   UNL     1      47.728   4.719  16.191  0.00  0.00    +0.000 A 
ATOM     30  O   UNL     1      47.325   5.358  15.226  0.00  0.00    +0.000 OA
ATOM     31  C   UNL     1      48.641   5.235  17.197  0.00  0.00    +0.000 A 
ATOM     32  H   UNL     1      46.687   3.028  15.744  0.00  0.00    +0.000 HD
ENDBRANCH  21  22
ENDBRANCH  18  21
ENDBRANCH   1  18
TORSDOF 8
ENDMDL
MODEL 9
REMARK VINA RESULT:    -6.526      4.263      5.257
REMARK INTER + INTRA:         -10.641
REMARK INTER:                  -9.385
REMARK INTRA:                  -1.256
REMARK UNBOUND:                -1.063
REMARK  Name = 
REMARK  10 active torsions:
REMARK  status: ('A' for Active; 'I' for Inactive)
REMARK    1  A    between atoms: C_1  and  C_2
REMARK    2  A    between atoms: C_2  and  N_3
REMARK    3  A    between atoms: C_2  and  C_20
REMARK    4  A    between atoms: N_3  and  C_4
REMARK    5  A    between atoms: C_4  and  C_5
REMARK    6  A    between atoms: C_8  and  C_9
REMARK    7  A    between atoms: C_9  and  N_10
REMARK    8  A    between atoms: N_10  and  C_11
REMARK    9  A    between atoms: C_11  and  C_12
REMARK   10  A    between atoms: N_15  and  C_16
REMARK                            x       y       z     vdW  Elec       q    Type
REMARK                         _______ _______ _______ _____ _____    ______ ____
ROOT
ATOM      1  C   UNL     1      48.628   6.962  12.756  0.00  0.00    +0.000 C 
ENDROOT
BRANCH   1   2
ATOM      2  C   UNL     1      47.304   6.251  12.554  0.00  0.00    +0.000 A 
ATOM      3  C   UNL     1      46.941   5.167  13.369  0.00  0.00    +0.000 A 
ATOM      4  C   UNL     1      45.733   4.495  13.168  0.00  0.00    +0.000 A 
ATOM      5  C   UNL     1      44.846   4.902  12.162  0.00  0.00    +0.000 A 
ATOM      6  C   UNL     1      45.206   5.987  11.350  0.00  0.00    +0.000 A 
ATOM      7  C   UNL     1      46.422   6.651  11.542  0.00  0.00    +0.000 A 
BRANCH   5   8
ATOM      8  C   UNL     1      43.545   4.162  11.943  0.00  0.00    +0.000 C 
BRANCH   8   9
ATOM      9  N   UNL     1      43.391   3.744  10.544  0.00  0.00    +0.000 NA
ATOM     10  H   UNL     1      43.659   4.527   9.948  0.00  0.00    +0.000 HD
BRANCH   9  11
ATOM     11  C   UNL     1      44.234   2.584  10.251  0.00  0.00    +0.000 C 
BRANCH  11  12
ATOM     12  C   UNL     1      44.678   2.544   8.783  0.00  0.00    +0.000 C 
ATOM     13  C   UNL     1      45.032   3.944   8.252  0.00  0.00    +0.000 C 
ATOM     14  C   UNL     1      46.405   3.794   7.611  0.00  0.00    +0.000 C 
ATOM     15  N   UNL     1      46.453   2.369   7.293  0.00  0.00    +0.000 NA
ATOM     16  C   UNL     1      47.787   1.927   6.920  0.00  0.00    +0.000 C 
ATOM     17  C   UNL     1      45.929   1.709   8.496  0.00  0.00    +0.000 C 
ENDBRANCH  11  12
ENDBRANCH   9  11
ENDBRANCH   8   9
ENDBRANCH   5   8
ENDBRANCH   1   2
BRANCH   1  18
ATOM     18  N   UNL     1      48.851   7.929  11.687  0.00  0.00    +0.000 NA
ATOM     19  H   UNL     1      49.405   7.477  10.962  0.00  0.00    +0.000 HD
BRANCH  18  21
ATOM     20  C   UNL     1      49.185  10.366  11.248  0.00  0.00    +0.000 C 
ATOM     21  C   UNL     1      49.560   9.148  12.096  0.00  0.00    +0.000 C 
BRANCH  21  22
ATOM     22  C   UNL     1      51.045   8.842  11.964  0.00  0.00    +0.000 A 
ATOM     23  C   UNL     1      51.723   8.731  10.756  0.00  0.00    +0.000 A 
ATOM     24  S   UNL     1      53.367   8.320  10.931  0.00  0.00    +0.000 S 
ATOM     25  C   UNL     1      53.244   8.320  12.628  0.00  0.00    +0.000 A 
ATOM     26  N   UNL     1      54.321   8.041  13.409  0.00  0.00    +0.000 NA
ATOM     27  C   UNL     1      54.086   8.100  14.677  0.00  0.00    +0.000 A 
ATOM     28  N   UNL     1      52.872   8.413  15.237  0.00  0.00    +0.000 N 
ATOM     29  C   UNL     1      51.749   8.696  14.489  0.00  0.00    +0.000 A 
ATOM     30  O   UNL     1      50.679   8.980  15.016  0.00  0.00    +0.000 OA
ATOM     31  C   UNL     1      51.969   8.633  13.055  0.00  0.00    +0.000 A 
ATOM     32  H   UNL     1      52.762   8.456  16.239  0.00  0.00    +0.000 HD
ENDBRANCH  21  22
ENDBRANCH  18  21
ENDBRANCH   1  18
TORSDOF 8
ENDMDL
