MODEL 1
REMARK VINA RESULT:    -8.484      0.000      0.000
REMARK INTER + INTRA:         -12.723
REMARK INTER:                 -11.459
REMARK INTRA:                  -1.264
REMARK UNBOUND:                -1.264
REMARK  Name = 
REMARK  7 active torsions:
REMARK  status: ('A' for Active; 'I' for Inactive)
REMARK    1  A    between atoms: C_1  and  O_2
REMARK    2  A    between atoms: O_2  and  C_3
REMARK    3  A    between atoms: C_5  and  C_6
REMARK    4  A    between atoms: C_11  and  O_12
REMARK    5  A    between atoms: O_12  and  C_13
REMARK    6  A    between atoms: C_13  and  C_14
REMARK    7  A    between atoms: C_18  and  C_19
REMARK                            x       y       z     vdW  Elec       q    Type
REMARK                         _______ _______ _______ _____ _____    ______ ____
ROOT
ATOM      1  O   UNL     1      43.971   6.541  12.650  0.00  0.00    +0.000 OA
ENDROOT
BRANCH   1   7
ATOM      2  C   UNL     1      46.252   5.721  13.272  0.00  0.00    +0.000 A 
ATOM      3  C   UNL     1      47.621   6.021  13.258  0.00  0.00    +0.000 A 
ATOM      4  C   UNL     1      48.109   7.203  12.681  0.00  0.00    +0.000 A 
ATOM      5  C   UNL     1      47.204   8.101  12.110  0.00  0.00    +0.000 A 
ATOM      6  C   UNL     1      45.834   7.818  12.133  0.00  0.00    +0.000 A 
ATOM      7  C   UNL     1      45.343   6.638  12.713  0.00  0.00    +0.000 A 
BRANCH   4   8
ATOM      8  C   UNL     1      49.586   7.411  12.705  0.00  0.00    +0.000 C 
ATOM      9  N   UNL     1      50.237   7.411  13.902  0.00  0.00    +0.000 N 
ATOM     10  O   UNL     1      50.223   7.578  11.669  0.00  0.00    +0.000 OA
ATOM     11  H   UNL     1      49.802   7.289  14.805  0.00  0.00    +0.000 HD
ATOM     12  H   UNL     1      51.236   7.569  13.877  0.00  0.00    +0.000 HD
ENDBRANCH   4   8
BRANCH   2  14
ATOM     13  C   UNL     1      46.412   3.331  13.322  0.00  0.00    +0.000 C 
ATOM     14  O   UNL     1      45.776   4.529  13.747  0.00  0.00    +0.000 OA
ENDBRANCH   2  14
ENDBRANCH   1   7
BRANCH   1  15
ATOM     15  C   UNL     1      43.400   6.198  11.389  0.00  0.00    +0.000 C 
BRANCH  15  16
ATOM     16  C   UNL     1      43.714   4.775  11.020  0.00  0.00    +0.000 A 
ATOM     17  C   UNL     1      43.113   3.718  11.684  0.00  0.00    +0.000 A 
ATOM     18  N   UNL     1      43.262   2.426  11.323  0.00  0.00    +0.000 NA
ATOM     19  C   UNL     1      44.055   2.182  10.250  0.00  0.00    +0.000 A 
ATOM     20  C   UNL     1      44.738   3.150   9.509  0.00  0.00    +0.000 A 
ATOM     21  C   UNL     1      44.540   4.474   9.928  0.00  0.00    +0.000 A 
BRANCH  20  22
ATOM     22  C   UNL     1      45.625   2.809   8.374  0.00  0.00    +0.000 A 
ATOM     23  C   UNL     1      45.979   3.764   7.397  0.00  0.00    +0.000 A 
ATOM     24  C   UNL     1      46.871   3.453   6.366  0.00  0.00    +0.000 A 
ATOM     25  C   UNL     1      47.412   2.177   6.288  0.00  0.00    +0.000 A 
ATOM     26  F   UNL     1      48.280   1.884   5.314  0.00  0.00    +0.000 F 
ATOM     27  C   UNL     1      47.068   1.206   7.214  0.00  0.00    +0.000 A 
ATOM     28  C   UNL     1      46.180   1.519   8.250  0.00  0.00    +0.000 A 
ENDBRANCH  20  22
ENDBRANCH  15  16
ENDBRANCH   1  15
TORSDOF 6
ENDMDL
MODEL 2
REMARK VINA RESULT:    -8.021      1.019      2.053
REMARK INTER + INTRA:         -12.099
REMARK INTER:                 -11.119
REMARK INTRA:                  -0.980
REMARK UNBOUND:                -1.264
REMARK  Name = 
REMARK  7 active torsions:
REMARK  status: ('A' for Active; 'I' for Inactive)
REMARK    1  A    between atoms: C_1  and  O_2
REMARK    2  A    between atoms: O_2  and  C_3
REMARK    3  A    between atoms: C_5  and  C_6
REMARK    4  A    between atoms: C_11  and  O_12
REMARK    5  A    between atoms: O_12  and  C_13
REMARK    6  A    between atoms: C_13  and  C_14
REMARK    7  A    between atoms: C_18  and  C_19
REMARK                            x       y       z     vdW  Elec       q    Type
REMARK                         _______ _______ _______ _____ _____    ______ ____
ROOT
ATOM      1  O   UNL     1      44.501   6.497  12.835  0.00  0.00    +0.000 OA
ENDROOT
BRANCH   1   7
ATOM      2  C   UNL     1      46.028   8.448  12.480  0.00  0.00    +0.000 A 
ATOM      3  C   UNL     1      47.362   8.842  12.308  0.00  0.00    +0.000 A 
ATOM      4  C   UNL     1      48.413   7.914  12.343  0.00  0.00    +0.000 A 
ATOM      5  C   UNL     1      48.119   6.566  12.554  0.00  0.00    +0.000 A 
ATOM      6  C   UNL     1      46.789   6.159  12.711  0.00  0.00    +0.000 A 
ATOM      7  C   UNL     1      45.735   7.086  12.672  0.00  0.00    +0.000 A 
BRANCH   4   8
ATOM      8  C   UNL     1      49.795   8.448  12.168  0.00  0.00    +0.000 C 
ATOM      9  N   UNL     1      50.845   7.759  12.697  0.00  0.00    +0.000 N 
ATOM     10  O   UNL     1      50.003   9.491  11.555  0.00  0.00    +0.000 OA
ATOM     11  H   UNL     1      50.777   6.899  13.222  0.00  0.00    +0.000 HD
ATOM     12  H   UNL     1      51.765   8.161  12.568  0.00  0.00    +0.000 HD
ENDBRANCH   4   8
BRANCH   2  14
ATOM     13  C   UNL     1      44.530   9.918  11.325  0.00  0.00    +0.000 C 
ATOM     14  O   UNL     1      45.005   9.356  12.541  0.00  0.00    +0.000 OA
ENDBRANCH   2  14
ENDBRANCH   1   7
BRANCH   1  15
ATOM     15  C   UNL     1      43.738   6.245  11.657  0.00  0.00    +0.000 C 
BRANCH  15  16
ATOM     16  C   UNL     1      43.907   4.825  11.195  0.00  0.00    +0.000 A 
ATOM     17  C   UNL     1      43.191   3.794  11.785  0.00  0.00    +0.000 A 
ATOM     18  N   UNL     1      43.209   2.521  11.339  0.00  0.00    +0.000 NA
ATOM     19  C   UNL     1      43.984   2.266  10.256  0.00  0.00    +0.000 A 
ATOM     20  C   UNL     1      44.772   3.204   9.583  0.00  0.00    +0.000 A 
ATOM     21  C   UNL     1      44.708   4.510  10.088  0.00  0.00    +0.000 A 
BRANCH  20  22
ATOM     22  C   UNL     1      45.631   2.848   8.432  0.00  0.00    +0.000 A 
ATOM     23  C   UNL     1      45.992   3.799   7.454  0.00  0.00    +0.000 A 
ATOM     24  C   UNL     1      46.857   3.471   6.406  0.00  0.00    +0.000 A 
ATOM     25  C   UNL     1      47.365   2.183   6.312  0.00  0.00    +0.000 A 
ATOM     26  F   UNL     1      48.209   1.873   5.322  0.00  0.00    +0.000 F 
ATOM     27  C   UNL     1      47.013   1.215   7.239  0.00  0.00    +0.000 A 
ATOM     28  C   UNL     1      46.151   1.545   8.292  0.00  0.00    +0.000 A 
ENDBRANCH  20  22
ENDBRANCH  15  16
ENDBRANCH   1  15
TORSDOF 6
ENDMDL
MODEL 3
REMARK VINA RESULT:    -7.314      3.553      6.675
REMARK INTER + INTRA:         -11.143
REMARK INTER:                 -10.929
REMARK INTRA:                  -0.214
REMARK UNBOUND:                -1.264
REMARK  Name = 
REMARK  7 active torsions:
REMARK  status: ('A' for Active; 'I' for Inactive)
REMARK    1  A    between atoms: C_1  and  O_2
REMARK    2  A    between atoms: O_2  and  C_3
REMARK    3  A    between atoms: C_5  and  C_6
REMARK    4  A    between atoms: C_11  and  O_12
REMARK    5  A    between atoms: O_12  and  C_13
REMARK    6  A    between atoms: C_13  and  C_14
REMARK    7  A    between atoms: C_18  and  C_19
REMARK                            x       y       z     vdW  Elec       q    Type
REMARK                         _______ _______ _______ _____ _____    ______ ____
ROOT
ATOM      1  O   UNL     1      43.928   4.863  10.335  0.00  0.00    +0.000 OA
ENDROOT
BRANCH   1   7
ATOM      2  C   UNL     1      44.676   2.619   9.518  0.00  0.00    +0.000 A 
ATOM      3  C   UNL     1      45.561   1.947   8.663  0.00  0.00    +0.000 A 
ATOM      4  C   UNL     1      46.448   2.644   7.828  0.00  0.00    +0.000 A 
ATOM      5  C   UNL     1      46.447   4.040   7.854  0.00  0.00    +0.000 A 
ATOM      6  C   UNL     1      45.578   4.720   8.716  0.00  0.00    +0.000 A 
ATOM      7  C   UNL     1      44.693   4.025   9.555  0.00  0.00    +0.000 A 
BRANCH   4   8
ATOM      8  C   UNL     1      47.331   1.827   6.946  0.00  0.00    +0.000 C 
ATOM      9  N   UNL     1      48.397   2.423   6.340  0.00  0.00    +0.000 N 
ATOM     10  O   UNL     1      47.117   0.633   6.758  0.00  0.00    +0.000 OA
ATOM     11  H   UNL     1      48.651   3.396   6.426  0.00  0.00    +0.000 HD
ATOM     12  H   UNL     1      48.963   1.839   5.738  0.00  0.00    +0.000 HD
ENDBRANCH   4   8
BRANCH   2  14
ATOM     13  C   UNL     1      43.438   2.450  11.562  0.00  0.00    +0.000 C 
ATOM     14  O   UNL     1      43.744   1.952  10.266  0.00  0.00    +0.000 OA
ENDBRANCH   2  14
ENDBRANCH   1   7
BRANCH   1  15
ATOM     15  C   UNL     1      44.488   6.129  10.675  0.00  0.00    +0.000 C 
BRANCH  15  16
ATOM     16  C   UNL     1      45.457   6.005  11.818  0.00  0.00    +0.000 A 
ATOM     17  C   UNL     1      45.191   5.166  12.889  0.00  0.00    +0.000 A 
ATOM     18  N   UNL     1      46.070   4.921  13.883  0.00  0.00    +0.000 NA
ATOM     19  C   UNL     1      47.269   5.551  13.804  0.00  0.00    +0.000 A 
ATOM     20  C   UNL     1      47.654   6.438  12.796  0.00  0.00    +0.000 A 
ATOM     21  C   UNL     1      46.702   6.648  11.787  0.00  0.00    +0.000 A 
BRANCH  20  22
ATOM     22  C   UNL     1      48.965   7.126  12.794  0.00  0.00    +0.000 A 
ATOM     23  C   UNL     1      49.588   7.532  11.595  0.00  0.00    +0.000 A 
ATOM     24  C   UNL     1      50.793   8.241  11.606  0.00  0.00    +0.000 A 
ATOM     25  C   UNL     1      51.401   8.543  12.817  0.00  0.00    +0.000 A 
ATOM     26  F   UNL     1      52.543   9.238  12.829  0.00  0.00    +0.000 F 
ATOM     27  C   UNL     1      50.832   8.139  14.013  0.00  0.00    +0.000 A 
ATOM     28  C   UNL     1      49.622   7.434  14.003  0.00  0.00    +0.000 A 
ENDBRANCH  20  22
ENDBRANCH  15  16
ENDBRANCH   1  15
TORSDOF 6
ENDMDL
MODEL 4
REMARK VINA RESULT:    -7.212      2.572      3.395
REMARK INTER + INTRA:         -11.005
REMARK INTER:                 -10.246
REMARK INTRA:                  -0.759
REMARK UNBOUND:                -1.264
REMARK  Name = 
REMARK  7 active torsions:
REMARK  status: ('A' for Active; 'I' for Inactive)
REMARK    1  A    between atoms: C_1  and  O_2
REMARK    2  A    between atoms: O_2  and  C_3
REMARK    3  A    between atoms: C_5  and  C_6
REMARK    4  A    between atoms: C_11  and  O_12
REMARK    5  A    between atoms: O_12  and  C_13
REMARK    6  A    between atoms: C_13  and  C_14
REMARK    7  A    between atoms: C_18  and  C_19
REMARK                            x       y       z     vdW  Elec       q    Type
REMARK                         _______ _______ _______ _____ _____    ______ ____
ROOT
ATOM      1  O   UNL     1      46.762   5.780  12.917  0.00  0.00    +0.000 OA
ENDROOT
BRANCH   1   7
ATOM      2  C   UNL     1      48.274   6.408  14.810  0.00  0.00    +0.000 A 
ATOM      3  C   UNL     1      48.747   6.027  16.073  0.00  0.00    +0.000 A 
ATOM      4  C   UNL     1      48.284   4.868  16.713  0.00  0.00    +0.000 A 
ATOM      5  C   UNL     1      47.330   4.075  16.070  0.00  0.00    +0.000 A 
ATOM      6  C   UNL     1      46.863   4.438  14.802  0.00  0.00    +0.000 A 
ATOM      7  C   UNL     1      47.328   5.596  14.158  0.00  0.00    +0.000 A 
BRANCH   4   8
ATOM      8  C   UNL     1      48.842   4.570  18.064  0.00  0.00    +0.000 C 
ATOM      9  N   UNL     1      47.990   4.240  19.076  0.00  0.00    +0.000 N 
ATOM     10  O   UNL     1      50.050   4.613  18.279  0.00  0.00    +0.000 OA
ATOM     11  H   UNL     1      46.985   4.185  19.001  0.00  0.00    +0.000 HD
ATOM     12  H   UNL     1      48.407   4.059  19.980  0.00  0.00    +0.000 HD
ENDBRANCH   4   8
BRANCH   2  14
ATOM     13  C   UNL     1      47.867   8.745  14.474  0.00  0.00    +0.000 C 
ATOM     14  O   UNL     1      48.648   7.585  14.220  0.00  0.00    +0.000 OA
ENDBRANCH   2  14
ENDBRANCH   1   7
BRANCH   1  15
ATOM     15  C   UNL     1      45.338   5.760  12.840  0.00  0.00    +0.000 C 
BRANCH  15  16
ATOM     16  C   UNL     1      44.857   4.628  11.977  0.00  0.00    +0.000 A 
ATOM     17  C   UNL     1      43.685   3.951  12.278  0.00  0.00    +0.000 A 
ATOM     18  N   UNL     1      43.140   3.009  11.482  0.00  0.00    +0.000 NA
ATOM     19  C   UNL     1      43.801   2.726  10.332  0.00  0.00    +0.000 A 
ATOM     20  C   UNL     1      45.000   3.314   9.921  0.00  0.00    +0.000 A 
ATOM     21  C   UNL     1      45.516   4.290  10.786  0.00  0.00    +0.000 A 
BRANCH  20  22
ATOM     22  C   UNL     1      45.694   2.927   8.672  0.00  0.00    +0.000 A 
ATOM     23  C   UNL     1      46.017   3.874   7.678  0.00  0.00    +0.000 A 
ATOM     24  C   UNL     1      46.732   3.512   6.532  0.00  0.00    +0.000 A 
ATOM     25  C   UNL     1      47.123   2.192   6.356  0.00  0.00    +0.000 A 
ATOM     26  F   UNL     1      47.824   1.847   5.271  0.00  0.00    +0.000 F 
ATOM     27  C   UNL     1      46.802   1.228   7.299  0.00  0.00    +0.000 A 
ATOM     28  C   UNL     1      46.092   1.592   8.449  0.00  0.00    +0.000 A 
ENDBRANCH  20  22
ENDBRANCH  15  16
ENDBRANCH   1  15
TORSDOF 6
ENDMDL
MODEL 5
REMARK VINA RESULT:    -7.127      2.273      2.548
REMARK INTER + INTRA:         -10.891
REMARK INTER:                  -9.841
REMARK INTRA:                  -1.050
REMARK UNBOUND:                -1.264
REMARK  Name = 
REMARK  7 active torsions:
REMARK  status: ('A' for Active; 'I' for Inactive)
REMARK    1  A    between atoms: C_1  and  O_2
REMARK    2  A    between atoms: O_2  and  C_3
REMARK    3  A    between atoms: C_5  and  C_6
REMARK    4  A    between atoms: C_11  and  O_12
REMARK    5  A    between atoms: O_12  and  C_13
REMARK    6  A    between atoms: C_13  and  C_14
REMARK    7  A    between atoms: C_18  and  C_19
REMARK                            x       y       z     vdW  Elec       q    Type
REMARK                         _______ _______ _______ _____ _____    ______ ____
ROOT
ATOM      1  O   UNL     1      46.690   7.631  12.151  0.00  0.00    +0.000 OA
ENDROOT
BRANCH   1   7
ATOM      2  C   UNL     1      47.906   6.370  13.939  0.00  0.00    +0.000 A 
ATOM      3  C   UNL     1      48.575   6.481  15.166  0.00  0.00    +0.000 A 
ATOM      4  C   UNL     1      48.762   7.722  15.793  0.00  0.00    +0.000 A 
ATOM      5  C   UNL     1      48.266   8.873  15.177  0.00  0.00    +0.000 A 
ATOM      6  C   UNL     1      47.583   8.771  13.959  0.00  0.00    +0.000 A 
ATOM      7  C   UNL     1      47.391   7.530  13.332  0.00  0.00    +0.000 A 
BRANCH   4   8
ATOM      8  C   UNL     1      49.504   7.724  17.087  0.00  0.00    +0.000 C 
ATOM      9  N   UNL     1      49.691   8.904  17.743  0.00  0.00    +0.000 N 
ATOM     10  O   UNL     1      49.946   6.685  17.570  0.00  0.00    +0.000 OA
ATOM     11  H   UNL     1      49.374   9.808  17.425  0.00  0.00    +0.000 HD
ATOM     12  H   UNL     1      50.212   8.865  18.610  0.00  0.00    +0.000 HD
ENDBRANCH   4   8
BRANCH   2  14
ATOM     13  C   UNL     1      46.897   4.204  13.778  0.00  0.00    +0.000 C 
ATOM     14  O   UNL     1      47.802   5.178  13.275  0.00  0.00    +0.000 OA
ENDBRANCH   2  14
ENDBRANCH   1   7
BRANCH   1  15
ATOM     15  C   UNL     1      45.267   7.622  12.236  0.00  0.00    +0.000 C 
BRANCH  15  16
ATOM     16  C   UNL     1      44.702   6.316  11.752  0.00  0.00    +0.000 A 
ATOM     17  C   UNL     1      43.495   5.839  12.239  0.00  0.00    +0.000 A 
ATOM     18  N   UNL     1      42.879   4.738  11.761  0.00  0.00    +0.000 NA
ATOM     19  C   UNL     1      43.504   4.080  10.752  0.00  0.00    +0.000 A 
ATOM     20  C   UNL     1      44.730   4.438  10.188  0.00  0.00    +0.000 A 
ATOM     21  C   UNL     1      45.320   5.594  10.722  0.00  0.00    +0.000 A 
BRANCH  20  22
ATOM     22  C   UNL     1      45.379   3.649   9.117  0.00  0.00    +0.000 A 
ATOM     23  C   UNL     1      46.023   4.269   8.025  0.00  0.00    +0.000 A 
ATOM     24  C   UNL     1      46.691   3.518   7.053  0.00  0.00    +0.000 A 
ATOM     25  C   UNL     1      46.714   2.133   7.151  0.00  0.00    +0.000 A 
ATOM     26  F   UNL     1      47.369   1.415   6.233  0.00  0.00    +0.000 F 
ATOM     27  C   UNL     1      46.071   1.488   8.195  0.00  0.00    +0.000 A 
ATOM     28  C   UNL     1      45.408   2.240   9.172  0.00  0.00    +0.000 A 
ENDBRANCH  20  22
ENDBRANCH  15  16
ENDBRANCH   1  15
TORSDOF 6
ENDMDL
MODEL 6
REMARK VINA RESULT:    -6.441      3.686      5.238
REMARK INTER + INTRA:          -9.964
REMARK INTER:                  -9.051
REMARK INTRA:                  -0.913
REMARK UNBOUND:                -1.264
REMARK  Name = 
REMARK  7 active torsions:
REMARK  status: ('A' for Active; 'I' for Inactive)
REMARK    1  A    between atoms: C_1  and  O_2
REMARK    2  A    between atoms: O_2  and  C_3
REMARK    3  A    between atoms: C_5  and  C_6
REMARK    4  A    between atoms: C_11  and  O_12
REMARK    5  A    between atoms: O_12  and  C_13
REMARK    6  A    between atoms: C_13  and  C_14
REMARK    7  A    between atoms: C_18  and  C_19
REMARK                            x       y       z     vdW  Elec       q    Type
REMARK                         _______ _______ _______ _____ _____    ______ ____
ROOT
ATOM      1  O   UNL     1      49.007   6.452  14.373  0.00  0.00    +0.000 OA
ENDROOT
BRANCH   1   7
ATOM      2  C   UNL     1      48.171   5.121  16.320  0.00  0.00    +0.000 A 
ATOM      3  C   UNL     1      47.878   5.155  17.690  0.00  0.00    +0.000 A 
ATOM      4  C   UNL     1      48.101   6.306  18.462  0.00  0.00    +0.000 A 
ATOM      5  C   UNL     1      48.626   7.443  17.844  0.00  0.00    +0.000 A 
ATOM      6  C   UNL     1      48.906   7.424  16.473  0.00  0.00    +0.000 A 
ATOM      7  C   UNL     1      48.681   6.276  15.699  0.00  0.00    +0.000 A 
BRANCH   4   8
ATOM      8  C   UNL     1      47.771   6.223  19.914  0.00  0.00    +0.000 C 
ATOM      9  N   UNL     1      47.831   5.014  20.541  0.00  0.00    +0.000 N 
ATOM     10  O   UNL     1      47.451   7.221  20.553  0.00  0.00    +0.000 OA
ATOM     11  H   UNL     1      48.076   4.138  20.102  0.00  0.00    +0.000 HD
ATOM     12  H   UNL     1      47.586   4.997  21.523  0.00  0.00    +0.000 HD
ENDBRANCH   4   8
BRANCH   2  14
ATOM     13  C   UNL     1      46.933   3.858  14.704  0.00  0.00    +0.000 C 
ATOM     14  O   UNL     1      48.046   3.976  15.580  0.00  0.00    +0.000 OA
ENDBRANCH   2  14
ENDBRANCH   1   7
BRANCH   1  15
ATOM     15  C   UNL     1      48.659   7.700  13.777  0.00  0.00    +0.000 C 
BRANCH  15  16
ATOM     16  C   UNL     1      47.318   7.623  13.102  0.00  0.00    +0.000 A 
ATOM     17  C   UNL     1      46.443   8.699  13.132  0.00  0.00    +0.000 A 
ATOM     18  N   UNL     1      45.280   8.736  12.448  0.00  0.00    +0.000 NA
ATOM     19  C   UNL     1      44.977   7.643  11.704  0.00  0.00    +0.000 A 
ATOM     20  C   UNL     1      45.755   6.487  11.606  0.00  0.00    +0.000 A 
ATOM     21  C   UNL     1      46.954   6.509  12.333  0.00  0.00    +0.000 A 
BRANCH  20  22
ATOM     22  C   UNL     1      45.341   5.310  10.809  0.00  0.00    +0.000 A 
ATOM     23  C   UNL     1      45.617   5.216   9.428  0.00  0.00    +0.000 A 
ATOM     24  C   UNL     1      45.282   4.072   8.696  0.00  0.00    +0.000 A 
ATOM     25  C   UNL     1      44.654   3.010   9.332  0.00  0.00    +0.000 A 
ATOM     26  F   UNL     1      44.352   1.907   8.639  0.00  0.00    +0.000 F 
ATOM     27  C   UNL     1      44.345   3.077  10.681  0.00  0.00    +0.000 A 
ATOM     28  C   UNL     1      44.686   4.219  11.415  0.00  0.00    +0.000 A 
ENDBRANCH  20  22
ENDBRANCH  15  16
ENDBRANCH   1  15
TORSDOF 6
ENDMDL
MODEL 7
REMARK VINA RESULT:    -6.292      3.439      6.864
REMARK INTER + INTRA:          -9.763
REMARK INTER:                  -9.003
REMARK INTRA:                  -0.760
REMARK UNBOUND:                -1.264
REMARK  Name = 
REMARK  7 active torsions:
REMARK  status: ('A' for Active; 'I' for Inactive)
REMARK    1  A    between atoms: C_1  and  O_2
REMARK    2  A    between atoms: O_2  and  C_3
REMARK    3  A    between atoms: C_5  and  C_6
REMARK    4  A    between atoms: C_11  and  O_12
REMARK    5  A    between atoms: O_12  and  C_13
REMARK    6  A    between atoms: C_13  and  C_14
REMARK    7  A    between atoms: C_18  and  C_19
REMARK                            x       y       z     vdW  Elec       q    Type
REMARK                         _______ _______ _______ _____ _____    ______ ____
ROOT
ATOM      1  O   UNL     1      44.193   5.764  11.193  0.00  0.00    +0.000 OA
ENDROOT
BRANCH   1   7
ATOM      2  C   UNL     1      44.329   3.532  10.068  0.00  0.00    +0.000 A 
ATOM      3  C   UNL     1      44.961   2.795   9.057  0.00  0.00    +0.000 A 
ATOM      4  C   UNL     1      45.915   3.378   8.209  0.00  0.00    +0.000 A 
ATOM      5  C   UNL     1      46.241   4.724   8.381  0.00  0.00    +0.000 A 
ATOM      6  C   UNL     1      45.627   5.465   9.399  0.00  0.00    +0.000 A 
ATOM      7  C   UNL     1      44.676   4.883  10.251  0.00  0.00    +0.000 A 
BRANCH   4   8
ATOM      8  C   UNL     1      46.509   2.505   7.155  0.00  0.00    +0.000 C 
ATOM      9  N   UNL     1      46.833   3.049   5.948  0.00  0.00    +0.000 N 
ATOM     10  O   UNL     1      46.713   1.311   7.356  0.00  0.00    +0.000 OA
ATOM     11  H   UNL     1      46.697   4.014   5.685  0.00  0.00    +0.000 HD
ATOM     12  H   UNL     1      47.220   2.421   5.255  0.00  0.00    +0.000 HD
ENDBRANCH   4   8
BRANCH   2  14
ATOM     13  C   UNL     1      43.642   2.607  12.168  0.00  0.00    +0.000 C 
ATOM     14  O   UNL     1      43.331   2.999  10.838  0.00  0.00    +0.000 OA
ENDBRANCH   2  14
ENDBRANCH   1   7
BRANCH   1  15
ATOM     15  C   UNL     1      45.022   6.031  12.321  0.00  0.00    +0.000 C 
BRANCH  15  16
ATOM     16  C   UNL     1      45.724   7.352  12.178  0.00  0.00    +0.000 A 
ATOM     17  C   UNL     1      45.031   8.545  12.321  0.00  0.00    +0.000 A 
ATOM     18  N   UNL     1      45.623   9.758  12.323  0.00  0.00    +0.000 NA
ATOM     19  C   UNL     1      46.971   9.777  12.168  0.00  0.00    +0.000 A 
ATOM     20  C   UNL     1      47.783   8.655  11.991  0.00  0.00    +0.000 A 
ATOM     21  C   UNL     1      47.113   7.423  12.004  0.00  0.00    +0.000 A 
BRANCH  20  22
ATOM     22  C   UNL     1      49.246   8.751  11.782  0.00  0.00    +0.000 A 
ATOM     23  C   UNL     1      49.996   7.668  11.278  0.00  0.00    +0.000 A 
ATOM     24  C   UNL     1      51.365   7.788  11.021  0.00  0.00    +0.000 A 
ATOM     25  C   UNL     1      52.008   8.991  11.278  0.00  0.00    +0.000 A 
ATOM     26  F   UNL     1      53.313   9.114  11.015  0.00  0.00    +0.000 F 
ATOM     27  C   UNL     1      51.310  10.068  11.798  0.00  0.00    +0.000 A 
ATOM     28  C   UNL     1      49.938   9.950  12.049  0.00  0.00    +0.000 A 
ENDBRANCH  20  22
ENDBRANCH  15  16
ENDBRANCH   1  15
TORSDOF 6
ENDMDL
MODEL 8
REMARK VINA RESULT:    -6.246      5.260      8.520
REMARK INTER + INTRA:          -9.701
REMARK INTER:                  -8.683
REMARK INTRA:                  -1.018
REMARK UNBOUND:                -1.264
REMARK  Name = 
REMARK  7 active torsions:
REMARK  status: ('A' for Active; 'I' for Inactive)
REMARK    1  A    between atoms: C_1  and  O_2
REMARK    2  A    between atoms: O_2  and  C_3
REMARK    3  A    between atoms: C_5  and  C_6
REMARK    4  A    between atoms: C_11  and  O_12
REMARK    5  A    between atoms: O_12  and  C_13
REMARK    6  A    between atoms: C_13  and  C_14
REMARK    7  A    between atoms: C_18  and  C_19
REMARK                            x       y       z     vdW  Elec       q    Type
REMARK                         _______ _______ _______ _____ _____    ______ ____
ROOT
ATOM      1  O   UNL     1      48.922   6.366  14.286  0.00  0.00    +0.000 OA
ENDROOT
BRANCH   1   7
ATOM      2  C   UNL     1      46.960   4.833  14.033  0.00  0.00    +0.000 A 
ATOM      3  C   UNL     1      45.678   4.695  13.483  0.00  0.00    +0.000 A 
ATOM      4  C   UNL     1      45.065   5.738  12.773  0.00  0.00    +0.000 A 
ATOM      5  C   UNL     1      45.754   6.942  12.612  0.00  0.00    +0.000 A 
ATOM      6  C   UNL     1      47.041   7.086  13.143  0.00  0.00    +0.000 A 
ATOM      7  C   UNL     1      47.657   6.042  13.850  0.00  0.00    +0.000 A 
BRANCH   4   8
ATOM      8  C   UNL     1      43.692   5.487  12.249  0.00  0.00    +0.000 C 
ATOM      9  N   UNL     1      42.637   5.508  13.112  0.00  0.00    +0.000 N 
ATOM     10  O   UNL     1      43.495   5.264  11.057  0.00  0.00    +0.000 OA
ATOM     11  H   UNL     1      42.697   5.675  14.106  0.00  0.00    +0.000 HD
ATOM     12  H   UNL     1      41.724   5.319  12.719  0.00  0.00    +0.000 HD
ENDBRANCH   4   8
BRANCH   2  14
ATOM     13  C   UNL     1      47.147   3.774  16.173  0.00  0.00    +0.000 C 
ATOM     14  O   UNL     1      47.527   3.857  14.806  0.00  0.00    +0.000 OA
ENDBRANCH   2  14
ENDBRANCH   1   7
BRANCH   1  15
ATOM     15  C   UNL     1      49.022   7.274  15.381  0.00  0.00    +0.000 C 
BRANCH  15  16
ATOM     16  C   UNL     1      49.336   6.550  16.660  0.00  0.00    +0.000 A 
ATOM     17  C   UNL     1      48.738   6.922  17.854  0.00  0.00    +0.000 A 
ATOM     18  N   UNL     1      48.886   6.240  19.009  0.00  0.00    +0.000 NA
ATOM     19  C   UNL     1      49.676   5.137  18.968  0.00  0.00    +0.000 A 
ATOM     20  C   UNL     1      50.355   4.668  17.840  0.00  0.00    +0.000 A 
ATOM     21  C   UNL     1      50.157   5.414  16.669  0.00  0.00    +0.000 A 
BRANCH  20  22
ATOM     22  C   UNL     1      51.237   3.480  17.876  0.00  0.00    +0.000 A 
ATOM     23  C   UNL     1      50.800   2.217  17.424  0.00  0.00    +0.000 A 
ATOM     24  C   UNL     1      51.661   1.116  17.398  0.00  0.00    +0.000 A 
ATOM     25  C   UNL     1      52.970   1.258  17.837  0.00  0.00    +0.000 A 
ATOM     26  F   UNL     1      53.800   0.211  17.795  0.00  0.00    +0.000 F 
ATOM     27  C   UNL     1      53.428   2.476  18.312  0.00  0.00    +0.000 A 
ATOM     28  C   UNL     1      52.568   3.580  18.332  0.00  0.00    +0.000 A 
ENDBRANCH  20  22
ENDBRANCH  15  16
ENDBRANCH   1  15
TORSDOF 6
ENDMDL
MODEL 9
REMARK VINA RESULT:    -5.982      5.508      8.524
REMARK INTER + INTRA:          -9.344
REMARK INTER:                  -8.460
REMARK INTRA:                  -0.884
REMARK UNBOUND:                -1.264
REMARK  Name = 
REMARK  7 active torsions:
REMARK  status: ('A' for Active; 'I' for Inactive)
REMARK    1  A    between atoms: C_1  and  O_2
REMARK    2  A    between atoms: O_2  and  C_3
REMARK    3  A    between atoms: C_5  and  C_6
REMARK    4  A    between atoms: C_11  and  O_12
REMARK    5  A    between atoms: O_12  and  C_13
REMARK    6  A    between atoms: C_13  and  C_14
REMARK    7  A    between atoms: C_18  and  C_19
REMARK                            x       y       z     vdW  Elec       q    Type
REMARK                         _______ _______ _______ _____ _____    ______ ____
ROOT
ATOM      1  O   UNL     1      47.426   4.031  14.545  0.00  0.00    +0.000 OA
ENDROOT
BRANCH   1   7
ATOM      2  C   UNL     1      47.368   6.120  13.166  0.00  0.00    +0.000 A 
ATOM      3  C   UNL     1      46.545   6.990  12.440  0.00  0.00    +0.000 A 
ATOM      4  C   UNL     1      45.171   6.749  12.289  0.00  0.00    +0.000 A 
ATOM      5  C   UNL     1      44.614   5.613  12.880  0.00  0.00    +0.000 A 
ATOM      6  C   UNL     1      45.425   4.745  13.621  0.00  0.00    +0.000 A 
ATOM      7  C   UNL     1      46.799   4.987  13.777  0.00  0.00    +0.000 A 
BRANCH   4   8
ATOM      8  C   UNL     1      44.394   7.732  11.479  0.00  0.00    +0.000 C 
ATOM      9  N   UNL     1      43.142   7.401  11.056  0.00  0.00    +0.000 N 
ATOM     10  O   UNL     1      44.861   8.830  11.190  0.00  0.00    +0.000 OA
ATOM     11  H   UNL     1      42.676   6.524  11.235  0.00  0.00    +0.000 HD
ATOM     12  H   UNL     1      42.653   8.090  10.497  0.00  0.00    +0.000 HD
ENDBRANCH   4   8
BRANCH   2  14
ATOM     13  C   UNL     1      49.240   7.122  14.274  0.00  0.00    +0.000 C 
ATOM     14  O   UNL     1      48.724   6.296  13.240  0.00  0.00    +0.000 OA
ENDBRANCH   2  14
ENDBRANCH   1   7
BRANCH   1  15
ATOM     15  C   UNL     1      47.075   3.972  15.926  0.00  0.00    +0.000 C 
BRANCH  15  16
ATOM     16  C   UNL     1      48.254   4.300  16.799  0.00  0.00    +0.000 A 
ATOM     17  C   UNL     1      48.225   5.391  17.653  0.00  0.00    +0.000 A 
ATOM     18  N   UNL     1      49.199   5.669  18.545  0.00  0.00    +0.000 NA
ATOM     19  C   UNL     1      50.254   4.816  18.579  0.00  0.00    +0.000 A 
ATOM     20  C   UNL     1      50.419   3.697  17.760  0.00  0.00    +0.000 A 
ATOM     21  C   UNL     1      49.372   3.456  16.858  0.00  0.00    +0.000 A 
BRANCH  20  22
ATOM     22  C   UNL     1      51.619   2.832  17.819  0.00  0.00    +0.000 A 
ATOM     23  C   UNL     1      51.567   1.466  17.470  0.00  0.00    +0.000 A 
ATOM     24  C   UNL     1      52.718   0.672  17.465  0.00  0.00    +0.000 A 
ATOM     25  C   UNL     1      53.938   1.230  17.822  0.00  0.00    +0.000 A 
ATOM     26  F   UNL     1      55.043   0.478  17.798  0.00  0.00    +0.000 F 
ATOM     27  C   UNL     1      54.023   2.562  18.195  0.00  0.00    +0.000 A 
ATOM     28  C   UNL     1      52.872   3.358  18.195  0.00  0.00    +0.000 A 
ENDBRANCH  20  22
ENDBRANCH  15  16
ENDBRANCH   1  15
TORSDOF 6
ENDMDL
