MODEL 1
REMARK VINA RESULT:    -8.987      0.000      0.000
REMARK INTER + INTRA:         -11.701
REMARK INTER:                 -11.089
REMARK INTRA:                  -0.612
REMARK UNBOUND:                -0.612
REMARK  Name = 
REMARK  4 active torsions:
REMARK  status: ('A' for Active; 'I' for Inactive)
REMARK    1  A    between atoms: C_2  and  C_4
REMARK    2  A    between atoms: N_8  and  C_9
REMARK    3  A    between atoms: C_9  and  C_10
REMARK    4  A    between atoms: C_14  and  N_15
REMARK                            x       y       z     vdW  Elec       q    Type
REMARK                         _______ _______ _______ _____ _____    ______ ____
ROOT
ATOM      1  C   UNL     1      46.440   2.343   7.633  0.00  0.00    +0.000 A 
ATOM      2  C   UNL     1      45.623   1.805   8.617  0.00  0.00    +0.000 A 
ATOM      3  C   UNL     1      44.755   2.646   9.313  0.00  0.00    +0.000 A 
ATOM      4  C   UNL     1      44.720   4.009   9.030  0.00  0.00    +0.000 A 
ATOM      5  N   UNL     1      43.805   4.873   9.600  0.00  0.00    +0.000 N 
ATOM      6  N   UNL     1      45.524   4.545   8.088  0.00  0.00    +0.000 NA
ATOM      7  C   UNL     1      46.369   3.712   7.416  0.00  0.00    +0.000 A 
ATOM      8  H   UNL     1      44.046   5.819   9.322  0.00  0.00    +0.000 HD
ENDROOT
BRANCH   1  10
ATOM      9  N   UNL     1      48.567   2.102   6.475  0.00  0.00    +0.000 N 
ATOM     10  C   UNL     1      47.377   1.525   6.835  0.00  0.00    +0.000 C 
ATOM     11  O   UNL     1      47.116   0.370   6.529  0.00  0.00    +0.000 OA
ATOM     12  H   UNL     1      49.236   1.499   6.018  0.00  0.00    +0.000 HD
ATOM     13  H   UNL     1      48.920   2.939   6.922  0.00  0.00    +0.000 HD
ENDBRANCH   1  10
BRANCH   5  14
ATOM     14  C   UNL     1      43.413   4.728  10.991  0.00  0.00    +0.000 C 
BRANCH  14  15
ATOM     15  C   UNL     1      44.599   4.836  11.918  0.00  0.00    +0.000 A 
ATOM     16  C   UNL     1      44.947   3.747  12.710  0.00  0.00    +0.000 A 
ATOM     17  N   UNL     1      45.953   3.752  13.604  0.00  0.00    +0.000 NA
ATOM     18  C   UNL     1      46.643   4.913  13.717  0.00  0.00    +0.000 A 
ATOM     19  C   UNL     1      46.395   6.091  13.004  0.00  0.00    +0.000 A 
ATOM     20  C   UNL     1      45.326   6.025  12.104  0.00  0.00    +0.000 A 
BRANCH  19  21
ATOM     21  N   UNL     1      47.154   7.227  13.194  0.00  0.00    +0.000 N 
ATOM     22  C   UNL     1      46.582   8.571  13.356  0.00  0.00    +0.000 C 
ATOM     23  C   UNL     1      47.044   9.501  12.225  0.00  0.00    +0.000 C 
ATOM     24  O   UNL     1      48.477   9.507  12.095  0.00  0.00    +0.000 OA
ATOM     25  C   UNL     1      48.952   8.183  11.805  0.00  0.00    +0.000 C 
ATOM     26  C   UNL     1      48.603   7.198  12.933  0.00  0.00    +0.000 C 
ENDBRANCH  19  21
ENDBRANCH  14  15
ENDBRANCH   5  14
TORSDOF 4
ENDMDL
MODEL 2
REMARK VINA RESULT:    -8.668      1.856      2.758
REMARK INTER + INTRA:         -11.307
REMARK INTER:                 -10.598
REMARK INTRA:                  -0.709
REMARK UNBOUND:                -0.612
REMARK  Name = 
REMARK  4 active torsions:
REMARK  status: ('A' for Active; 'I' for Inactive)
REMARK    1  A    between atoms: C_2  and  C_4
REMARK    2  A    between atoms: N_8  and  C_9
REMARK    3  A    between atoms: C_9  and  C_10
REMARK    4  A    between atoms: C_14  and  N_15
REMARK                            x       y       z     vdW  Elec       q    Type
REMARK                         _______ _______ _______ _____ _____    ______ ____
ROOT
ATOM      1  C   UNL     1      46.365   2.248   7.682  0.00  0.00    +0.000 A 
ATOM      2  C   UNL     1      45.628   1.769   8.757  0.00  0.00    +0.000 A 
ATOM      3  C   UNL     1      44.767   2.635   9.430  0.00  0.00    +0.000 A 
ATOM      4  C   UNL     1      44.658   3.965   9.033  0.00  0.00    +0.000 A 
ATOM      5  N   UNL     1      43.742   4.842   9.582  0.00  0.00    +0.000 N 
ATOM      6  N   UNL     1      45.385   4.446   8.003  0.00  0.00    +0.000 NA
ATOM      7  C   UNL     1      46.224   3.589   7.355  0.00  0.00    +0.000 A 
ATOM      8  H   UNL     1      43.927   5.769   9.210  0.00  0.00    +0.000 HD
ENDROOT
BRANCH   1  10
ATOM      9  N   UNL     1      48.305   2.024   6.232  0.00  0.00    +0.000 N 
ATOM     10  C   UNL     1      47.287   1.398   6.903  0.00  0.00    +0.000 C 
ATOM     11  O   UNL     1      47.167   0.180   6.876  0.00  0.00    +0.000 OA
ATOM     12  H   UNL     1      48.984   1.424   5.787  0.00  0.00    +0.000 HD
ATOM     13  H   UNL     1      48.586   2.975   6.439  0.00  0.00    +0.000 HD
ENDBRANCH   1  10
BRANCH   5  14
ATOM     14  C   UNL     1      43.437   4.806  11.001  0.00  0.00    +0.000 C 
BRANCH  14  15
ATOM     15  C   UNL     1      44.409   5.636  11.802  0.00  0.00    +0.000 A 
ATOM     16  C   UNL     1      44.380   7.022  11.685  0.00  0.00    +0.000 A 
ATOM     17  N   UNL     1      45.232   7.853  12.314  0.00  0.00    +0.000 NA
ATOM     18  C   UNL     1      46.169   7.265  13.096  0.00  0.00    +0.000 A 
ATOM     19  C   UNL     1      46.332   5.889  13.293  0.00  0.00    +0.000 A 
ATOM     20  C   UNL     1      45.426   5.080  12.598  0.00  0.00    +0.000 A 
BRANCH  19  21
ATOM     21  N   UNL     1      47.323   5.384  14.108  0.00  0.00    +0.000 N 
ATOM     22  C   UNL     1      47.198   4.128  14.861  0.00  0.00    +0.000 C 
ATOM     23  C   UNL     1      47.290   4.386  16.371  0.00  0.00    +0.000 C 
ATOM     24  O   UNL     1      48.469   5.135  16.712  0.00  0.00    +0.000 OA
ATOM     25  C   UNL     1      48.457   6.406  16.044  0.00  0.00    +0.000 C 
ATOM     26  C   UNL     1      48.450   6.241  14.515  0.00  0.00    +0.000 C 
ENDBRANCH  19  21
ENDBRANCH  14  15
ENDBRANCH   5  14
TORSDOF 4
ENDMDL
MODEL 3
REMARK VINA RESULT:    -7.556      1.622      2.184
REMARK INTER + INTRA:          -9.935
REMARK INTER:                  -9.335
REMARK INTRA:                  -0.600
REMARK UNBOUND:                -0.612
REMARK  Name = 
REMARK  4 active torsions:
REMARK  status: ('A' for Active; 'I' for Inactive)
REMARK    1  A    between atoms: C_2  and  C_4
REMARK    2  A    between atoms: N_8  and  C_9
REMARK    3  A    between atoms: C_9  and  C_10
REMARK    4  A    between atoms: C_14  and  N_15
REMARK                            x       y       z     vdW  Elec       q    Type
REMARK                         _______ _______ _______ _____ _____    ______ ____
ROOT
ATOM      1  C   UNL     1      46.262   2.050   7.965  0.00  0.00    +0.000 A 
ATOM      2  C   UNL     1      45.475   1.798   9.080  0.00  0.00    +0.000 A 
ATOM      3  C   UNL     1      44.735   2.841   9.638  0.00  0.00    +0.000 A 
ATOM      4  C   UNL     1      44.797   4.118   9.088  0.00  0.00    +0.000 A 
ATOM      5  N   UNL     1      44.004   5.163   9.521  0.00  0.00    +0.000 N 
ATOM      6  N   UNL     1      45.575   4.378   8.017  0.00  0.00    +0.000 NA
ATOM      7  C   UNL     1      46.294   3.351   7.482  0.00  0.00    +0.000 A 
ATOM      8  H   UNL     1      44.305   6.009   9.045  0.00  0.00    +0.000 HD
ENDROOT
BRANCH   1  10
ATOM      9  N   UNL     1      46.779  -0.301   7.609  0.00  0.00    +0.000 N 
ATOM     10  C   UNL     1      47.064   1.003   7.300  0.00  0.00    +0.000 C 
ATOM     11  O   UNL     1      47.932   1.284   6.484  0.00  0.00    +0.000 OA
ATOM     12  H   UNL     1      47.266  -1.005   7.074  0.00  0.00    +0.000 HD
ATOM     13  H   UNL     1      45.917  -0.573   8.066  0.00  0.00    +0.000 HD
ENDBRANCH   1  10
BRANCH   5  14
ATOM     14  C   UNL     1      43.702   5.333  10.932  0.00  0.00    +0.000 C 
BRANCH  14  15
ATOM     15  C   UNL     1      44.406   6.535  11.511  0.00  0.00    +0.000 A 
ATOM     16  C   UNL     1      43.907   7.808  11.254  0.00  0.00    +0.000 A 
ATOM     17  N   UNL     1      44.484   8.947  11.679  0.00  0.00    +0.000 NA
ATOM     18  C   UNL     1      45.626   8.806  12.394  0.00  0.00    +0.000 A 
ATOM     19  C   UNL     1      46.254   7.596  12.713  0.00  0.00    +0.000 A 
ATOM     20  C   UNL     1      45.614   6.450  12.227  0.00  0.00    +0.000 A 
BRANCH  19  21
ATOM     21  N   UNL     1      47.422   7.555  13.445  0.00  0.00    +0.000 N 
ATOM     22  C   UNL     1      47.807   8.584  14.421  0.00  0.00    +0.000 C 
ATOM     23  C   UNL     1      49.116   9.270  14.003  0.00  0.00    +0.000 C 
ATOM     24  O   UNL     1      50.158   8.313  13.747  0.00  0.00    +0.000 OA
ATOM     25  C   UNL     1      49.764   7.424  12.689  0.00  0.00    +0.000 C 
ATOM     26  C   UNL     1      48.501   6.630  13.060  0.00  0.00    +0.000 C 
ENDBRANCH  19  21
ENDBRANCH  14  15
ENDBRANCH   5  14
TORSDOF 4
ENDMDL
MODEL 4
REMARK VINA RESULT:    -7.279      1.587      2.190
REMARK INTER + INTRA:          -9.593
REMARK INTER:                  -9.266
REMARK INTRA:                  -0.328
REMARK UNBOUND:                -0.612
REMARK  Name = 
REMARK  4 active torsions:
REMARK  status: ('A' for Active; 'I' for Inactive)
REMARK    1  A    between atoms: C_2  and  C_4
REMARK    2  A    between atoms: N_8  and  C_9
REMARK    3  A    between atoms: C_9  and  C_10
REMARK    4  A    between atoms: C_14  and  N_15
REMARK                            x       y       z     vdW  Elec       q    Type
REMARK                         _______ _______ _______ _____ _____    ______ ____
ROOT
ATOM      1  C   UNL     1      46.534   2.825   7.262  0.00  0.00    +0.000 A 
ATOM      2  C   UNL     1      46.011   4.023   7.732  0.00  0.00    +0.000 A 
ATOM      3  C   UNL     1      45.298   4.028   8.930  0.00  0.00    +0.000 A 
ATOM      4  C   UNL     1      45.105   2.845   9.638  0.00  0.00    +0.000 A 
ATOM      5  N   UNL     1      44.510   2.801  10.884  0.00  0.00    +0.000 N 
ATOM      6  N   UNL     1      45.592   1.672   9.179  0.00  0.00    +0.000 NA
ATOM      7  C   UNL     1      46.285   1.681   8.006  0.00  0.00    +0.000 A 
ATOM      8  H   UNL     1      44.387   1.827  11.143  0.00  0.00    +0.000 HD
ENDROOT
BRANCH   1  10
ATOM      9  N   UNL     1      48.650   2.441   6.124  0.00  0.00    +0.000 N 
ATOM     10  C   UNL     1      47.315   2.730   6.012  0.00  0.00    +0.000 C 
ATOM     11  O   UNL     1      46.790   2.875   4.916  0.00  0.00    +0.000 OA
ATOM     12  H   UNL     1      49.148   2.280   5.261  0.00  0.00    +0.000 HD
ATOM     13  H   UNL     1      49.053   2.064   6.974  0.00  0.00    +0.000 HD
ENDBRANCH   1  10
BRANCH   5  14
ATOM     14  C   UNL     1      43.384   3.662  11.200  0.00  0.00    +0.000 C 
BRANCH  14  15
ATOM     15  C   UNL     1      43.829   5.071  11.503  0.00  0.00    +0.000 A 
ATOM     16  C   UNL     1      43.102   6.141  10.989  0.00  0.00    +0.000 A 
ATOM     17  N   UNL     1      43.438   7.433  11.157  0.00  0.00    +0.000 NA
ATOM     18  C   UNL     1      44.566   7.669  11.869  0.00  0.00    +0.000 A 
ATOM     19  C   UNL     1      45.405   6.697  12.427  0.00  0.00    +0.000 A 
ATOM     20  C   UNL     1      45.010   5.374  12.203  0.00  0.00    +0.000 A 
BRANCH  19  21
ATOM     21  N   UNL     1      46.538   7.037  13.135  0.00  0.00    +0.000 N 
ATOM     22  C   UNL     1      46.807   8.390  13.642  0.00  0.00    +0.000 C 
ATOM     23  C   UNL     1      48.082   8.966  13.009  0.00  0.00    +0.000 C 
ATOM     24  O   UNL     1      49.199   8.073  13.159  0.00  0.00    +0.000 OA
ATOM     25  C   UNL     1      48.916   6.817  12.523  0.00  0.00    +0.000 C 
ATOM     26  C   UNL     1      47.696   6.126  13.155  0.00  0.00    +0.000 C 
ENDBRANCH  19  21
ENDBRANCH  14  15
ENDBRANCH   5  14
TORSDOF 4
ENDMDL
MODEL 5
REMARK VINA RESULT:    -7.186      1.858      6.642
REMARK INTER + INTRA:          -9.478
REMARK INTER:                  -8.809
REMARK INTRA:                  -0.669
REMARK UNBOUND:                -0.612
REMARK  Name = 
REMARK  4 active torsions:
REMARK  status: ('A' for Active; 'I' for Inactive)
REMARK    1  A    between atoms: C_2  and  C_4
REMARK    2  A    between atoms: N_8  and  C_9
REMARK    3  A    between atoms: C_9  and  C_10
REMARK    4  A    between atoms: C_14  and  N_15
REMARK                            x       y       z     vdW  Elec       q    Type
REMARK                         _______ _______ _______ _____ _____    ______ ____
ROOT
ATOM      1  C   UNL     1      49.734   8.168  11.924  0.00  0.00    +0.000 A 
ATOM      2  C   UNL     1      48.540   8.821  11.651  0.00  0.00    +0.000 A 
ATOM      3  C   UNL     1      47.346   8.280  12.127  0.00  0.00    +0.000 A 
ATOM      4  C   UNL     1      47.354   7.094  12.857  0.00  0.00    +0.000 A 
ATOM      5  N   UNL     1      46.224   6.569  13.453  0.00  0.00    +0.000 N 
ATOM      6  N   UNL     1      48.507   6.441  13.111  0.00  0.00    +0.000 NA
ATOM      7  C   UNL     1      49.667   6.980  12.639  0.00  0.00    +0.000 A 
ATOM      8  H   UNL     1      46.459   5.656  13.832  0.00  0.00    +0.000 HD
ENDROOT
BRANCH   1  10
ATOM      9  N   UNL     1      52.089   7.789  11.442  0.00  0.00    +0.000 N 
ATOM     10  C   UNL     1      51.045   8.677  11.474  0.00  0.00    +0.000 C 
ATOM     11  O   UNL     1      51.192   9.839  11.117  0.00  0.00    +0.000 OA
ATOM     12  H   UNL     1      52.951   8.125  11.039  0.00  0.00    +0.000 HD
ATOM     13  H   UNL     1      51.948   6.786  11.476  0.00  0.00    +0.000 HD
ENDBRANCH   1  10
BRANCH   5  14
ATOM     14  C   UNL     1      44.933   6.639  12.790  0.00  0.00    +0.000 C 
BRANCH  14  15
ATOM     15  C   UNL     1      44.506   5.293  12.260  0.00  0.00    +0.000 A 
ATOM     16  C   UNL     1      43.910   4.378  13.122  0.00  0.00    +0.000 A 
ATOM     17  N   UNL     1      43.536   3.135  12.767  0.00  0.00    +0.000 NA
ATOM     18  C   UNL     1      43.779   2.785  11.480  0.00  0.00    +0.000 A 
ATOM     19  C   UNL     1      44.387   3.589  10.509  0.00  0.00    +0.000 A 
ATOM     20  C   UNL     1      44.767   4.863  10.947  0.00  0.00    +0.000 A 
BRANCH  19  21
ATOM     21  N   UNL     1      44.596   3.139   9.222  0.00  0.00    +0.000 N 
ATOM     22  C   UNL     1      44.802   1.727   8.876  0.00  0.00    +0.000 C 
ATOM     23  C   UNL     1      46.187   1.515   8.248  0.00  0.00    +0.000 C 
ATOM     24  O   UNL     1      46.410   2.407   7.142  0.00  0.00    +0.000 OA
ATOM     25  C   UNL     1      46.326   3.772   7.584  0.00  0.00    +0.000 C 
ATOM     26  C   UNL     1      44.935   4.095   8.154  0.00  0.00    +0.000 C 
ENDBRANCH  19  21
ENDBRANCH  14  15
ENDBRANCH   5  14
TORSDOF 4
ENDMDL
MODEL 6
REMARK VINA RESULT:    -6.937      3.559      8.260
REMARK INTER + INTRA:          -9.171
REMARK INTER:                  -8.746
REMARK INTRA:                  -0.425
REMARK UNBOUND:                -0.612
REMARK  Name = 
REMARK  4 active torsions:
REMARK  status: ('A' for Active; 'I' for Inactive)
REMARK    1  A    between atoms: C_2  and  C_4
REMARK    2  A    between atoms: N_8  and  C_9
REMARK    3  A    between atoms: C_9  and  C_10
REMARK    4  A    between atoms: C_14  and  N_15
REMARK                            x       y       z     vdW  Elec       q    Type
REMARK                         _______ _______ _______ _____ _____    ______ ____
ROOT
ATOM      1  C   UNL     1      48.693   4.454  18.181  0.00  0.00    +0.000 A 
ATOM      2  C   UNL     1      48.683   5.549  17.328  0.00  0.00    +0.000 A 
ATOM      3  C   UNL     1      47.917   5.495  16.164  0.00  0.00    +0.000 A 
ATOM      4  C   UNL     1      47.183   4.352  15.858  0.00  0.00    +0.000 A 
ATOM      5  N   UNL     1      46.317   4.278  14.784  0.00  0.00    +0.000 N 
ATOM      6  N   UNL     1      47.202   3.275  16.671  0.00  0.00    +0.000 NA
ATOM      7  C   UNL     1      47.955   3.340  17.805  0.00  0.00    +0.000 A 
ATOM      8  H   UNL     1      45.985   3.321  14.709  0.00  0.00    +0.000 HD
ENDROOT
BRANCH   1  10
ATOM      9  N   UNL     1      48.811   3.993  20.568  0.00  0.00    +0.000 N 
ATOM     10  C   UNL     1      49.461   4.430  19.443  0.00  0.00    +0.000 C 
ATOM     11  O   UNL     1      50.639   4.760  19.481  0.00  0.00    +0.000 OA
ATOM     12  H   UNL     1      49.375   3.887  21.398  0.00  0.00    +0.000 HD
ATOM     13  H   UNL     1      47.941   3.477  20.524  0.00  0.00    +0.000 HD
ENDBRANCH   1  10
BRANCH   5  14
ATOM     14  C   UNL     1      46.647   4.910  13.518  0.00  0.00    +0.000 C 
BRANCH  14  15
ATOM     15  C   UNL     1      45.516   4.795  12.527  0.00  0.00    +0.000 A 
ATOM     16  C   UNL     1      44.271   5.326  12.849  0.00  0.00    +0.000 A 
ATOM     17  N   UNL     1      43.184   5.236  12.060  0.00  0.00    +0.000 NA
ATOM     18  C   UNL     1      43.349   4.572  10.891  0.00  0.00    +0.000 A 
ATOM     19  C   UNL     1      44.531   3.971  10.445  0.00  0.00    +0.000 A 
ATOM     20  C   UNL     1      45.619   4.085  11.318  0.00  0.00    +0.000 A 
BRANCH  19  21
ATOM     21  N   UNL     1      44.599   3.311   9.236  0.00  0.00    +0.000 N 
ATOM     22  C   UNL     1      44.724   1.852   9.110  0.00  0.00    +0.000 C 
ATOM     23  C   UNL     1      46.034   1.476   8.402  0.00  0.00    +0.000 C 
ATOM     24  O   UNL     1      46.178   2.167   7.149  0.00  0.00    +0.000 OA
ATOM     25  C   UNL     1      46.181   3.587   7.366  0.00  0.00    +0.000 C 
ATOM     26  C   UNL     1      44.864   4.065   7.999  0.00  0.00    +0.000 C 
ENDBRANCH  19  21
ENDBRANCH  14  15
ENDBRANCH   5  14
TORSDOF 4
ENDMDL
MODEL 7
REMARK VINA RESULT:    -6.595      4.745      8.050
REMARK INTER + INTRA:          -8.750
REMARK INTER:                  -8.183
REMARK INTRA:                  -0.567
REMARK UNBOUND:                -0.612
REMARK  Name = 
REMARK  4 active torsions:
REMARK  status: ('A' for Active; 'I' for Inactive)
REMARK    1  A    between atoms: C_2  and  C_4
REMARK    2  A    between atoms: N_8  and  C_9
REMARK    3  A    between atoms: C_9  and  C_10
REMARK    4  A    between atoms: C_14  and  N_15
REMARK                            x       y       z     vdW  Elec       q    Type
REMARK                         _______ _______ _______ _____ _____    ______ ____
ROOT
ATOM      1  C   UNL     1      51.376   2.053  17.471  0.00  0.00    +0.000 A 
ATOM      2  C   UNL     1      50.918   3.252  18.000  0.00  0.00    +0.000 A 
ATOM      3  C   UNL     1      49.648   3.708  17.647  0.00  0.00    +0.000 A 
ATOM      4  C   UNL     1      48.858   2.973  16.768  0.00  0.00    +0.000 A 
ATOM      5  N   UNL     1      47.551   3.310  16.469  0.00  0.00    +0.000 N 
ATOM      6  N   UNL     1      49.302   1.816  16.233  0.00  0.00    +0.000 NA
ATOM      7  C   UNL     1      50.545   1.383  16.585  0.00  0.00    +0.000 A 
ATOM      8  H   UNL     1      47.225   2.692  15.732  0.00  0.00    +0.000 HD
ENDROOT
BRANCH   1  10
ATOM      9  N   UNL     1      52.749   0.160  18.147  0.00  0.00    +0.000 N 
ATOM     10  C   UNL     1      52.700   1.486  17.803  0.00  0.00    +0.000 C 
ATOM     11  O   UNL     1      53.717   2.164  17.747  0.00  0.00    +0.000 OA
ATOM     12  H   UNL     1      53.669  -0.236  18.272  0.00  0.00    +0.000 HD
ATOM     13  H   UNL     1      51.987  -0.478  17.953  0.00  0.00    +0.000 HD
ENDBRANCH   1  10
BRANCH   5  14
ATOM     14  C   UNL     1      47.157   4.699  16.319  0.00  0.00    +0.000 C 
BRANCH  14  15
ATOM     15  C   UNL     1      47.039   5.091  14.867  0.00  0.00    +0.000 A 
ATOM     16  C   UNL     1      47.981   5.953  14.314  0.00  0.00    +0.000 A 
ATOM     17  N   UNL     1      47.942   6.403  13.047  0.00  0.00    +0.000 NA
ATOM     18  C   UNL     1      46.900   5.975  12.293  0.00  0.00    +0.000 A 
ATOM     19  C   UNL     1      45.871   5.128  12.718  0.00  0.00    +0.000 A 
ATOM     20  C   UNL     1      45.961   4.708  14.051  0.00  0.00    +0.000 A 
BRANCH  19  21
ATOM     21  N   UNL     1      44.847   4.750  11.875  0.00  0.00    +0.000 N 
ATOM     22  C   UNL     1      43.581   4.168  12.341  0.00  0.00    +0.000 C 
ATOM     23  C   UNL     1      43.396   2.749  11.786  0.00  0.00    +0.000 C 
ATOM     24  O   UNL     1      43.543   2.714  10.356  0.00  0.00    +0.000 OA
ATOM     25  C   UNL     1      44.853   3.171   9.983  0.00  0.00    +0.000 C 
ATOM     26  C   UNL     1      45.093   4.623  10.428  0.00  0.00    +0.000 C 
ENDBRANCH  19  21
ENDBRANCH  14  15
ENDBRANCH   5  14
TORSDOF 4
ENDMDL
MODEL 8
REMARK VINA RESULT:    -6.139      2.496      7.834
REMARK INTER + INTRA:          -8.186
REMARK INTER:                  -7.754
REMARK INTRA:                  -0.432
REMARK UNBOUND:                -0.612
REMARK  Name = 
REMARK  4 active torsions:
REMARK  status: ('A' for Active; 'I' for Inactive)
REMARK    1  A    between atoms: C_2  and  C_4
REMARK    2  A    between atoms: N_8  and  C_9
REMARK    3  A    between atoms: C_9  and  C_10
REMARK    4  A    between atoms: C_14  and  N_15
REMARK                            x       y       z     vdW  Elec       q    Type
REMARK                         _______ _______ _______ _____ _____    ______ ____
ROOT
ATOM      1  C   UNL     1      50.312   8.377  15.111  0.00  0.00    +0.000 A 
ATOM      2  C   UNL     1      49.325   9.077  14.430  0.00  0.00    +0.000 A 
ATOM      3  C   UNL     1      48.184   8.399  14.003  0.00  0.00    +0.000 A 
ATOM      4  C   UNL     1      48.044   7.036  14.249  0.00  0.00    +0.000 A 
ATOM      5  N   UNL     1      46.891   6.332  13.955  0.00  0.00    +0.000 N 
ATOM      6  N   UNL     1      49.006   6.342  14.893  0.00  0.00    +0.000 NA
ATOM      7  C   UNL     1      50.117   7.017  15.303  0.00  0.00    +0.000 A 
ATOM      8  H   UNL     1      47.069   5.347  14.125  0.00  0.00    +0.000 HD
ENDROOT
BRANCH   1  10
ATOM      9  N   UNL     1      51.473   9.660  16.823  0.00  0.00    +0.000 N 
ATOM     10  C   UNL     1      51.544   9.017  15.614  0.00  0.00    +0.000 C 
ATOM     11  O   UNL     1      52.596   8.955  14.992  0.00  0.00    +0.000 OA
ATOM     12  H   UNL     1      52.343  10.005  17.199  0.00  0.00    +0.000 HD
ATOM     13  H   UNL     1      50.709   9.509  17.471  0.00  0.00    +0.000 HD
ENDBRANCH   1  10
BRANCH   5  14
ATOM     14  C   UNL     1      46.134   6.616  12.749  0.00  0.00    +0.000 C 
BRANCH  14  15
ATOM     15  C   UNL     1      45.345   5.415  12.291  0.00  0.00    +0.000 A 
ATOM     16  C   UNL     1      44.571   4.716  13.212  0.00  0.00    +0.000 A 
ATOM     17  N   UNL     1      43.869   3.605  12.923  0.00  0.00    +0.000 NA
ATOM     18  C   UNL     1      43.951   3.165  11.644  0.00  0.00    +0.000 A 
ATOM     19  C   UNL     1      44.702   3.750  10.618  0.00  0.00    +0.000 A 
ATOM     20  C   UNL     1      45.422   4.892  10.989  0.00  0.00    +0.000 A 
BRANCH  19  21
ATOM     21  N   UNL     1      44.725   3.223   9.344  0.00  0.00    +0.000 N 
ATOM     22  C   UNL     1      44.826   1.786   9.059  0.00  0.00    +0.000 C 
ATOM     23  C   UNL     1      46.108   1.474   8.275  0.00  0.00    +0.000 C 
ATOM     24  O   UNL     1      46.225   2.294   7.099  0.00  0.00    +0.000 OA
ATOM     25  C   UNL     1      46.255   3.682   7.466  0.00  0.00    +0.000 C 
ATOM     26  C   UNL     1      44.963   4.103   8.187  0.00  0.00    +0.000 C 
ENDBRANCH  19  21
ENDBRANCH  14  15
ENDBRANCH   5  14
TORSDOF 4
ENDMDL
MODEL 9
REMARK VINA RESULT:    -6.091      4.109      6.325
REMARK INTER + INTRA:          -8.127
REMARK INTER:                  -7.474
REMARK INTRA:                  -0.654
REMARK UNBOUND:                -0.612
REMARK  Name = 
REMARK  4 active torsions:
REMARK  status: ('A' for Active; 'I' for Inactive)
REMARK    1  A    between atoms: C_2  and  C_4
REMARK    2  A    between atoms: N_8  and  C_9
REMARK    3  A    between atoms: C_9  and  C_10
REMARK    4  A    between atoms: C_14  and  N_15
REMARK                            x       y       z     vdW  Elec       q    Type
REMARK                         _______ _______ _______ _____ _____    ______ ____
ROOT
ATOM      1  C   UNL     1      44.648   5.239  11.492  0.00  0.00    +0.000 A 
ATOM      2  C   UNL     1      45.691   4.759  12.272  0.00  0.00    +0.000 A 
ATOM      3  C   UNL     1      46.461   5.661  13.006  0.00  0.00    +0.000 A 
ATOM      4  C   UNL     1      46.191   7.025  12.946  0.00  0.00    +0.000 A 
ATOM      5  N   UNL     1      46.840   7.956  13.735  0.00  0.00    +0.000 N 
ATOM      6  N   UNL     1      45.192   7.504  12.176  0.00  0.00    +0.000 NA
ATOM      7  C   UNL     1      44.448   6.612  11.463  0.00  0.00    +0.000 A 
ATOM      8  H   UNL     1      46.549   8.883  13.436  0.00  0.00    +0.000 HD
ENDROOT
BRANCH   1  10
ATOM      9  N   UNL     1      43.798   4.504   9.334  0.00  0.00    +0.000 N 
ATOM     10  C   UNL     1      43.771   4.356  10.696  0.00  0.00    +0.000 C 
ATOM     11  O   UNL     1      43.068   3.506  11.227  0.00  0.00    +0.000 OA
ATOM     12  H   UNL     1      43.271   3.828   8.800  0.00  0.00    +0.000 HD
ATOM     13  H   UNL     1      44.541   5.000   8.858  0.00  0.00    +0.000 HD
ENDBRANCH   1  10
BRANCH   5  14
ATOM     14  C   UNL     1      48.257   7.826  14.025  0.00  0.00    +0.000 C 
BRANCH  14  15
ATOM     15  C   UNL     1      48.499   7.482  15.474  0.00  0.00    +0.000 A 
ATOM     16  C   UNL     1      48.611   8.507  16.409  0.00  0.00    +0.000 A 
ATOM     17  N   UNL     1      48.874   8.314  17.714  0.00  0.00    +0.000 NA
ATOM     18  C   UNL     1      49.043   7.028  18.105  0.00  0.00    +0.000 A 
ATOM     19  C   UNL     1      48.979   5.901  17.277  0.00  0.00    +0.000 A 
ATOM     20  C   UNL     1      48.719   6.170  15.929  0.00  0.00    +0.000 A 
BRANCH  19  21
ATOM     21  N   UNL     1      49.170   4.627  17.770  0.00  0.00    +0.000 N 
ATOM     22  C   UNL     1      50.447   4.147  18.315  0.00  0.00    +0.000 C 
ATOM     23  C   UNL     1      50.987   2.972  17.488  0.00  0.00    +0.000 C 
ATOM     24  O   UNL     1      50.006   1.930  17.343  0.00  0.00    +0.000 OA
ATOM     25  C   UNL     1      48.838   2.440  16.681  0.00  0.00    +0.000 C 
ATOM     26  C   UNL     1      48.181   3.572  17.488  0.00  0.00    +0.000 C 
ENDBRANCH  19  21
ENDBRANCH  14  15
ENDBRANCH   5  14
TORSDOF 4
ENDMDL
