MODEL 1
REMARK VINA RESULT:    -7.990      0.000      0.000
REMARK INTER + INTRA:         -11.844
REMARK INTER:                 -10.793
REMARK INTRA:                  -1.051
REMARK UNBOUND:                -1.051
REMARK  Name = 
REMARK  7 active torsions:
REMARK  status: ('A' for Active; 'I' for Inactive)
REMARK    1  A    between atoms: C_1  and  C_2
REMARK    2  A    between atoms: C_5  and  C_6
REMARK    3  A    between atoms: N_8  and  C_9
REMARK    4  A    between atoms: C_9  and  C_10
REMARK    5  A    between atoms: C_13  and  C_14
REMARK    6  A    between atoms: C_14  and  N_15
REMARK    7  A    between atoms: C_16  and  C_18
REMARK                            x       y       z     vdW  Elec       q    Type
REMARK                         _______ _______ _______ _____ _____    ______ ____
ROOT
ATOM      1  C   UNL     1      44.875   6.140  11.177  0.00  0.00    +0.000 A 
ATOM      2  C   UNL     1      46.088   5.632  11.666  0.00  0.00    +0.000 A 
ATOM      3  C   UNL     1      46.908   6.404  12.506  0.00  0.00    +0.000 A 
ATOM      4  C   UNL     1      46.525   7.693  12.898  0.00  0.00    +0.000 A 
ATOM      5  C   UNL     1      45.315   8.202  12.407  0.00  0.00    +0.000 A 
ATOM      6  C   UNL     1      44.497   7.432  11.566  0.00  0.00    +0.000 A 
ENDROOT
BRANCH   1   7
ATOM      7  C   UNL     1      44.002   5.320  10.254  0.00  0.00    +0.000 C 
BRANCH   7  10
ATOM      8  C   UNL     1      44.680   3.113   9.365  0.00  0.00    +0.000 C 
ATOM      9  O   UNL     1      43.933   2.502  10.128  0.00  0.00    +0.000 OA
ATOM     10  N   UNL     1      44.772   4.489   9.364  0.00  0.00    +0.000 N 
ATOM     11  H   UNL     1      45.373   4.912   8.666  0.00  0.00    +0.000 HD
BRANCH   8  16
ATOM     12  C   UNL     1      47.293   2.954   5.302  0.00  0.00    +0.000 C 
ATOM     13  C   UNL     1      46.737   2.363   6.538  0.00  0.00    +0.000 A 
ATOM     14  C   UNL     1      46.837   1.123   7.126  0.00  0.00    +0.000 A 
ATOM     15  C   UNL     1      46.065   1.186   8.316  0.00  0.00    +0.000 A 
ATOM     16  C   UNL     1      45.536   2.463   8.385  0.00  0.00    +0.000 A 
ATOM     17  O   UNL     1      45.950   3.181   7.291  0.00  0.00    +0.000 OA
ENDBRANCH   8  16
ENDBRANCH   7  10
ENDBRANCH   1   7
BRANCH   4  18
ATOM     18  C   UNL     1      47.393   8.523  13.817  0.00  0.00    +0.000 C 
BRANCH  18  19
ATOM     19  N   UNL     1      47.831   7.782  14.972  0.00  0.00    +0.000 N 
ATOM     20  C   UNL     1      49.105   7.284  15.077  0.00  0.00    +0.000 C 
ATOM     21  O   UNL     1      49.951   7.466  14.206  0.00  0.00    +0.000 OA
ATOM     22  H   UNL     1      47.103   7.393  15.566  0.00  0.00    +0.000 HD
BRANCH  20  23
ATOM     23  C   UNL     1      49.429   6.573  16.322  0.00  0.00    +0.000 A 
ATOM     24  C   UNL     1      50.437   7.046  17.154  0.00  0.00    +0.000 A 
ATOM     25  S   UNL     1      50.647   6.117  18.571  0.00  0.00    +0.000 S 
ATOM     26  C   UNL     1      49.435   5.020  18.098  0.00  0.00    +0.000 A 
ATOM     27  N   UNL     1      49.127   3.940  18.866  0.00  0.00    +0.000 NA
ATOM     28  C   UNL     1      48.206   3.179  18.373  0.00  0.00    +0.000 A 
ATOM     29  N   UNL     1      47.563   3.406  17.185  0.00  0.00    +0.000 N 
ATOM     30  C   UNL     1      47.814   4.501  16.396  0.00  0.00    +0.000 A 
ATOM     31  O   UNL     1      47.174   4.706  15.370  0.00  0.00    +0.000 OA
ATOM     32  C   UNL     1      48.858   5.375  16.892  0.00  0.00    +0.000 A 
ATOM     33  H   UNL     1      46.836   2.782  16.863  0.00  0.00    +0.000 HD
ENDBRANCH  20  23
ENDBRANCH  18  19
ENDBRANCH   4  18
TORSDOF 6
ENDMDL
MODEL 2
REMARK VINA RESULT:    -7.703      0.871      1.485
REMARK INTER + INTRA:         -11.456
REMARK INTER:                 -10.484
REMARK INTRA:                  -0.972
REMARK UNBOUND:                -1.051
REMARK  Name = 
REMARK  7 active torsions:
REMARK  status: ('A' for Active; 'I' for Inactive)
REMARK    1  A    between atoms: C_1  and  C_2
REMARK    2  A    between atoms: C_5  and  C_6
REMARK    3  A    between atoms: N_8  and  C_9
REMARK    4  A    between atoms: C_9  and  C_10
REMARK    5  A    between atoms: C_13  and  C_14
REMARK    6  A    between atoms: C_14  and  N_15
REMARK    7  A    between atoms: C_16  and  C_18
REMARK                            x       y       z     vdW  Elec       q    Type
REMARK                         _______ _______ _______ _____ _____    ______ ____
ROOT
ATOM      1  C   UNL     1      44.981   6.586  11.542  0.00  0.00    +0.000 A 
ATOM      2  C   UNL     1      44.778   7.959  11.749  0.00  0.00    +0.000 A 
ATOM      3  C   UNL     1      45.619   8.693  12.601  0.00  0.00    +0.000 A 
ATOM      4  C   UNL     1      46.700   8.079  13.248  0.00  0.00    +0.000 A 
ATOM      5  C   UNL     1      46.902   6.708  13.044  0.00  0.00    +0.000 A 
ATOM      6  C   UNL     1      46.060   5.973  12.195  0.00  0.00    +0.000 A 
ENDROOT
BRANCH   1   7
ATOM      7  C   UNL     1      44.062   5.789  10.644  0.00  0.00    +0.000 C 
BRANCH   7  10
ATOM      8  C   UNL     1      44.603   3.598   9.631  0.00  0.00    +0.000 C 
ATOM      9  O   UNL     1      43.808   2.994  10.352  0.00  0.00    +0.000 OA
ATOM     10  N   UNL     1      44.785   4.962   9.713  0.00  0.00    +0.000 N 
ATOM     11  H   UNL     1      45.421   5.384   9.046  0.00  0.00    +0.000 HD
BRANCH   8  16
ATOM     12  C   UNL     1      46.806  -0.190   7.594  0.00  0.00    +0.000 C 
ATOM     13  C   UNL     1      46.439   1.240   7.670  0.00  0.00    +0.000 A 
ATOM     14  C   UNL     1      46.718   2.334   6.884  0.00  0.00    +0.000 A 
ATOM     15  C   UNL     1      46.066   3.437   7.495  0.00  0.00    +0.000 A 
ATOM     16  C   UNL     1      45.425   2.951   8.621  0.00  0.00    +0.000 A 
ATOM     17  O   UNL     1      45.659   1.603   8.725  0.00  0.00    +0.000 OA
ENDBRANCH   8  16
ENDBRANCH   7  10
ENDBRANCH   1   7
BRANCH   4  18
ATOM     18  C   UNL     1      47.622   8.867  14.152  0.00  0.00    +0.000 C 
BRANCH  18  19
ATOM     19  N   UNL     1      47.922   8.162  15.373  0.00  0.00    +0.000 N 
ATOM     20  C   UNL     1      49.204   7.821  15.721  0.00  0.00    +0.000 C 
ATOM     21  O   UNL     1      50.171   8.119  15.025  0.00  0.00    +0.000 OA
ATOM     22  H   UNL     1      47.147   7.677  15.821  0.00  0.00    +0.000 HD
BRANCH  20  23
ATOM     23  C   UNL     1      49.371   7.131  17.008  0.00  0.00    +0.000 A 
ATOM     24  C   UNL     1      50.004   7.772  18.066  0.00  0.00    +0.000 A 
ATOM     25  S   UNL     1      50.074   6.835  19.492  0.00  0.00    +0.000 S 
ATOM     26  C   UNL     1      49.308   5.520  18.731  0.00  0.00    +0.000 A 
ATOM     27  N   UNL     1      49.084   4.356  19.398  0.00  0.00    +0.000 NA
ATOM     28  C   UNL     1      48.518   3.435  18.691  0.00  0.00    +0.000 A 
ATOM     29  N   UNL     1      48.150   3.578  17.378  0.00  0.00    +0.000 N 
ATOM     30  C   UNL     1      48.321   4.744  16.676  0.00  0.00    +0.000 A 
ATOM     31  O   UNL     1      47.922   4.857  15.522  0.00  0.00    +0.000 OA
ATOM     32  C   UNL     1      48.976   5.803  17.418  0.00  0.00    +0.000 A 
ATOM     33  H   UNL     1      47.692   2.824  16.885  0.00  0.00    +0.000 HD
ENDBRANCH  20  23
ENDBRANCH  18  19
ENDBRANCH   4  18
TORSDOF 6
ENDMDL
MODEL 3
REMARK VINA RESULT:    -7.542      1.974      2.330
REMARK INTER + INTRA:         -11.238
REMARK INTER:                 -10.428
REMARK INTRA:                  -0.810
REMARK UNBOUND:                -1.051
REMARK  Name = 
REMARK  7 active torsions:
REMARK  status: ('A' for Active; 'I' for Inactive)
REMARK    1  A    between atoms: C_1  and  C_2
REMARK    2  A    between atoms: C_5  and  C_6
REMARK    3  A    between atoms: N_8  and  C_9
REMARK    4  A    between atoms: C_9  and  C_10
REMARK    5  A    between atoms: C_13  and  C_14
REMARK    6  A    between atoms: C_14  and  N_15
REMARK    7  A    between atoms: C_16  and  C_18
REMARK                            x       y       z     vdW  Elec       q    Type
REMARK                         _______ _______ _______ _____ _____    ______ ____
ROOT
ATOM      1  C   UNL     1      45.517   4.628  12.483  0.00  0.00    +0.000 A 
ATOM      2  C   UNL     1      45.640   5.989  12.165  0.00  0.00    +0.000 A 
ATOM      3  C   UNL     1      46.506   6.824  12.889  0.00  0.00    +0.000 A 
ATOM      4  C   UNL     1      47.291   6.315  13.933  0.00  0.00    +0.000 A 
ATOM      5  C   UNL     1      47.166   4.957  14.253  0.00  0.00    +0.000 A 
ATOM      6  C   UNL     1      46.298   4.122  13.531  0.00  0.00    +0.000 A 
ENDROOT
BRANCH   1   7
ATOM      7  C   UNL     1      44.567   3.732  11.720  0.00  0.00    +0.000 C 
BRANCH   7  10
ATOM      8  C   UNL     1      45.006   3.388   9.311  0.00  0.00    +0.000 C 
ATOM      9  O   UNL     1      44.252   4.301   8.975  0.00  0.00    +0.000 OA
ATOM     10  N   UNL     1      45.213   3.048  10.630  0.00  0.00    +0.000 N 
ATOM     11  H   UNL     1      45.890   2.317  10.819  0.00  0.00    +0.000 HD
BRANCH   8  16
ATOM     12  C   UNL     1      47.563   2.667   5.274  0.00  0.00    +0.000 C 
ATOM     13  C   UNL     1      46.930   2.221   6.532  0.00  0.00    +0.000 A 
ATOM     14  C   UNL     1      46.851   1.008   7.177  0.00  0.00    +0.000 A 
ATOM     15  C   UNL     1      46.097   1.235   8.358  0.00  0.00    +0.000 A 
ATOM     16  C   UNL     1      45.758   2.577   8.366  0.00  0.00    +0.000 A 
ATOM     17  O   UNL     1      46.270   3.176   7.243  0.00  0.00    +0.000 OA
ENDBRANCH   8  16
ENDBRANCH   7  10
ENDBRANCH   1   7
BRANCH   4  18
ATOM     18  C   UNL     1      48.240   7.203  14.705  0.00  0.00    +0.000 C 
BRANCH  18  19
ATOM     19  N   UNL     1      49.315   6.458  15.310  0.00  0.00    +0.000 N 
ATOM     20  C   UNL     1      49.275   6.059  16.622  0.00  0.00    +0.000 C 
ATOM     21  O   UNL     1      48.311   6.290  17.346  0.00  0.00    +0.000 OA
ATOM     22  H   UNL     1      50.213   6.486  14.834  0.00  0.00    +0.000 HD
BRANCH  20  23
ATOM     23  C   UNL     1      50.424   5.278  17.104  0.00  0.00    +0.000 A 
ATOM     24  C   UNL     1      51.573   5.926  17.543  0.00  0.00    +0.000 A 
ATOM     25  S   UNL     1      52.787   4.864  18.101  0.00  0.00    +0.000 S 
ATOM     26  C   UNL     1      51.843   3.499  17.727  0.00  0.00    +0.000 A 
ATOM     27  N   UNL     1      52.315   2.240  17.933  0.00  0.00    +0.000 NA
ATOM     28  C   UNL     1      51.502   1.299  17.580  0.00  0.00    +0.000 A 
ATOM     29  N   UNL     1      50.257   1.507  17.047  0.00  0.00    +0.000 N 
ATOM     30  C   UNL     1      49.724   2.757  16.856  0.00  0.00    +0.000 A 
ATOM     31  O   UNL     1      48.581   2.904  16.435  0.00  0.00    +0.000 OA
ATOM     32  C   UNL     1      50.607   3.850  17.212  0.00  0.00    +0.000 A 
ATOM     33  H   UNL     1      49.660   0.727  16.809  0.00  0.00    +0.000 HD
ENDBRANCH  20  23
ENDBRANCH  18  19
ENDBRANCH   4  18
TORSDOF 6
ENDMDL
MODEL 4
REMARK VINA RESULT:    -7.305      2.127      2.227
REMARK INTER + INTRA:         -10.919
REMARK INTER:                 -10.136
REMARK INTRA:                  -0.783
REMARK UNBOUND:                -1.051
REMARK  Name = 
REMARK  7 active torsions:
REMARK  status: ('A' for Active; 'I' for Inactive)
REMARK    1  A    between atoms: C_1  and  C_2
REMARK    2  A    between atoms: C_5  and  C_6
REMARK    3  A    between atoms: N_8  and  C_9
REMARK    4  A    between atoms: C_9  and  C_10
REMARK    5  A    between atoms: C_13  and  C_14
REMARK    6  A    between atoms: C_14  and  N_15
REMARK    7  A    between atoms: C_16  and  C_18
REMARK                            x       y       z     vdW  Elec       q    Type
REMARK                         _______ _______ _______ _____ _____    ______ ____
ROOT
ATOM      1  C   UNL     1      45.244   6.746  11.792  0.00  0.00    +0.000 A 
ATOM      2  C   UNL     1      46.440   6.173  12.251  0.00  0.00    +0.000 A 
ATOM      3  C   UNL     1      47.367   6.929  12.986  0.00  0.00    +0.000 A 
ATOM      4  C   UNL     1      47.111   8.269  13.305  0.00  0.00    +0.000 A 
ATOM      5  C   UNL     1      45.918   8.842  12.844  0.00  0.00    +0.000 A 
ATOM      6  C   UNL     1      44.992   8.088  12.107  0.00  0.00    +0.000 A 
ENDROOT
BRANCH   1   7
ATOM      7  C   UNL     1      44.256   5.940  10.980  0.00  0.00    +0.000 C 
BRANCH   7  10
ATOM      8  C   UNL     1      44.455   3.768   9.812  0.00  0.00    +0.000 C 
ATOM      9  O   UNL     1      43.467   3.298  10.378  0.00  0.00    +0.000 OA
ATOM     10  N   UNL     1      44.904   5.049  10.052  0.00  0.00    +0.000 N 
ATOM     11  H   UNL     1      45.693   5.373   9.503  0.00  0.00    +0.000 HD
BRANCH   8  16
ATOM     12  C   UNL     1      46.899   3.304   5.669  0.00  0.00    +0.000 C 
ATOM     13  C   UNL     1      46.369   2.798   6.953  0.00  0.00    +0.000 A 
ATOM     14  C   UNL     1      46.445   1.586   7.599  0.00  0.00    +0.000 A 
ATOM     15  C   UNL     1      45.723   1.738   8.812  0.00  0.00    +0.000 A 
ATOM     16  C   UNL     1      45.247   3.037   8.835  0.00  0.00    +0.000 A 
ATOM     17  O   UNL     1      45.644   3.683   7.692  0.00  0.00    +0.000 OA
ENDBRANCH   8  16
ENDBRANCH   7  10
ENDBRANCH   1   7
BRANCH   4  18
ATOM     18  C   UNL     1      48.095   9.085  14.113  0.00  0.00    +0.000 C 
BRANCH  18  19
ATOM     19  N   UNL     1      47.807   9.046  15.524  0.00  0.00    +0.000 N 
ATOM     20  C   UNL     1      48.660   8.460  16.425  0.00  0.00    +0.000 C 
ATOM     21  O   UNL     1      49.728   7.959  16.083  0.00  0.00    +0.000 OA
ATOM     22  H   UNL     1      46.840   9.203  15.796  0.00  0.00    +0.000 HD
BRANCH  20  23
ATOM     23  C   UNL     1      48.259   8.518  17.838  0.00  0.00    +0.000 A 
ATOM     24  C   UNL     1      48.126   9.745  18.476  0.00  0.00    +0.000 A 
ATOM     25  S   UNL     1      47.617   9.621  20.101  0.00  0.00    +0.000 S 
ATOM     26  C   UNL     1      47.607   7.921  20.026  0.00  0.00    +0.000 A 
ATOM     27  N   UNL     1      47.286   7.172  21.114  0.00  0.00    +0.000 NA
ATOM     28  C   UNL     1      47.344   5.896  20.921  0.00  0.00    +0.000 A 
ATOM     29  N   UNL     1      47.688   5.304  19.734  0.00  0.00    +0.000 N 
ATOM     30  C   UNL     1      47.984   6.018  18.600  0.00  0.00    +0.000 A 
ATOM     31  O   UNL     1      48.226   5.454  17.538  0.00  0.00    +0.000 OA
ATOM     32  C   UNL     1      47.957   7.456  18.770  0.00  0.00    +0.000 A 
ATOM     33  H   UNL     1      47.697   4.297  19.642  0.00  0.00    +0.000 HD
ENDBRANCH  20  23
ENDBRANCH  18  19
ENDBRANCH   4  18
TORSDOF 6
ENDMDL
MODEL 5
REMARK VINA RESULT:    -7.010      1.824      2.135
REMARK INTER + INTRA:         -10.520
REMARK INTER:                  -9.693
REMARK INTRA:                  -0.827
REMARK UNBOUND:                -1.051
REMARK  Name = 
REMARK  7 active torsions:
REMARK  status: ('A' for Active; 'I' for Inactive)
REMARK    1  A    between atoms: C_1  and  C_2
REMARK    2  A    between atoms: C_5  and  C_6
REMARK    3  A    between atoms: N_8  and  C_9
REMARK    4  A    between atoms: C_9  and  C_10
REMARK    5  A    between atoms: C_13  and  C_14
REMARK    6  A    between atoms: C_14  and  N_15
REMARK    7  A    between atoms: C_16  and  C_18
REMARK                            x       y       z     vdW  Elec       q    Type
REMARK                         _______ _______ _______ _____ _____    ______ ____
ROOT
ATOM      1  C   UNL     1      45.331   4.536  12.074  0.00  0.00    +0.000 A 
ATOM      2  C   UNL     1      45.558   5.835  11.597  0.00  0.00    +0.000 A 
ATOM      3  C   UNL     1      46.375   6.732  12.305  0.00  0.00    +0.000 A 
ATOM      4  C   UNL     1      47.006   6.344  13.495  0.00  0.00    +0.000 A 
ATOM      5  C   UNL     1      46.777   5.047  13.973  0.00  0.00    +0.000 A 
ATOM      6  C   UNL     1      45.959   4.152  13.267  0.00  0.00    +0.000 A 
ENDROOT
BRANCH   1   7
ATOM      7  C   UNL     1      44.433   3.576  11.325  0.00  0.00    +0.000 C 
BRANCH   7  10
ATOM      8  C   UNL     1      45.144   3.264   8.977  0.00  0.00    +0.000 C 
ATOM      9  O   UNL     1      44.550   4.272   8.593  0.00  0.00    +0.000 OA
ATOM     10  N   UNL     1      45.135   2.857  10.294  0.00  0.00    +0.000 N 
ATOM     11  H   UNL     1      45.695   2.045  10.531  0.00  0.00    +0.000 HD
BRANCH   8  16
ATOM     12  C   UNL     1      47.864   2.338   5.091  0.00  0.00    +0.000 C 
ATOM     13  C   UNL     1      47.162   1.952   6.333  0.00  0.00    +0.000 A 
ATOM     14  C   UNL     1      47.023   0.765   7.016  0.00  0.00    +0.000 A 
ATOM     15  C   UNL     1      46.222   1.053   8.152  0.00  0.00    +0.000 A 
ATOM     16  C   UNL     1      45.918   2.402   8.097  0.00  0.00    +0.000 A 
ATOM     17  O   UNL     1      46.495   2.948   6.979  0.00  0.00    +0.000 OA
ENDBRANCH   8  16
ENDBRANCH   7  10
ENDBRANCH   1   7
BRANCH   4  18
ATOM     18  C   UNL     1      47.902   7.297  14.254  0.00  0.00    +0.000 C 
BRANCH  18  19
ATOM     19  N   UNL     1      48.615   6.643  15.321  0.00  0.00    +0.000 N 
ATOM     20  C   UNL     1      49.101   7.334  16.402  0.00  0.00    +0.000 C 
ATOM     21  O   UNL     1      48.932   8.543  16.535  0.00  0.00    +0.000 OA
ATOM     22  H   UNL     1      48.996   5.722  15.117  0.00  0.00    +0.000 HD
BRANCH  20  23
ATOM     23  C   UNL     1      49.783   6.538  17.434  0.00  0.00    +0.000 A 
ATOM     24  C   UNL     1      51.103   6.146  17.253  0.00  0.00    +0.000 A 
ATOM     25  S   UNL     1      51.742   5.264  18.568  0.00  0.00    +0.000 S 
ATOM     26  C   UNL     1      50.261   5.330  19.404  0.00  0.00    +0.000 A 
ATOM     27  N   UNL     1      50.110   4.728  20.613  0.00  0.00    +0.000 NA
ATOM     28  C   UNL     1      48.926   4.836  21.120  0.00  0.00    +0.000 A 
ATOM     29  N   UNL     1      47.884   5.500  20.528  0.00  0.00    +0.000 N 
ATOM     30  C   UNL     1      48.000   6.154  19.327  0.00  0.00    +0.000 A 
ATOM     31  O   UNL     1      47.064   6.791  18.856  0.00  0.00    +0.000 OA
ATOM     32  C   UNL     1      49.303   6.041  18.703  0.00  0.00    +0.000 A 
ATOM     33  H   UNL     1      46.986   5.566  20.986  0.00  0.00    +0.000 HD
ENDBRANCH  20  23
ENDBRANCH  18  19
ENDBRANCH   4  18
TORSDOF 6
ENDMDL
MODEL 6
REMARK VINA RESULT:    -6.798      4.041      8.604
REMARK INTER + INTRA:         -10.233
REMARK INTER:                  -9.208
REMARK INTRA:                  -1.026
REMARK UNBOUND:                -1.051
REMARK  Name = 
REMARK  7 active torsions:
REMARK  status: ('A' for Active; 'I' for Inactive)
REMARK    1  A    between atoms: C_1  and  C_2
REMARK    2  A    between atoms: C_5  and  C_6
REMARK    3  A    between atoms: N_8  and  C_9
REMARK    4  A    between atoms: C_9  and  C_10
REMARK    5  A    between atoms: C_13  and  C_14
REMARK    6  A    between atoms: C_14  and  N_15
REMARK    7  A    between atoms: C_16  and  C_18
REMARK                            x       y       z     vdW  Elec       q    Type
REMARK                         _______ _______ _______ _____ _____    ______ ____
ROOT
ATOM      1  C   UNL     1      49.589   4.781  17.660  0.00  0.00    +0.000 A 
ATOM      2  C   UNL     1      50.353   5.908  17.322  0.00  0.00    +0.000 A 
ATOM      3  C   UNL     1      49.935   6.786  16.309  0.00  0.00    +0.000 A 
ATOM      4  C   UNL     1      48.731   6.575  15.626  0.00  0.00    +0.000 A 
ATOM      5  C   UNL     1      47.969   5.448  15.961  0.00  0.00    +0.000 A 
ATOM      6  C   UNL     1      48.387   4.568  16.971  0.00  0.00    +0.000 A 
ENDROOT
BRANCH   1   7
ATOM      7  C   UNL     1      50.049   3.821  18.734  0.00  0.00    +0.000 C 
BRANCH   7  10
ATOM      8  C   UNL     1      51.494   2.136  17.642  0.00  0.00    +0.000 C 
ATOM      9  O   UNL     1      50.540   1.558  17.121  0.00  0.00    +0.000 OA
ATOM     10  N   UNL     1      51.338   3.247  18.443  0.00  0.00    +0.000 N 
ATOM     11  H   UNL     1      52.182   3.691  18.787  0.00  0.00    +0.000 HD
BRANCH   8  16
ATOM     12  C   UNL     1      54.976  -0.976  16.398  0.00  0.00    +0.000 C 
ATOM     13  C   UNL     1      54.487   0.323  16.907  0.00  0.00    +0.000 A 
ATOM     14  C   UNL     1      55.112   1.469  17.341  0.00  0.00    +0.000 A 
ATOM     15  C   UNL     1      54.078   2.371  17.703  0.00  0.00    +0.000 A 
ATOM     16  C   UNL     1      52.878   1.722  17.469  0.00  0.00    +0.000 A 
ATOM     17  O   UNL     1      53.135   0.465  16.983  0.00  0.00    +0.000 OA
ENDBRANCH   8  16
ENDBRANCH   7  10
ENDBRANCH   1   7
BRANCH   4  18
ATOM     18  C   UNL     1      48.264   7.526  14.547  0.00  0.00    +0.000 C 
BRANCH  18  19
ATOM     19  N   UNL     1      47.033   7.095  13.934  0.00  0.00    +0.000 N 
ATOM     20  C   UNL     1      46.993   6.595  12.656  0.00  0.00    +0.000 C 
ATOM     21  O   UNL     1      48.005   6.463  11.974  0.00  0.00    +0.000 OA
ATOM     22  H   UNL     1      46.172   7.433  14.354  0.00  0.00    +0.000 HD
BRANCH  20  23
ATOM     23  C   UNL     1      45.676   6.163  12.164  0.00  0.00    +0.000 A 
ATOM     24  C   UNL     1      44.813   7.083  11.582  0.00  0.00    +0.000 A 
ATOM     25  S   UNL     1      43.348   6.397  11.035  0.00  0.00    +0.000 S 
ATOM     26  C   UNL     1      43.793   4.857  11.604  0.00  0.00    +0.000 A 
ATOM     27  N   UNL     1      42.954   3.793  11.481  0.00  0.00    +0.000 NA
ATOM     28  C   UNL     1      43.411   2.692  11.980  0.00  0.00    +0.000 A 
ATOM     29  N   UNL     1      44.634   2.559  12.583  0.00  0.00    +0.000 N 
ATOM     30  C   UNL     1      45.528   3.594  12.697  0.00  0.00    +0.000 A 
ATOM     31  O   UNL     1      46.639   3.424  13.187  0.00  0.00    +0.000 OA
ATOM     32  C   UNL     1      45.054   4.860  12.175  0.00  0.00    +0.000 A 
ATOM     33  H   UNL     1      44.941   1.664  12.937  0.00  0.00    +0.000 HD
ENDBRANCH  20  23
ENDBRANCH  18  19
ENDBRANCH   4  18
TORSDOF 6
ENDMDL
MODEL 7
REMARK VINA RESULT:    -6.643      1.749      2.326
REMARK INTER + INTRA:         -10.024
REMARK INTER:                  -9.023
REMARK INTRA:                  -1.001
REMARK UNBOUND:                -1.051
REMARK  Name = 
REMARK  7 active torsions:
REMARK  status: ('A' for Active; 'I' for Inactive)
REMARK    1  A    between atoms: C_1  and  C_2
REMARK    2  A    between atoms: C_5  and  C_6
REMARK    3  A    between atoms: N_8  and  C_9
REMARK    4  A    between atoms: C_9  and  C_10
REMARK    5  A    between atoms: C_13  and  C_14
REMARK    6  A    between atoms: C_14  and  N_15
REMARK    7  A    between atoms: C_16  and  C_18
REMARK                            x       y       z     vdW  Elec       q    Type
REMARK                         _______ _______ _______ _____ _____    ______ ____
ROOT
ATOM      1  C   UNL     1      46.304   7.754  12.123  0.00  0.00    +0.000 A 
ATOM      2  C   UNL     1      47.503   7.322  11.534  0.00  0.00    +0.000 A 
ATOM      3  C   UNL     1      48.744   7.631  12.115  0.00  0.00    +0.000 A 
ATOM      4  C   UNL     1      48.818   8.356  13.311  0.00  0.00    +0.000 A 
ATOM      5  C   UNL     1      47.621   8.790  13.897  0.00  0.00    +0.000 A 
ATOM      6  C   UNL     1      46.381   8.484  13.316  0.00  0.00    +0.000 A 
ENDROOT
BRANCH   1   7
ATOM      7  C   UNL     1      44.968   7.443  11.486  0.00  0.00    +0.000 C 
BRANCH   7  10
ATOM      8  C   UNL     1      44.777   5.011  11.074  0.00  0.00    +0.000 C 
ATOM      9  O   UNL     1      44.492   4.767  12.246  0.00  0.00    +0.000 OA
ATOM     10  N   UNL     1      45.025   6.291  10.624  0.00  0.00    +0.000 N 
ATOM     11  H   UNL     1      45.201   6.406   9.632  0.00  0.00    +0.000 HD
BRANCH   8  16
ATOM     12  C   UNL     1      46.196   3.297   6.784  0.00  0.00    +0.000 C 
ATOM     13  C   UNL     1      45.516   3.183   8.091  0.00  0.00    +0.000 A 
ATOM     14  C   UNL     1      44.824   2.172   8.716  0.00  0.00    +0.000 A 
ATOM     15  C   UNL     1      44.414   2.690   9.973  0.00  0.00    +0.000 A 
ATOM     16  C   UNL     1      44.880   3.991  10.042  0.00  0.00    +0.000 A 
ATOM     17  O   UNL     1      45.554   4.290   8.884  0.00  0.00    +0.000 OA
ENDBRANCH   8  16
ENDBRANCH   7  10
ENDBRANCH   1   7
BRANCH   4  18
ATOM     18  C   UNL     1      50.149   8.677  13.953  0.00  0.00    +0.000 C 
BRANCH  18  19
ATOM     19  N   UNL     1      50.679   7.562  14.696  0.00  0.00    +0.000 N 
ATOM     20  C   UNL     1      50.533   7.458  16.056  0.00  0.00    +0.000 C 
ATOM     21  O   UNL     1      49.920   8.295  16.713  0.00  0.00    +0.000 OA
ATOM     22  H   UNL     1      51.401   7.011  14.237  0.00  0.00    +0.000 HD
BRANCH  20  23
ATOM     23  C   UNL     1      51.096   6.254  16.684  0.00  0.00    +0.000 A 
ATOM     24  C   UNL     1      52.423   6.238  17.097  0.00  0.00    +0.000 A 
ATOM     25  S   UNL     1      52.892   4.773  17.839  0.00  0.00    +0.000 S 
ATOM     26  C   UNL     1      51.354   4.089  17.588  0.00  0.00    +0.000 A 
ATOM     27  N   UNL     1      51.082   2.812  17.968  0.00  0.00    +0.000 NA
ATOM     28  C   UNL     1      49.884   2.415  17.692  0.00  0.00    +0.000 A 
ATOM     29  N   UNL     1      48.932   3.186  17.078  0.00  0.00    +0.000 N 
ATOM     30  C   UNL     1      49.148   4.491  16.710  0.00  0.00    +0.000 A 
ATOM     31  O   UNL     1      48.252   5.170  16.219  0.00  0.00    +0.000 OA
ATOM     32  C   UNL     1      50.487   4.977  16.974  0.00  0.00    +0.000 A 
ATOM     33  H   UNL     1      48.004   2.823  16.907  0.00  0.00    +0.000 HD
ENDBRANCH  20  23
ENDBRANCH  18  19
ENDBRANCH   4  18
TORSDOF 6
ENDMDL
MODEL 8
REMARK VINA RESULT:    -6.621      5.025      7.750
REMARK INTER + INTRA:          -9.995
REMARK INTER:                  -9.119
REMARK INTRA:                  -0.876
REMARK UNBOUND:                -1.051
REMARK  Name = 
REMARK  7 active torsions:
REMARK  status: ('A' for Active; 'I' for Inactive)
REMARK    1  A    between atoms: C_1  and  C_2
REMARK    2  A    between atoms: C_5  and  C_6
REMARK    3  A    between atoms: N_8  and  C_9
REMARK    4  A    between atoms: C_9  and  C_10
REMARK    5  A    between atoms: C_13  and  C_14
REMARK    6  A    between atoms: C_14  and  N_15
REMARK    7  A    between atoms: C_16  and  C_18
REMARK                            x       y       z     vdW  Elec       q    Type
REMARK                         _______ _______ _______ _____ _____    ______ ____
ROOT
ATOM      1  C   UNL     1      50.443   8.984  11.243  0.00  0.00    +0.000 A 
ATOM      2  C   UNL     1      49.527  10.024  11.458  0.00  0.00    +0.000 A 
ATOM      3  C   UNL     1      48.236   9.759  11.943  0.00  0.00    +0.000 A 
ATOM      4  C   UNL     1      47.837   8.452  12.252  0.00  0.00    +0.000 A 
ATOM      5  C   UNL     1      48.751   7.413  12.035  0.00  0.00    +0.000 A 
ATOM      6  C   UNL     1      50.041   7.676  11.547  0.00  0.00    +0.000 A 
ENDROOT
BRANCH   1   7
ATOM      7  C   UNL     1      51.826   9.264  10.698  0.00  0.00    +0.000 C 
BRANCH   7  10
ATOM      8  C   UNL     1      53.082   7.977   8.999  0.00  0.00    +0.000 C 
ATOM      9  O   UNL     1      53.085   8.912   8.197  0.00  0.00    +0.000 OA
ATOM     10  N   UNL     1      52.488   8.070  10.240  0.00  0.00    +0.000 N 
ATOM     11  H   UNL     1      52.579   7.270  10.856  0.00  0.00    +0.000 HD
BRANCH   8  16
ATOM     12  C   UNL     1      53.644   3.846   6.557  0.00  0.00    +0.000 C 
ATOM     13  C   UNL     1      53.981   4.796   7.637  0.00  0.00    +0.000 A 
ATOM     14  C   UNL     1      54.907   4.788   8.655  0.00  0.00    +0.000 A 
ATOM     15  C   UNL     1      54.729   6.006   9.363  0.00  0.00    +0.000 A 
ATOM     16  C   UNL     1      53.701   6.688   8.735  0.00  0.00    +0.000 A 
ATOM     17  O   UNL     1      53.245   5.941   7.678  0.00  0.00    +0.000 OA
ENDBRANCH   8  16
ENDBRANCH   7  10
ENDBRANCH   1   7
BRANCH   4  18
ATOM     18  C   UNL     1      46.455   8.161  12.793  0.00  0.00    +0.000 C 
BRANCH  18  19
ATOM     19  N   UNL     1      46.003   6.836  12.451  0.00  0.00    +0.000 N 
ATOM     20  C   UNL     1      44.839   6.621  11.758  0.00  0.00    +0.000 C 
ATOM     21  O   UNL     1      44.131   7.545  11.367  0.00  0.00    +0.000 OA
ATOM     22  H   UNL     1      46.409   6.066  12.977  0.00  0.00    +0.000 HD
BRANCH  20  23
ATOM     23  C   UNL     1      44.511   5.222  11.448  0.00  0.00    +0.000 A 
ATOM     24  C   UNL     1      43.751   4.470  12.336  0.00  0.00    +0.000 A 
ATOM     25  S   UNL     1      43.437   2.881  11.794  0.00  0.00    +0.000 S 
ATOM     26  C   UNL     1      44.349   3.124  10.379  0.00  0.00    +0.000 A 
ATOM     27  N   UNL     1      44.516   2.125   9.471  0.00  0.00    +0.000 NA
ATOM     28  C   UNL     1      45.253   2.442   8.457  0.00  0.00    +0.000 A 
ATOM     29  N   UNL     1      45.829   3.671   8.268  0.00  0.00    +0.000 N 
ATOM     30  C   UNL     1      45.658   4.719   9.137  0.00  0.00    +0.000 A 
ATOM     31  O   UNL     1      46.137   5.824   8.904  0.00  0.00    +0.000 OA
ATOM     32  C   UNL     1      44.860   4.409  10.306  0.00  0.00    +0.000 A 
ATOM     33  H   UNL     1      46.380   3.862   7.443  0.00  0.00    +0.000 HD
ENDBRANCH  20  23
ENDBRANCH  18  19
ENDBRANCH   4  18
TORSDOF 6
ENDMDL
MODEL 9
REMARK VINA RESULT:    -6.310      2.407      3.263
REMARK INTER + INTRA:          -9.575
REMARK INTER:                  -8.694
REMARK INTRA:                  -0.881
REMARK UNBOUND:                -1.051
REMARK  Name = 
REMARK  7 active torsions:
REMARK  status: ('A' for Active; 'I' for Inactive)
REMARK    1  A    between atoms: C_1  and  C_2
REMARK    2  A    between atoms: C_5  and  C_6
REMARK    3  A    between atoms: N_8  and  C_9
REMARK    4  A    between atoms: C_9  and  C_10
REMARK    5  A    between atoms: C_13  and  C_14
REMARK    6  A    between atoms: C_14  and  N_15
REMARK    7  A    between atoms: C_16  and  C_18
REMARK                            x       y       z     vdW  Elec       q    Type
REMARK                         _______ _______ _______ _____ _____    ______ ____
ROOT
ATOM      1  C   UNL     1      46.056   5.345  13.259  0.00  0.00    +0.000 A 
ATOM      2  C   UNL     1      46.677   4.768  14.377  0.00  0.00    +0.000 A 
ATOM      3  C   UNL     1      47.737   5.418  15.029  0.00  0.00    +0.000 A 
ATOM      4  C   UNL     1      48.186   6.673  14.597  0.00  0.00    +0.000 A 
ATOM      5  C   UNL     1      47.568   7.248  13.478  0.00  0.00    +0.000 A 
ATOM      6  C   UNL     1      46.511   6.597  12.824  0.00  0.00    +0.000 A 
ENDROOT
BRANCH   1   7
ATOM      7  C   UNL     1      44.930   4.635  12.540  0.00  0.00    +0.000 C 
BRANCH   7  10
ATOM      8  C   UNL     1      44.540   3.340  10.469  0.00  0.00    +0.000 C 
ATOM      9  O   UNL     1      43.482   2.866  10.886  0.00  0.00    +0.000 OA
ATOM     10  N   UNL     1      45.305   4.210  11.216  0.00  0.00    +0.000 N 
ATOM     11  H   UNL     1      46.134   4.592  10.775  0.00  0.00    +0.000 HD
BRANCH   8  16
ATOM     12  C   UNL     1      47.023   0.664   7.303  0.00  0.00    +0.000 C 
ATOM     13  C   UNL     1      46.218   1.841   7.691  0.00  0.00    +0.000 A 
ATOM     14  C   UNL     1      45.758   2.944   7.008  0.00  0.00    +0.000 A 
ATOM     15  C   UNL     1      45.032   3.719   7.950  0.00  0.00    +0.000 A 
ATOM     16  C   UNL     1      45.092   3.043   9.157  0.00  0.00    +0.000 A 
ATOM     17  O   UNL     1      45.822   1.894   8.993  0.00  0.00    +0.000 OA
ENDBRANCH   8  16
ENDBRANCH   7  10
ENDBRANCH   1   7
BRANCH   4  18
ATOM     18  C   UNL     1      49.315   7.388  15.305  0.00  0.00    +0.000 C 
BRANCH  18  19
ATOM     19  N   UNL     1      49.833   6.627  16.414  0.00  0.00    +0.000 N 
ATOM     20  C   UNL     1      50.192   7.219  17.598  0.00  0.00    +0.000 C 
ATOM     21  O   UNL     1      50.068   8.426  17.789  0.00  0.00    +0.000 OA
ATOM     22  H   UNL     1      50.191   5.699  16.201  0.00  0.00    +0.000 HD
BRANCH  20  23
ATOM     23  C   UNL     1      50.677   6.322  18.658  0.00  0.00    +0.000 A 
ATOM     24  C   UNL     1      49.976   6.211  19.852  0.00  0.00    +0.000 A 
ATOM     25  S   UNL     1      50.662   5.096  20.948  0.00  0.00    +0.000 S 
ATOM     26  C   UNL     1      51.949   4.761  19.887  0.00  0.00    +0.000 A 
ATOM     27  N   UNL     1      52.937   3.892  20.233  0.00  0.00    +0.000 NA
ATOM     28  C   UNL     1      53.863   3.753  19.342  0.00  0.00    +0.000 A 
ATOM     29  N   UNL     1      53.884   4.400  18.134  0.00  0.00    +0.000 N 
ATOM     30  C   UNL     1      52.891   5.255  17.726  0.00  0.00    +0.000 A 
ATOM     31  O   UNL     1      52.910   5.768  16.612  0.00  0.00    +0.000 OA
ATOM     32  C   UNL     1      51.840   5.466  18.701  0.00  0.00    +0.000 A 
ATOM     33  H   UNL     1      54.627   4.233  17.471  0.00  0.00    +0.000 HD
ENDBRANCH  20  23
ENDBRANCH  18  19
ENDBRANCH   4  18
TORSDOF 6
ENDMDL
