MODEL 1
REMARK VINA RESULT:    -7.864      0.000      0.000
REMARK INTER + INTRA:         -11.716
REMARK INTER:                 -10.623
REMARK INTRA:                  -1.094
REMARK UNBOUND:                -1.094
REMARK  Name = 
REMARK  7 active torsions:
REMARK  status: ('A' for Active; 'I' for Inactive)
REMARK    1  A    between atoms: C_1  and  N_2
REMARK    2  A    between atoms: N_2  and  C_3
REMARK    3  A    between atoms: C_3  and  C_4
REMARK    4  A    between atoms: C_7  and  C_8
REMARK    5  A    between atoms: C_8  and  O_9
REMARK    6  A    between atoms: O_9  and  C_10
REMARK    7  A    between atoms: C_18  and  C_20
REMARK                            x       y       z     vdW  Elec       q    Type
REMARK                         _______ _______ _______ _____ _____    ______ ____
ROOT
ATOM      1  C   UNL     1      45.990   8.586  12.161  0.00  0.00    +0.000 C 
ATOM      2  N   UNL     1      45.869   7.138  12.031  0.00  0.00    +0.000 N 
ATOM      3  C   UNL     1      44.616   6.676  11.587  0.00  0.00    +0.000 C 
ATOM      4  O   UNL     1      43.704   7.462  11.338  0.00  0.00    +0.000 OA
ENDROOT
BRANCH   3   5
ATOM      5  C   UNL     1      44.377   5.233  11.457  0.00  0.00    +0.000 A 
ATOM      6  C   UNL     1      43.627   4.478  12.345  0.00  0.00    +0.000 A 
ATOM      7  S   UNL     1      43.464   2.842  11.886  0.00  0.00    +0.000 S 
ATOM      8  C   UNL     1      44.270   3.124  10.415  0.00  0.00    +0.000 A 
ATOM      9  N   UNL     1      44.383   2.140   9.482  0.00  0.00    +0.000 NA
ATOM     10  C   UNL     1      44.958   2.516   8.388  0.00  0.00    +0.000 A 
ATOM     11  N   UNL     1      45.460   3.772   8.156  0.00  0.00    +0.000 N 
ATOM     12  C   UNL     1      45.487   4.760   9.120  0.00  0.00    +0.000 A 
ATOM     13  O   UNL     1      46.151   5.779   8.964  0.00  0.00    +0.000 OA
ATOM     14  C   UNL     1      44.743   4.419  10.322  0.00  0.00    +0.000 A 
ATOM     15  H   UNL     1      45.957   3.977   7.304  0.00  0.00    +0.000 HD
ENDBRANCH   3   5
BRANCH   2  16
ATOM     16  C   UNL     1      47.039   6.270  12.214  0.00  0.00    +0.000 C 
BRANCH  16  17
ATOM     17  C   UNL     1      47.368   5.836  13.617  0.00  0.00    +0.000 A 
ATOM     18  C   UNL     1      48.255   6.584  14.408  0.00  0.00    +0.000 A 
ATOM     19  C   UNL     1      48.604   6.147  15.685  0.00  0.00    +0.000 A 
ATOM     20  C   UNL     1      48.074   4.954  16.190  0.00  0.00    +0.000 A 
ATOM     21  C   UNL     1      47.146   4.238  15.423  0.00  0.00    +0.000 A 
ATOM     22  C   UNL     1      46.804   4.669  14.141  0.00  0.00    +0.000 A 
BRANCH  20  23
ATOM     23  C   UNL     1      48.512   4.428  17.532  0.00  0.00    +0.000 C 
BRANCH  23  24
ATOM     24  O   UNL     1      49.898   4.695  17.720  0.00  0.00    +0.000 OA
BRANCH  24  25
ATOM     25  C   UNL     1      50.722   3.605  17.693  0.00  0.00    +0.000 A 
ATOM     26  C   UNL     1      52.058   3.570  18.081  0.00  0.00    +0.000 A 
ATOM     27  C   UNL     1      52.772   2.375  18.000  0.00  0.00    +0.000 A 
ATOM     28  C   UNL     1      52.121   1.248  17.530  0.00  0.00    +0.000 A 
ATOM     29  N   UNL     1      50.830   1.242  17.139  0.00  0.00    +0.000 NA
ATOM     30  C   UNL     1      50.164   2.419  17.231  0.00  0.00    +0.000 A 
ENDBRANCH  24  25
ENDBRANCH  23  24
ENDBRANCH  20  23
ENDBRANCH  16  17
ENDBRANCH   2  16
TORSDOF 6
ENDMDL
MODEL 2
REMARK VINA RESULT:    -7.524      3.449      8.322
REMARK INTER + INTRA:         -11.256
REMARK INTER:                 -10.145
REMARK INTRA:                  -1.111
REMARK UNBOUND:                -1.094
REMARK  Name = 
REMARK  7 active torsions:
REMARK  status: ('A' for Active; 'I' for Inactive)
REMARK    1  A    between atoms: C_1  and  N_2
REMARK    2  A    between atoms: N_2  and  C_3
REMARK    3  A    between atoms: C_3  and  C_4
REMARK    4  A    between atoms: C_7  and  C_8
REMARK    5  A    between atoms: C_8  and  O_9
REMARK    6  A    between atoms: O_9  and  C_10
REMARK    7  A    between atoms: C_18  and  C_20
REMARK                            x       y       z     vdW  Elec       q    Type
REMARK                         _______ _______ _______ _____ _____    ______ ____
ROOT
ATOM      1  C   UNL     1      49.493   7.273  12.124  0.00  0.00    +0.000 C 
ATOM      2  N   UNL     1      48.862   7.702  13.368  0.00  0.00    +0.000 N 
ATOM      3  C   UNL     1      49.744   8.164  14.363  0.00  0.00    +0.000 C 
ATOM      4  O   UNL     1      50.958   8.187  14.170  0.00  0.00    +0.000 OA
ENDROOT
BRANCH   3   5
ATOM      5  C   UNL     1      49.214   8.585  15.666  0.00  0.00    +0.000 A 
ATOM      6  C   UNL     1      48.958   9.899  16.022  0.00  0.00    +0.000 A 
ATOM      7  S   UNL     1      48.272  10.067  17.575  0.00  0.00    +0.000 S 
ATOM      8  C   UNL     1      48.162   8.381  17.763  0.00  0.00    +0.000 A 
ATOM      9  N   UNL     1      47.557   7.838  18.854  0.00  0.00    +0.000 NA
ATOM     10  C   UNL     1      47.487   6.549  18.830  0.00  0.00    +0.000 A 
ATOM     11  N   UNL     1      47.996   5.753  17.834  0.00  0.00    +0.000 N 
ATOM     12  C   UNL     1      48.733   6.250  16.778  0.00  0.00    +0.000 A 
ATOM     13  O   UNL     1      49.372   5.504  16.045  0.00  0.00    +0.000 OA
ATOM     14  C   UNL     1      48.733   7.702  16.703  0.00  0.00    +0.000 A 
ATOM     15  H   UNL     1      47.964   4.749  17.913  0.00  0.00    +0.000 HD
ENDBRANCH   3   5
BRANCH   2  16
ATOM     16  C   UNL     1      47.399   7.775  13.478  0.00  0.00    +0.000 C 
BRANCH  16  17
ATOM     17  C   UNL     1      46.601   6.661  12.859  0.00  0.00    +0.000 A 
ATOM     18  C   UNL     1      46.414   5.449  13.543  0.00  0.00    +0.000 A 
ATOM     19  C   UNL     1      45.724   4.397  12.942  0.00  0.00    +0.000 A 
ATOM     20  C   UNL     1      45.213   4.538  11.646  0.00  0.00    +0.000 A 
ATOM     21  C   UNL     1      45.352   5.766  10.987  0.00  0.00    +0.000 A 
ATOM     22  C   UNL     1      46.050   6.816  11.583  0.00  0.00    +0.000 A 
BRANCH  20  23
ATOM     23  C   UNL     1      44.545   3.378  10.955  0.00  0.00    +0.000 C 
BRANCH  23  24
ATOM     24  O   UNL     1      44.373   3.679   9.575  0.00  0.00    +0.000 OA
BRANCH  24  25
ATOM     25  C   UNL     1      45.280   3.112   8.725  0.00  0.00    +0.000 A 
ATOM     26  C   UNL     1      46.022   3.771   7.749  0.00  0.00    +0.000 A 
ATOM     27  C   UNL     1      46.917   3.052   6.957  0.00  0.00    +0.000 A 
ATOM     28  C   UNL     1      47.038   1.689   7.168  0.00  0.00    +0.000 A 
ATOM     29  N   UNL     1      46.333   1.014   8.098  0.00  0.00    +0.000 NA
ATOM     30  C   UNL     1      45.473   1.741   8.853  0.00  0.00    +0.000 A 
ENDBRANCH  24  25
ENDBRANCH  23  24
ENDBRANCH  20  23
ENDBRANCH  16  17
ENDBRANCH   2  16
TORSDOF 6
ENDMDL
MODEL 3
REMARK VINA RESULT:    -7.092      3.478      8.684
REMARK INTER + INTRA:         -10.673
REMARK INTER:                 -10.179
REMARK INTRA:                  -0.494
REMARK UNBOUND:                -1.094
REMARK  Name = 
REMARK  7 active torsions:
REMARK  status: ('A' for Active; 'I' for Inactive)
REMARK    1  A    between atoms: C_1  and  N_2
REMARK    2  A    between atoms: N_2  and  C_3
REMARK    3  A    between atoms: C_3  and  C_4
REMARK    4  A    between atoms: C_7  and  C_8
REMARK    5  A    between atoms: C_8  and  O_9
REMARK    6  A    between atoms: O_9  and  C_10
REMARK    7  A    between atoms: C_18  and  C_20
REMARK                            x       y       z     vdW  Elec       q    Type
REMARK                         _______ _______ _______ _____ _____    ______ ____
ROOT
ATOM      1  C   UNL     1      48.846   6.775  12.720  0.00  0.00    +0.000 C 
ATOM      2  N   UNL     1      48.361   6.411  14.047  0.00  0.00    +0.000 N 
ATOM      3  C   UNL     1      49.227   6.725  15.112  0.00  0.00    +0.000 C 
ATOM      4  O   UNL     1      50.312   7.265  14.906  0.00  0.00    +0.000 OA
ENDROOT
BRANCH   3   5
ATOM      5  C   UNL     1      48.850   6.367  16.485  0.00  0.00    +0.000 A 
ATOM      6  C   UNL     1      48.986   5.102  17.033  0.00  0.00    +0.000 A 
ATOM      7  S   UNL     1      48.535   5.014  18.676  0.00  0.00    +0.000 S 
ATOM      8  C   UNL     1      48.279   6.693  18.746  0.00  0.00    +0.000 A 
ATOM      9  N   UNL     1      47.969   7.303  19.922  0.00  0.00    +0.000 NA
ATOM     10  C   UNL     1      47.870   8.588  19.839  0.00  0.00    +0.000 A 
ATOM     11  N   UNL     1      48.018   9.313  18.683  0.00  0.00    +0.000 N 
ATOM     12  C   UNL     1      48.200   8.728  17.446  0.00  0.00    +0.000 A 
ATOM     13  O   UNL     1      48.087   9.379  16.414  0.00  0.00    +0.000 OA
ATOM     14  C   UNL     1      48.437   7.295  17.512  0.00  0.00    +0.000 A 
ATOM     15  H   UNL     1      47.861  10.309  18.678  0.00  0.00    +0.000 HD
ENDBRANCH   3   5
BRANCH   2  16
ATOM     16  C   UNL     1      46.999   5.894  14.230  0.00  0.00    +0.000 C 
BRANCH  16  17
ATOM     17  C   UNL     1      46.343   5.236  13.047  0.00  0.00    +0.000 A 
ATOM     18  C   UNL     1      46.041   5.976  11.893  0.00  0.00    +0.000 A 
ATOM     19  C   UNL     1      45.379   5.377  10.822  0.00  0.00    +0.000 A 
ATOM     20  C   UNL     1      45.005   4.029  10.890  0.00  0.00    +0.000 A 
ATOM     21  C   UNL     1      45.357   3.278  12.018  0.00  0.00    +0.000 A 
ATOM     22  C   UNL     1      46.010   3.879  13.094  0.00  0.00    +0.000 A 
BRANCH  20  23
ATOM     23  C   UNL     1      44.212   3.398   9.775  0.00  0.00    +0.000 C 
BRANCH  23  24
ATOM     24  O   UNL     1      44.829   2.178   9.382  0.00  0.00    +0.000 OA
BRANCH  24  25
ATOM     25  C   UNL     1      45.682   2.260   8.316  0.00  0.00    +0.000 A 
ATOM     26  C   UNL     1      45.881   3.371   7.502  0.00  0.00    +0.000 A 
ATOM     27  C   UNL     1      46.793   3.304   6.449  0.00  0.00    +0.000 A 
ATOM     28  C   UNL     1      47.478   2.118   6.245  0.00  0.00    +0.000 A 
ATOM     29  N   UNL     1      47.309   1.019   7.006  0.00  0.00    +0.000 NA
ATOM     30  C   UNL     1      46.416   1.117   8.022  0.00  0.00    +0.000 A 
ENDBRANCH  24  25
ENDBRANCH  23  24
ENDBRANCH  20  23
ENDBRANCH  16  17
ENDBRANCH   2  16
TORSDOF 6
ENDMDL
MODEL 4
REMARK VINA RESULT:    -7.088      2.286      8.217
REMARK INTER + INTRA:         -10.668
REMARK INTER:                  -9.632
REMARK INTRA:                  -1.036
REMARK UNBOUND:                -1.094
REMARK  Name = 
REMARK  7 active torsions:
REMARK  status: ('A' for Active; 'I' for Inactive)
REMARK    1  A    between atoms: C_1  and  N_2
REMARK    2  A    between atoms: N_2  and  C_3
REMARK    3  A    between atoms: C_3  and  C_4
REMARK    4  A    between atoms: C_7  and  C_8
REMARK    5  A    between atoms: C_8  and  O_9
REMARK    6  A    between atoms: O_9  and  C_10
REMARK    7  A    between atoms: C_18  and  C_20
REMARK                            x       y       z     vdW  Elec       q    Type
REMARK                         _______ _______ _______ _____ _____    ______ ____
ROOT
ATOM      1  C   UNL     1      48.501   8.771  14.728  0.00  0.00    +0.000 C 
ATOM      2  N   UNL     1      48.603   7.355  15.064  0.00  0.00    +0.000 N 
ATOM      3  C   UNL     1      48.512   7.052  16.435  0.00  0.00    +0.000 C 
ATOM      4  O   UNL     1      48.362   7.943  17.270  0.00  0.00    +0.000 OA
ENDROOT
BRANCH   3   5
ATOM      5  C   UNL     1      48.640   5.660  16.883  0.00  0.00    +0.000 A 
ATOM      6  C   UNL     1      47.603   4.739  16.892  0.00  0.00    +0.000 A 
ATOM      7  S   UNL     1      48.077   3.179  17.393  0.00  0.00    +0.000 S 
ATOM      8  C   UNL     1      49.709   3.648  17.477  0.00  0.00    +0.000 A 
ATOM      9  N   UNL     1      50.683   2.739  17.753  0.00  0.00    +0.000 NA
ATOM     10  C   UNL     1      51.880   3.222  17.716  0.00  0.00    +0.000 A 
ATOM     11  N   UNL     1      52.189   4.535  17.465  0.00  0.00    +0.000 N 
ATOM     12  C   UNL     1      51.231   5.517  17.312  0.00  0.00    +0.000 A 
ATOM     13  O   UNL     1      51.532   6.705  17.330  0.00  0.00    +0.000 OA
ATOM     14  C   UNL     1      49.876   4.996  17.225  0.00  0.00    +0.000 A 
ATOM     15  H   UNL     1      53.143   4.858  17.518  0.00  0.00    +0.000 HD
ENDBRANCH   3   5
BRANCH   2  16
ATOM     16  C   UNL     1      48.645   6.337  14.006  0.00  0.00    +0.000 C 
BRANCH  16  17
ATOM     17  C   UNL     1      47.385   6.104  13.218  0.00  0.00    +0.000 A 
ATOM     18  C   UNL     1      46.473   5.108  13.604  0.00  0.00    +0.000 A 
ATOM     19  C   UNL     1      45.336   4.856  12.837  0.00  0.00    +0.000 A 
ATOM     20  C   UNL     1      45.095   5.592  11.671  0.00  0.00    +0.000 A 
ATOM     21  C   UNL     1      45.975   6.623  11.319  0.00  0.00    +0.000 A 
ATOM     22  C   UNL     1      47.118   6.870  12.079  0.00  0.00    +0.000 A 
BRANCH  20  23
ATOM     23  C   UNL     1      43.917   5.267  10.789  0.00  0.00    +0.000 C 
BRANCH  23  24
ATOM     24  O   UNL     1      43.900   3.872  10.511  0.00  0.00    +0.000 OA
BRANCH  24  25
ATOM     25  C   UNL     1      44.726   3.457   9.504  0.00  0.00    +0.000 A 
ATOM     26  C   UNL     1      45.261   4.252   8.494  0.00  0.00    +0.000 A 
ATOM     27  C   UNL     1      46.096   3.683   7.533  0.00  0.00    +0.000 A 
ATOM     28  C   UNL     1      46.367   2.327   7.614  0.00  0.00    +0.000 A 
ATOM     29  N   UNL     1      45.864   1.523   8.572  0.00  0.00    +0.000 NA
ATOM     30  C   UNL     1      45.057   2.107   9.492  0.00  0.00    +0.000 A 
ENDBRANCH  24  25
ENDBRANCH  23  24
ENDBRANCH  20  23
ENDBRANCH  16  17
ENDBRANCH   2  16
TORSDOF 6
ENDMDL
MODEL 5
REMARK VINA RESULT:    -6.993      2.810      8.295
REMARK INTER + INTRA:         -10.540
REMARK INTER:                  -9.522
REMARK INTRA:                  -1.018
REMARK UNBOUND:                -1.094
REMARK  Name = 
REMARK  7 active torsions:
REMARK  status: ('A' for Active; 'I' for Inactive)
REMARK    1  A    between atoms: C_1  and  N_2
REMARK    2  A    between atoms: N_2  and  C_3
REMARK    3  A    between atoms: C_3  and  C_4
REMARK    4  A    between atoms: C_7  and  C_8
REMARK    5  A    between atoms: C_8  and  O_9
REMARK    6  A    between atoms: O_9  and  C_10
REMARK    7  A    between atoms: C_18  and  C_20
REMARK                            x       y       z     vdW  Elec       q    Type
REMARK                         _______ _______ _______ _____ _____    ______ ____
ROOT
ATOM      1  C   UNL     1      47.316   8.746  14.537  0.00  0.00    +0.000 C 
ATOM      2  N   UNL     1      48.375   7.767  14.754  0.00  0.00    +0.000 N 
ATOM      3  C   UNL     1      48.918   7.744  16.052  0.00  0.00    +0.000 C 
ATOM      4  O   UNL     1      48.511   8.512  16.922  0.00  0.00    +0.000 OA
ENDROOT
BRANCH   3   5
ATOM      5  C   UNL     1      50.015   6.819  16.365  0.00  0.00    +0.000 A 
ATOM      6  C   UNL     1      51.355   7.172  16.398  0.00  0.00    +0.000 A 
ATOM      7  S   UNL     1      52.387   5.898  16.869  0.00  0.00    +0.000 S 
ATOM      8  C   UNL     1      51.065   4.876  17.181  0.00  0.00    +0.000 A 
ATOM      9  N   UNL     1      51.250   3.641  17.722  0.00  0.00    +0.000 NA
ATOM     10  C   UNL     1      50.153   3.004  17.967  0.00  0.00    +0.000 A 
ATOM     11  N   UNL     1      48.894   3.473  17.689  0.00  0.00    +0.000 N 
ATOM     12  C   UNL     1      48.664   4.659  17.021  0.00  0.00    +0.000 A 
ATOM     13  O   UNL     1      47.555   4.932  16.577  0.00  0.00    +0.000 OA
ATOM     14  C   UNL     1      49.862   5.462  16.835  0.00  0.00    +0.000 A 
ATOM     15  H   UNL     1      48.084   2.894  17.845  0.00  0.00    +0.000 HD
ENDBRANCH   3   5
BRANCH   2  16
ATOM     16  C   UNL     1      48.715   6.791  13.711  0.00  0.00    +0.000 C 
BRANCH  16  17
ATOM     17  C   UNL     1      47.579   6.181  12.935  0.00  0.00    +0.000 A 
ATOM     18  C   UNL     1      46.923   5.034  13.409  0.00  0.00    +0.000 A 
ATOM     19  C   UNL     1      45.911   4.437  12.659  0.00  0.00    +0.000 A 
ATOM     20  C   UNL     1      45.541   4.976  11.420  0.00  0.00    +0.000 A 
ATOM     21  C   UNL     1      46.158   6.152  10.975  0.00  0.00    +0.000 A 
ATOM     22  C   UNL     1      47.177   6.744  11.720  0.00  0.00    +0.000 A 
BRANCH  20  23
ATOM     23  C   UNL     1      44.512   4.288  10.562  0.00  0.00    +0.000 C 
BRANCH  23  24
ATOM     24  O   UNL     1      44.807   4.514   9.189  0.00  0.00    +0.000 OA
BRANCH  24  25
ATOM     25  C   UNL     1      45.497   3.518   8.557  0.00  0.00    +0.000 A 
ATOM     26  C   UNL     1      46.305   3.658   7.432  0.00  0.00    +0.000 A 
ATOM     27  C   UNL     1      46.952   2.543   6.901  0.00  0.00    +0.000 A 
ATOM     28  C   UNL     1      46.768   1.317   7.517  0.00  0.00    +0.000 A 
ATOM     29  N   UNL     1      45.989   1.139   8.604  0.00  0.00    +0.000 NA
ATOM     30  C   UNL     1      45.375   2.243   9.096  0.00  0.00    +0.000 A 
ENDBRANCH  24  25
ENDBRANCH  23  24
ENDBRANCH  20  23
ENDBRANCH  16  17
ENDBRANCH   2  16
TORSDOF 6
ENDMDL
MODEL 6
REMARK VINA RESULT:    -6.932      2.277      3.152
REMARK INTER + INTRA:         -10.457
REMARK INTER:                  -9.248
REMARK INTRA:                  -1.209
REMARK UNBOUND:                -1.094
REMARK  Name = 
REMARK  7 active torsions:
REMARK  status: ('A' for Active; 'I' for Inactive)
REMARK    1  A    between atoms: C_1  and  N_2
REMARK    2  A    between atoms: N_2  and  C_3
REMARK    3  A    between atoms: C_3  and  C_4
REMARK    4  A    between atoms: C_7  and  C_8
REMARK    5  A    between atoms: C_8  and  O_9
REMARK    6  A    between atoms: O_9  and  C_10
REMARK    7  A    between atoms: C_18  and  C_20
REMARK                            x       y       z     vdW  Elec       q    Type
REMARK                         _______ _______ _______ _____ _____    ______ ____
ROOT
ATOM      1  C   UNL     1      46.060   8.551  12.187  0.00  0.00    +0.000 C 
ATOM      2  N   UNL     1      45.898   7.106  12.065  0.00  0.00    +0.000 N 
ATOM      3  C   UNL     1      44.631   6.677  11.628  0.00  0.00    +0.000 C 
ATOM      4  O   UNL     1      43.740   7.487  11.378  0.00  0.00    +0.000 OA
ENDROOT
BRANCH   3   5
ATOM      5  C   UNL     1      44.352   5.240  11.506  0.00  0.00    +0.000 A 
ATOM      6  C   UNL     1      43.608   4.505  12.415  0.00  0.00    +0.000 A 
ATOM      7  S   UNL     1      43.391   2.874  11.962  0.00  0.00    +0.000 S 
ATOM      8  C   UNL     1      44.162   3.134  10.469  0.00  0.00    +0.000 A 
ATOM      9  N   UNL     1      44.225   2.148   9.535  0.00  0.00    +0.000 NA
ATOM     10  C   UNL     1      44.779   2.508   8.425  0.00  0.00    +0.000 A 
ATOM     11  N   UNL     1      45.306   3.751   8.178  0.00  0.00    +0.000 N 
ATOM     12  C   UNL     1      45.384   4.738   9.139  0.00  0.00    +0.000 A 
ATOM     13  O   UNL     1      46.070   5.739   8.964  0.00  0.00    +0.000 OA
ATOM     14  C   UNL     1      44.666   4.417  10.362  0.00  0.00    +0.000 A 
ATOM     15  H   UNL     1      45.784   3.943   7.312  0.00  0.00    +0.000 HD
ENDBRANCH   3   5
BRANCH   2  16
ATOM     16  C   UNL     1      47.045   6.207  12.248  0.00  0.00    +0.000 C 
BRANCH  16  17
ATOM     17  C   UNL     1      47.446   5.874  13.659  0.00  0.00    +0.000 A 
ATOM     18  C   UNL     1      48.299   6.724  14.381  0.00  0.00    +0.000 A 
ATOM     19  C   UNL     1      48.716   6.383  15.666  0.00  0.00    +0.000 A 
ATOM     20  C   UNL     1      48.290   5.183  16.250  0.00  0.00    +0.000 A 
ATOM     21  C   UNL     1      47.395   4.363  15.551  0.00  0.00    +0.000 A 
ATOM     22  C   UNL     1      46.984   4.699  14.262  0.00  0.00    +0.000 A 
BRANCH  20  23
ATOM     23  C   UNL     1      48.806   4.763  17.602  0.00  0.00    +0.000 C 
BRANCH  23  24
ATOM     24  O   UNL     1      49.469   5.859  18.221  0.00  0.00    +0.000 OA
BRANCH  24  25
ATOM     25  C   UNL     1      48.777   6.486  19.219  0.00  0.00    +0.000 A 
ATOM     26  C   UNL     1      47.853   5.898  20.079  0.00  0.00    +0.000 A 
ATOM     27  C   UNL     1      47.227   6.671  21.056  0.00  0.00    +0.000 A 
ATOM     28  C   UNL     1      47.546   8.015  21.139  0.00  0.00    +0.000 A 
ATOM     29  N   UNL     1      48.430   8.623  20.322  0.00  0.00    +0.000 NA
ATOM     30  C   UNL     1      49.022   7.844  19.384  0.00  0.00    +0.000 A 
ENDBRANCH  24  25
ENDBRANCH  23  24
ENDBRANCH  20  23
ENDBRANCH  16  17
ENDBRANCH   2  16
TORSDOF 6
ENDMDL
MODEL 7
REMARK VINA RESULT:    -6.906      1.416      2.271
REMARK INTER + INTRA:         -10.421
REMARK INTER:                  -9.291
REMARK INTRA:                  -1.131
REMARK UNBOUND:                -1.094
REMARK  Name = 
REMARK  7 active torsions:
REMARK  status: ('A' for Active; 'I' for Inactive)
REMARK    1  A    between atoms: C_1  and  N_2
REMARK    2  A    between atoms: N_2  and  C_3
REMARK    3  A    between atoms: C_3  and  C_4
REMARK    4  A    between atoms: C_7  and  C_8
REMARK    5  A    between atoms: C_8  and  O_9
REMARK    6  A    between atoms: O_9  and  C_10
REMARK    7  A    between atoms: C_18  and  C_20
REMARK                            x       y       z     vdW  Elec       q    Type
REMARK                         _______ _______ _______ _____ _____    ______ ____
ROOT
ATOM      1  C   UNL     1      46.458   8.688  12.893  0.00  0.00    +0.000 C 
ATOM      2  N   UNL     1      46.320   7.383  12.257  0.00  0.00    +0.000 N 
ATOM      3  C   UNL     1      45.235   7.257  11.369  0.00  0.00    +0.000 C 
ATOM      4  O   UNL     1      44.469   8.198  11.168  0.00  0.00    +0.000 OA
ENDROOT
BRANCH   3   5
ATOM      5  C   UNL     1      44.986   5.972  10.704  0.00  0.00    +0.000 A 
ATOM      6  C   UNL     1      45.467   5.630   9.450  0.00  0.00    +0.000 A 
ATOM      7  S   UNL     1      45.076   4.038   8.976  0.00  0.00    +0.000 S 
ATOM      8  C   UNL     1      44.374   3.708  10.490  0.00  0.00    +0.000 A 
ATOM      9  N   UNL     1      43.924   2.460  10.792  0.00  0.00    +0.000 NA
ATOM     10  C   UNL     1      43.480   2.339  11.999  0.00  0.00    +0.000 A 
ATOM     11  N   UNL     1      43.411   3.358  12.916  0.00  0.00    +0.000 N 
ATOM     12  C   UNL     1      43.731   4.666  12.611  0.00  0.00    +0.000 A 
ATOM     13  O   UNL     1      43.433   5.583  13.368  0.00  0.00    +0.000 OA
ATOM     14  C   UNL     1      44.348   4.823  11.305  0.00  0.00    +0.000 A 
ATOM     15  H   UNL     1      42.990   3.208  13.820  0.00  0.00    +0.000 HD
ENDBRANCH   3   5
BRANCH   2  16
ATOM     16  C   UNL     1      47.348   6.350  12.439  0.00  0.00    +0.000 C 
BRANCH  16  17
ATOM     17  C   UNL     1      47.741   6.003  13.849  0.00  0.00    +0.000 A 
ATOM     18  C   UNL     1      47.152   4.913  14.508  0.00  0.00    +0.000 A 
ATOM     19  C   UNL     1      47.474   4.630  15.835  0.00  0.00    +0.000 A 
ATOM     20  C   UNL     1      48.388   5.437  16.525  0.00  0.00    +0.000 A 
ATOM     21  C   UNL     1      49.017   6.490  15.849  0.00  0.00    +0.000 A 
ATOM     22  C   UNL     1      48.688   6.779  14.525  0.00  0.00    +0.000 A 
BRANCH  20  23
ATOM     23  C   UNL     1      48.676   5.194  17.983  0.00  0.00    +0.000 C 
BRANCH  23  24
ATOM     24  O   UNL     1      48.759   3.794  18.227  0.00  0.00    +0.000 OA
BRANCH  24  25
ATOM     25  C   UNL     1      49.980   3.223  17.997  0.00  0.00    +0.000 A 
ATOM     26  C   UNL     1      51.215   3.726  18.396  0.00  0.00    +0.000 A 
ATOM     27  C   UNL     1      52.380   3.024  18.090  0.00  0.00    +0.000 A 
ATOM     28  C   UNL     1      52.269   1.835  17.390  0.00  0.00    +0.000 A 
ATOM     29  N   UNL     1      51.093   1.318  16.980  0.00  0.00    +0.000 NA
ATOM     30  C   UNL     1      49.979   2.024  17.295  0.00  0.00    +0.000 A 
ENDBRANCH  24  25
ENDBRANCH  23  24
ENDBRANCH  20  23
ENDBRANCH  16  17
ENDBRANCH   2  16
TORSDOF 6
ENDMDL
MODEL 8
REMARK VINA RESULT:    -6.657      3.833      8.231
REMARK INTER + INTRA:         -10.085
REMARK INTER:                  -8.980
REMARK INTRA:                  -1.105
REMARK UNBOUND:                -1.094
REMARK  Name = 
REMARK  7 active torsions:
REMARK  status: ('A' for Active; 'I' for Inactive)
REMARK    1  A    between atoms: C_1  and  N_2
REMARK    2  A    between atoms: N_2  and  C_3
REMARK    3  A    between atoms: C_3  and  C_4
REMARK    4  A    between atoms: C_7  and  C_8
REMARK    5  A    between atoms: C_8  and  O_9
REMARK    6  A    between atoms: O_9  and  C_10
REMARK    7  A    between atoms: C_18  and  C_20
REMARK                            x       y       z     vdW  Elec       q    Type
REMARK                         _______ _______ _______ _____ _____    ______ ____
ROOT
ATOM      1  C   UNL     1      47.581   5.060  14.778  0.00  0.00    +0.000 C 
ATOM      2  N   UNL     1      47.719   6.474  14.445  0.00  0.00    +0.000 N 
ATOM      3  C   UNL     1      48.935   7.068  14.831  0.00  0.00    +0.000 C 
ATOM      4  O   UNL     1      49.801   6.416  15.412  0.00  0.00    +0.000 OA
ENDROOT
BRANCH   3   5
ATOM      5  C   UNL     1      49.160   8.496  14.576  0.00  0.00    +0.000 A 
ATOM      6  C   UNL     1      48.968   9.501  15.510  0.00  0.00    +0.000 A 
ATOM      7  S   UNL     1      49.387  11.055  14.942  0.00  0.00    +0.000 S 
ATOM      8  C   UNL     1      49.973  10.415  13.479  0.00  0.00    +0.000 A 
ATOM      9  N   UNL     1      50.580  11.215  12.562  0.00  0.00    +0.000 NA
ATOM     10  C   UNL     1      51.035  10.584  11.531  0.00  0.00    +0.000 A 
ATOM     11  N   UNL     1      50.906   9.234  11.318  0.00  0.00    +0.000 N 
ATOM     12  C   UNL     1      50.182   8.407  12.154  0.00  0.00    +0.000 A 
ATOM     13  O   UNL     1      49.884   7.267  11.814  0.00  0.00    +0.000 OA
ATOM     14  C   UNL     1      49.758   9.053  13.385  0.00  0.00    +0.000 A 
ATOM     15  H   UNL     1      51.226   8.817  10.458  0.00  0.00    +0.000 HD
ENDBRANCH   3   5
BRANCH   2  16
ATOM     16  C   UNL     1      46.703   7.153  13.631  0.00  0.00    +0.000 C 
BRANCH  16  17
ATOM     17  C   UNL     1      46.061   6.364  12.522  0.00  0.00    +0.000 A 
ATOM     18  C   UNL     1      46.567   6.427  11.214  0.00  0.00    +0.000 A 
ATOM     19  C   UNL     1      45.935   5.741  10.178  0.00  0.00    +0.000 A 
ATOM     20  C   UNL     1      44.785   4.984  10.433  0.00  0.00    +0.000 A 
ATOM     21  C   UNL     1      44.315   4.877  11.747  0.00  0.00    +0.000 A 
ATOM     22  C   UNL     1      44.941   5.570  12.783  0.00  0.00    +0.000 A 
BRANCH  20  23
ATOM     23  C   UNL     1      44.044   4.313   9.305  0.00  0.00    +0.000 C 
BRANCH  23  24
ATOM     24  O   UNL     1      44.387   2.933   9.264  0.00  0.00    +0.000 OA
BRANCH  24  25
ATOM     25  C   UNL     1      45.363   2.589   8.372  0.00  0.00    +0.000 A 
ATOM     26  C   UNL     1      45.870   3.390   7.353  0.00  0.00    +0.000 A 
ATOM     27  C   UNL     1      46.874   2.899   6.520  0.00  0.00    +0.000 A 
ATOM     28  C   UNL     1      47.340   1.613   6.735  0.00  0.00    +0.000 A 
ATOM     29  N   UNL     1      46.871   0.804   7.706  0.00  0.00    +0.000 NA
ATOM     30  C   UNL     1      45.896   1.312   8.499  0.00  0.00    +0.000 A 
ENDBRANCH  24  25
ENDBRANCH  23  24
ENDBRANCH  20  23
ENDBRANCH  16  17
ENDBRANCH   2  16
TORSDOF 6
ENDMDL
MODEL 9
REMARK VINA RESULT:    -6.643      2.868      8.118
REMARK INTER + INTRA:         -10.066
REMARK INTER:                  -8.729
REMARK INTRA:                  -1.337
REMARK UNBOUND:                -1.094
REMARK  Name = 
REMARK  7 active torsions:
REMARK  status: ('A' for Active; 'I' for Inactive)
REMARK    1  A    between atoms: C_1  and  N_2
REMARK    2  A    between atoms: N_2  and  C_3
REMARK    3  A    between atoms: C_3  and  C_4
REMARK    4  A    between atoms: C_7  and  C_8
REMARK    5  A    between atoms: C_8  and  O_9
REMARK    6  A    between atoms: O_9  and  C_10
REMARK    7  A    between atoms: C_18  and  C_20
REMARK                            x       y       z     vdW  Elec       q    Type
REMARK                         _______ _______ _______ _____ _____    ______ ____
ROOT
ATOM      1  C   UNL     1      47.879   9.227  17.739  0.00  0.00    +0.000 C 
ATOM      2  N   UNL     1      48.790   8.175  17.302  0.00  0.00    +0.000 N 
ATOM      3  C   UNL     1      48.951   7.105  18.202  0.00  0.00    +0.000 C 
ATOM      4  O   UNL     1      48.355   7.088  19.278  0.00  0.00    +0.000 OA
ENDROOT
BRANCH   3   5
ATOM      5  C   UNL     1      49.874   6.011  17.874  0.00  0.00    +0.000 A 
ATOM      6  C   UNL     1      51.244   6.050  18.081  0.00  0.00    +0.000 A 
ATOM      7  S   UNL     1      52.041   4.598  17.672  0.00  0.00    +0.000 S 
ATOM      8  C   UNL     1      50.564   3.824  17.340  0.00  0.00    +0.000 A 
ATOM      9  N   UNL     1      50.525   2.500  17.029  0.00  0.00    +0.000 NA
ATOM     10  C   UNL     1      49.332   2.032  16.869  0.00  0.00    +0.000 A 
ATOM     11  N   UNL     1      48.179   2.773  16.956  0.00  0.00    +0.000 N 
ATOM     12  C   UNL     1      48.178   4.141  17.136  0.00  0.00    +0.000 A 
ATOM     13  O   UNL     1      47.159   4.801  16.970  0.00  0.00    +0.000 OA
ATOM     14  C   UNL     1      49.490   4.688  17.441  0.00  0.00    +0.000 A 
ATOM     15  H   UNL     1      47.285   2.356  16.753  0.00  0.00    +0.000 HD
ENDBRANCH   3   5
BRANCH   2  16
ATOM     16  C   UNL     1      49.360   8.194  15.949  0.00  0.00    +0.000 C 
BRANCH  16  17
ATOM     17  C   UNL     1      48.437   7.879  14.803  0.00  0.00    +0.000 A 
ATOM     18  C   UNL     1      47.690   8.895  14.187  0.00  0.00    +0.000 A 
ATOM     19  C   UNL     1      46.791   8.591  13.165  0.00  0.00    +0.000 A 
ATOM     20  C   UNL     1      46.623   7.266  12.746  0.00  0.00    +0.000 A 
ATOM     21  C   UNL     1      47.410   6.261  13.323  0.00  0.00    +0.000 A 
ATOM     22  C   UNL     1      48.302   6.563  14.352  0.00  0.00    +0.000 A 
BRANCH  20  23
ATOM     23  C   UNL     1      45.591   6.916  11.706  0.00  0.00    +0.000 C 
BRANCH  23  24
ATOM     24  O   UNL     1      45.060   5.624  11.975  0.00  0.00    +0.000 OA
BRANCH  24  25
ATOM     25  C   UNL     1      44.931   4.798  10.894  0.00  0.00    +0.000 A 
ATOM     26  C   UNL     1      45.408   5.039   9.608  0.00  0.00    +0.000 A 
ATOM     27  C   UNL     1      45.201   4.094   8.604  0.00  0.00    +0.000 A 
ATOM     28  C   UNL     1      44.518   2.932   8.922  0.00  0.00    +0.000 A 
ATOM     29  N   UNL     1      44.035   2.664  10.152  0.00  0.00    +0.000 NA
ATOM     30  C   UNL     1      44.254   3.603  11.106  0.00  0.00    +0.000 A 
ENDBRANCH  24  25
ENDBRANCH  23  24
ENDBRANCH  20  23
ENDBRANCH  16  17
ENDBRANCH   2  16
TORSDOF 6
ENDMDL
