MODEL 1
REMARK VINA RESULT:    -9.235      0.000      0.000
REMARK INTER + INTRA:         -13.147
REMARK INTER:                 -12.205
REMARK INTRA:                  -0.942
REMARK UNBOUND:                -0.942
REMARK  Name = 
REMARK  6 active torsions:
REMARK  status: ('A' for Active; 'I' for Inactive)
REMARK    1  A    between atoms: C_2  and  C_19
REMARK    2  A    between atoms: N_3  and  C_4
REMARK    3  A    between atoms: C_4  and  C_5
REMARK    4  A    between atoms: C_8  and  C_9
REMARK    5  A    between atoms: C_9  and  O_10
REMARK    6  A    between atoms: C_9  and  C_11
REMARK                            x       y       z     vdW  Elec       q    Type
REMARK                         _______ _______ _______ _____ _____    ______ ____
ROOT
ATOM      1  C   UNL     1      46.291   7.514  12.798  0.00  0.00    +0.000 C 
ENDROOT
BRANCH   1   2
ATOM      2  C   UNL     1      45.797   6.404  11.909  0.00  0.00    +0.000 A 
ATOM      3  C   UNL     1      46.131   6.392  10.550  0.00  0.00    +0.000 A 
ATOM      4  C   UNL     1      45.725   5.337   9.728  0.00  0.00    +0.000 A 
ATOM      5  C   UNL     1      44.966   4.276  10.243  0.00  0.00    +0.000 A 
ATOM      6  C   UNL     1      44.582   4.322  11.594  0.00  0.00    +0.000 A 
ATOM      7  C   UNL     1      44.990   5.377  12.416  0.00  0.00    +0.000 A 
BRANCH   5   8
ATOM      8  C   UNL     1      44.578   3.114   9.344  0.00  0.00    +0.000 C 
BRANCH   8   9
ATOM      9  C   UNL     1      45.593   2.706   8.278  0.00  0.00    +0.000 A 
ATOM     10  C   UNL     1      46.174   1.424   8.319  0.00  0.00    +0.000 A 
ATOM     11  C   UNL     1      47.042   0.991   7.313  0.00  0.00    +0.000 A 
ATOM     12  C   UNL     1      47.333   1.823   6.237  0.00  0.00    +0.000 A 
ATOM     13  C   UNL     1      46.759   3.089   6.168  0.00  0.00    +0.000 A 
ATOM     14  C   UNL     1      45.892   3.525   7.175  0.00  0.00    +0.000 A 
ENDBRANCH   8   9
BRANCH   8  15
ATOM     15  O   UNL     1      44.250   2.022  10.207  0.00  0.00    +0.000 OA
ATOM     16  H   UNL     1      45.088   1.696  10.573  0.00  0.00    +0.000 HD
ENDBRANCH   8  15
ENDBRANCH   5   8
ENDBRANCH   1   2
BRANCH   1  19
ATOM     17  O   UNL     1      48.972   6.671  13.075  0.00  0.00    +0.000 OA
ATOM     18  C   UNL     1      48.234   6.652  14.056  0.00  0.00    +0.000 C 
ATOM     19  N   UNL     1      46.912   7.004  13.991  0.00  0.00    +0.000 N 
ATOM     20  H   UNL     1      46.387   7.128  14.849  0.00  0.00    +0.000 HD
BRANCH  18  21
ATOM     21  C   UNL     1      48.713   6.192  15.367  0.00  0.00    +0.000 A 
ATOM     22  C   UNL     1      49.732   6.881  16.012  0.00  0.00    +0.000 A 
ATOM     23  S   UNL     1      50.167   6.209  17.517  0.00  0.00    +0.000 S 
ATOM     24  C   UNL     1      48.980   4.999  17.383  0.00  0.00    +0.000 A 
ATOM     25  N   UNL     1      48.789   4.094  18.381  0.00  0.00    +0.000 NA
ATOM     26  C   UNL     1      47.820   3.265  18.171  0.00  0.00    +0.000 A 
ATOM     27  N   UNL     1      47.039   3.248  17.044  0.00  0.00    +0.000 N 
ATOM     28  C   UNL     1      47.252   4.083  15.977  0.00  0.00    +0.000 A 
ATOM     29  O   UNL     1      46.634   3.937  14.927  0.00  0.00    +0.000 OA
ATOM     30  C   UNL     1      48.283   5.083  16.189  0.00  0.00    +0.000 A 
ATOM     31  H   UNL     1      46.323   2.548  16.924  0.00  0.00    +0.000 HD
ENDBRANCH  18  21
ENDBRANCH   1  19
TORSDOF 6
ENDMDL
MODEL 2
REMARK VINA RESULT:    -8.292      2.117      2.687
REMARK INTER + INTRA:         -11.900
REMARK INTER:                 -10.983
REMARK INTRA:                  -0.917
REMARK UNBOUND:                -0.942
REMARK  Name = 
REMARK  6 active torsions:
REMARK  status: ('A' for Active; 'I' for Inactive)
REMARK    1  A    between atoms: C_2  and  C_19
REMARK    2  A    between atoms: N_3  and  C_4
REMARK    3  A    between atoms: C_4  and  C_5
REMARK    4  A    between atoms: C_8  and  C_9
REMARK    5  A    between atoms: C_9  and  O_10
REMARK    6  A    between atoms: C_9  and  C_11
REMARK                            x       y       z     vdW  Elec       q    Type
REMARK                         _______ _______ _______ _____ _____    ______ ____
ROOT
ATOM      1  C   UNL     1      47.761   6.905  13.757  0.00  0.00    +0.000 C 
ENDROOT
BRANCH   1   2
ATOM      2  C   UNL     1      46.857   6.183  12.793  0.00  0.00    +0.000 A 
ATOM      3  C   UNL     1      46.583   6.736  11.539  0.00  0.00    +0.000 A 
ATOM      4  C   UNL     1      45.790   6.048  10.616  0.00  0.00    +0.000 A 
ATOM      5  C   UNL     1      45.244   4.795  10.931  0.00  0.00    +0.000 A 
ATOM      6  C   UNL     1      45.473   4.270  12.214  0.00  0.00    +0.000 A 
ATOM      7  C   UNL     1      46.267   4.958  13.136  0.00  0.00    +0.000 A 
BRANCH   5   8
ATOM      8  C   UNL     1      44.428   4.040   9.896  0.00  0.00    +0.000 C 
BRANCH   8   9
ATOM      9  C   UNL     1      45.213   3.268   8.837  0.00  0.00    +0.000 A 
ATOM     10  C   UNL     1      45.834   3.962   7.781  0.00  0.00    +0.000 A 
ATOM     11  C   UNL     1      46.629   3.295   6.844  0.00  0.00    +0.000 A 
ATOM     12  C   UNL     1      46.831   1.923   6.954  0.00  0.00    +0.000 A 
ATOM     13  C   UNL     1      46.239   1.218   7.998  0.00  0.00    +0.000 A 
ATOM     14  C   UNL     1      45.443   1.884   8.935  0.00  0.00    +0.000 A 
ENDBRANCH   8   9
BRANCH   8  15
ATOM     15  O   UNL     1      43.538   3.187  10.620  0.00  0.00    +0.000 OA
ATOM     16  H   UNL     1      42.773   3.731  10.869  0.00  0.00    +0.000 HD
ENDBRANCH   8  15
ENDBRANCH   5   8
ENDBRANCH   1   2
BRANCH   1  19
ATOM     17  O   UNL     1      49.968   6.620  15.496  0.00  0.00    +0.000 OA
ATOM     18  C   UNL     1      48.865   6.223  15.858  0.00  0.00    +0.000 C 
ATOM     19  N   UNL     1      47.758   6.286  15.055  0.00  0.00    +0.000 N 
ATOM     20  H   UNL     1      46.844   6.097  15.452  0.00  0.00    +0.000 HD
BRANCH  18  21
ATOM     21  C   UNL     1      48.671   5.594  17.173  0.00  0.00    +0.000 A 
ATOM     22  C   UNL     1      48.874   4.228  17.323  0.00  0.00    +0.000 A 
ATOM     23  S   UNL     1      48.598   3.665  18.909  0.00  0.00    +0.000 S 
ATOM     24  C   UNL     1      48.240   5.233  19.463  0.00  0.00    +0.000 A 
ATOM     25  N   UNL     1      47.954   5.462  20.773  0.00  0.00    +0.000 NA
ATOM     26  C   UNL     1      47.754   6.705  21.065  0.00  0.00    +0.000 A 
ATOM     27  N   UNL     1      47.796   7.735  20.161  0.00  0.00    +0.000 N 
ATOM     28  C   UNL     1      47.994   7.540  18.818  0.00  0.00    +0.000 A 
ATOM     29  O   UNL     1      47.872   8.465  18.021  0.00  0.00    +0.000 OA
ATOM     30  C   UNL     1      48.295   6.170  18.445  0.00  0.00    +0.000 A 
ATOM     31  H   UNL     1      47.591   8.680  20.447  0.00  0.00    +0.000 HD
ENDBRANCH  18  21
ENDBRANCH   1  19
TORSDOF 6
ENDMDL
MODEL 3
REMARK VINA RESULT:    -8.128      2.076      3.595
REMARK INTER + INTRA:         -11.684
REMARK INTER:                 -10.799
REMARK INTRA:                  -0.885
REMARK UNBOUND:                -0.942
REMARK  Name = 
REMARK  6 active torsions:
REMARK  status: ('A' for Active; 'I' for Inactive)
REMARK    1  A    between atoms: C_2  and  C_19
REMARK    2  A    between atoms: N_3  and  C_4
REMARK    3  A    between atoms: C_4  and  C_5
REMARK    4  A    between atoms: C_8  and  C_9
REMARK    5  A    between atoms: C_9  and  O_10
REMARK    6  A    between atoms: C_9  and  C_11
REMARK                            x       y       z     vdW  Elec       q    Type
REMARK                         _______ _______ _______ _____ _____    ______ ____
ROOT
ATOM      1  C   UNL     1      46.410   4.757  14.473  0.00  0.00    +0.000 C 
ENDROOT
BRANCH   1   2
ATOM      2  C   UNL     1      46.003   4.680  13.026  0.00  0.00    +0.000 A 
ATOM      3  C   UNL     1      46.271   5.748  12.163  0.00  0.00    +0.000 A 
ATOM      4  C   UNL     1      45.948   5.665  10.806  0.00  0.00    +0.000 A 
ATOM      5  C   UNL     1      45.338   4.515  10.282  0.00  0.00    +0.000 A 
ATOM      6  C   UNL     1      45.016   3.469  11.163  0.00  0.00    +0.000 A 
ATOM      7  C   UNL     1      45.341   3.553  12.520  0.00  0.00    +0.000 A 
BRANCH   5   8
ATOM      8  C   UNL     1      45.041   4.424   8.795  0.00  0.00    +0.000 C 
BRANCH   8   9
ATOM      9  C   UNL     1      45.756   3.317   8.022  0.00  0.00    +0.000 A 
ATOM     10  C   UNL     1      46.479   3.632   6.856  0.00  0.00    +0.000 A 
ATOM     11  C   UNL     1      47.213   2.658   6.174  0.00  0.00    +0.000 A 
ATOM     12  C   UNL     1      47.251   1.353   6.652  0.00  0.00    +0.000 A 
ATOM     13  C   UNL     1      46.556   1.020   7.811  0.00  0.00    +0.000 A 
ATOM     14  C   UNL     1      45.820   1.994   8.494  0.00  0.00    +0.000 A 
ENDBRANCH   8   9
BRANCH   8  15
ATOM     15  O   UNL     1      43.620   4.324   8.668  0.00  0.00    +0.000 OA
ATOM     16  H   UNL     1      43.308   5.189   8.357  0.00  0.00    +0.000 HD
ENDBRANCH   8  15
ENDBRANCH   5   8
ENDBRANCH   1   2
BRANCH   1  19
ATOM     17  O   UNL     1      48.563   4.892  16.295  0.00  0.00    +0.000 OA
ATOM     18  C   UNL     1      48.301   5.872  15.604  0.00  0.00    +0.000 C 
ATOM     19  N   UNL     1      47.246   5.898  14.731  0.00  0.00    +0.000 N 
ATOM     20  H   UNL     1      47.166   6.662  14.069  0.00  0.00    +0.000 HD
BRANCH  18  21
ATOM     21  C   UNL     1      49.076   7.116  15.712  0.00  0.00    +0.000 A 
ATOM     22  C   UNL     1      49.190   7.757  16.939  0.00  0.00    +0.000 A 
ATOM     23  S   UNL     1      50.118   9.186  16.882  0.00  0.00    +0.000 S 
ATOM     24  C   UNL     1      50.439   8.978  15.225  0.00  0.00    +0.000 A 
ATOM     25  N   UNL     1      51.234   9.854  14.552  0.00  0.00    +0.000 NA
ATOM     26  C   UNL     1      51.436   9.546  13.313  0.00  0.00    +0.000 A 
ATOM     27  N   UNL     1      50.900   8.453  12.683  0.00  0.00    +0.000 N 
ATOM     28  C   UNL     1      50.025   7.594  13.298  0.00  0.00    +0.000 A 
ATOM     29  O   UNL     1      49.447   6.719  12.661  0.00  0.00    +0.000 OA
ATOM     30  C   UNL     1      49.817   7.852  14.712  0.00  0.00    +0.000 A 
ATOM     31  H   UNL     1      51.065   8.291  11.701  0.00  0.00    +0.000 HD
ENDBRANCH  18  21
ENDBRANCH   1  19
TORSDOF 6
ENDMDL
MODEL 4
REMARK VINA RESULT:    -7.986      1.919      2.650
REMARK INTER + INTRA:         -11.496
REMARK INTER:                 -11.113
REMARK INTRA:                  -0.383
REMARK UNBOUND:                -0.942
REMARK  Name = 
REMARK  6 active torsions:
REMARK  status: ('A' for Active; 'I' for Inactive)
REMARK    1  A    between atoms: C_2  and  C_19
REMARK    2  A    between atoms: N_3  and  C_4
REMARK    3  A    between atoms: C_4  and  C_5
REMARK    4  A    between atoms: C_8  and  C_9
REMARK    5  A    between atoms: C_9  and  O_10
REMARK    6  A    between atoms: C_9  and  C_11
REMARK                            x       y       z     vdW  Elec       q    Type
REMARK                         _______ _______ _______ _____ _____    ______ ____
ROOT
ATOM      1  C   UNL     1      45.519   4.435  14.562  0.00  0.00    +0.000 C 
ENDROOT
BRANCH   1   2
ATOM      2  C   UNL     1      45.507   4.422  13.057  0.00  0.00    +0.000 A 
ATOM      3  C   UNL     1      45.060   3.291  12.367  0.00  0.00    +0.000 A 
ATOM      4  C   UNL     1      44.992   3.289  10.971  0.00  0.00    +0.000 A 
ATOM      5  C   UNL     1      45.382   4.416  10.232  0.00  0.00    +0.000 A 
ATOM      6  C   UNL     1      45.887   5.528  10.925  0.00  0.00    +0.000 A 
ATOM      7  C   UNL     1      45.953   5.530  12.322  0.00  0.00    +0.000 A 
BRANCH   5   8
ATOM      8  C   UNL     1      45.253   4.413   8.719  0.00  0.00    +0.000 C 
BRANCH   8   9
ATOM      9  C   UNL     1      46.041   3.340   7.968  0.00  0.00    +0.000 A 
ATOM     10  C   UNL     1      46.016   2.007   8.421  0.00  0.00    +0.000 A 
ATOM     11  C   UNL     1      46.656   0.989   7.710  0.00  0.00    +0.000 A 
ATOM     12  C   UNL     1      47.321   1.280   6.523  0.00  0.00    +0.000 A 
ATOM     13  C   UNL     1      47.347   2.588   6.048  0.00  0.00    +0.000 A 
ATOM     14  C   UNL     1      46.708   3.608   6.760  0.00  0.00    +0.000 A 
ENDBRANCH   8   9
BRANCH   8  15
ATOM     15  O   UNL     1      43.855   4.341   8.428  0.00  0.00    +0.000 OA
ATOM     16  H   UNL     1      43.724   3.546   7.887  0.00  0.00    +0.000 HD
ENDBRANCH   8  15
ENDBRANCH   5   8
ENDBRANCH   1   2
BRANCH   1  19
ATOM     17  O   UNL     1      46.605   3.625  17.040  0.00  0.00    +0.000 OA
ATOM     18  C   UNL     1      47.289   4.303  16.279  0.00  0.00    +0.000 C 
ATOM     19  N   UNL     1      46.817   4.770  15.082  0.00  0.00    +0.000 N 
ATOM     20  H   UNL     1      47.464   5.184  14.419  0.00  0.00    +0.000 HD
BRANCH  18  21
ATOM     21  C   UNL     1      48.656   4.709  16.634  0.00  0.00    +0.000 A 
ATOM     22  C   UNL     1      48.996   6.056  16.646  0.00  0.00    +0.000 A 
ATOM     23  S   UNL     1      50.621   6.348  17.073  0.00  0.00    +0.000 S 
ATOM     24  C   UNL     1      50.918   4.689  17.300  0.00  0.00    +0.000 A 
ATOM     25  N   UNL     1      52.135   4.249  17.721  0.00  0.00    +0.000 NA
ATOM     26  C   UNL     1      52.206   2.972  17.903  0.00  0.00    +0.000 A 
ATOM     27  N   UNL     1      51.175   2.095  17.683  0.00  0.00    +0.000 N 
ATOM     28  C   UNL     1      49.961   2.483  17.176  0.00  0.00    +0.000 A 
ATOM     29  O   UNL     1      49.119   1.653  16.848  0.00  0.00    +0.000 OA
ATOM     30  C   UNL     1      49.803   3.918  17.020  0.00  0.00    +0.000 A 
ATOM     31  H   UNL     1      51.308   1.102  17.806  0.00  0.00    +0.000 HD
ENDBRANCH  18  21
ENDBRANCH   1  19
TORSDOF 6
ENDMDL
MODEL 5
REMARK VINA RESULT:    -7.834      2.412      3.285
REMARK INTER + INTRA:         -11.295
REMARK INTER:                 -10.653
REMARK INTRA:                  -0.642
REMARK UNBOUND:                -0.942
REMARK  Name = 
REMARK  6 active torsions:
REMARK  status: ('A' for Active; 'I' for Inactive)
REMARK    1  A    between atoms: C_2  and  C_19
REMARK    2  A    between atoms: N_3  and  C_4
REMARK    3  A    between atoms: C_4  and  C_5
REMARK    4  A    between atoms: C_8  and  C_9
REMARK    5  A    between atoms: C_9  and  O_10
REMARK    6  A    between atoms: C_9  and  C_11
REMARK                            x       y       z     vdW  Elec       q    Type
REMARK                         _______ _______ _______ _____ _____    ______ ____
ROOT
ATOM      1  C   UNL     1      46.402   4.765  14.476  0.00  0.00    +0.000 C 
ENDROOT
BRANCH   1   2
ATOM      2  C   UNL     1      45.998   4.695  13.027  0.00  0.00    +0.000 A 
ATOM      3  C   UNL     1      46.326   5.740  12.156  0.00  0.00    +0.000 A 
ATOM      4  C   UNL     1      46.005   5.660  10.799  0.00  0.00    +0.000 A 
ATOM      5  C   UNL     1      45.339   4.538  10.282  0.00  0.00    +0.000 A 
ATOM      6  C   UNL     1      44.959   3.519  11.171  0.00  0.00    +0.000 A 
ATOM      7  C   UNL     1      45.281   3.599  12.529  0.00  0.00    +0.000 A 
BRANCH   5   8
ATOM      8  C   UNL     1      45.045   4.448   8.795  0.00  0.00    +0.000 C 
BRANCH   8   9
ATOM      9  C   UNL     1      45.757   3.338   8.023  0.00  0.00    +0.000 A 
ATOM     10  C   UNL     1      46.489   3.651   6.862  0.00  0.00    +0.000 A 
ATOM     11  C   UNL     1      47.220   2.673   6.182  0.00  0.00    +0.000 A 
ATOM     12  C   UNL     1      47.247   1.367   6.658  0.00  0.00    +0.000 A 
ATOM     13  C   UNL     1      46.542   1.036   7.812  0.00  0.00    +0.000 A 
ATOM     14  C   UNL     1      45.809   2.014   8.493  0.00  0.00    +0.000 A 
ENDBRANCH   8   9
BRANCH   8  15
ATOM     15  O   UNL     1      43.624   4.354   8.664  0.00  0.00    +0.000 OA
ATOM     16  H   UNL     1      43.437   4.281   7.715  0.00  0.00    +0.000 HD
ENDBRANCH   8  15
ENDBRANCH   5   8
ENDBRANCH   1   2
BRANCH   1  19
ATOM     17  O   UNL     1      48.589   4.828  16.261  0.00  0.00    +0.000 OA
ATOM     18  C   UNL     1      48.337   5.823  15.588  0.00  0.00    +0.000 C 
ATOM     19  N   UNL     1      47.268   5.884  14.735  0.00  0.00    +0.000 N 
ATOM     20  H   UNL     1      47.193   6.659  14.085  0.00  0.00    +0.000 HD
BRANCH  18  21
ATOM     21  C   UNL     1      49.141   7.048  15.698  0.00  0.00    +0.000 A 
ATOM     22  C   UNL     1      49.953   7.440  14.642  0.00  0.00    +0.000 A 
ATOM     23  S   UNL     1      50.820   8.877  14.940  0.00  0.00    +0.000 S 
ATOM     24  C   UNL     1      50.109   9.053  16.475  0.00  0.00    +0.000 A 
ATOM     25  N   UNL     1      50.394  10.129  17.258  0.00  0.00    +0.000 NA
ATOM     26  C   UNL     1      49.744  10.163  18.374  0.00  0.00    +0.000 A 
ATOM     27  N   UNL     1      48.849   9.209  18.785  0.00  0.00    +0.000 N 
ATOM     28  C   UNL     1      48.597   8.066  18.069  0.00  0.00    +0.000 A 
ATOM     29  O   UNL     1      47.910   7.165  18.540  0.00  0.00    +0.000 OA
ATOM     30  C   UNL     1      49.248   8.010  16.772  0.00  0.00    +0.000 A 
ATOM     31  H   UNL     1      48.404   9.274  19.688  0.00  0.00    +0.000 HD
ENDBRANCH  18  21
ENDBRANCH   1  19
TORSDOF 6
ENDMDL
MODEL 6
REMARK VINA RESULT:    -7.822      2.879      3.739
REMARK INTER + INTRA:         -11.278
REMARK INTER:                 -10.371
REMARK INTRA:                  -0.907
REMARK UNBOUND:                -0.942
REMARK  Name = 
REMARK  6 active torsions:
REMARK  status: ('A' for Active; 'I' for Inactive)
REMARK    1  A    between atoms: C_2  and  C_19
REMARK    2  A    between atoms: N_3  and  C_4
REMARK    3  A    between atoms: C_4  and  C_5
REMARK    4  A    between atoms: C_8  and  C_9
REMARK    5  A    between atoms: C_9  and  O_10
REMARK    6  A    between atoms: C_9  and  C_11
REMARK                            x       y       z     vdW  Elec       q    Type
REMARK                         _______ _______ _______ _____ _____    ______ ____
ROOT
ATOM      1  C   UNL     1      45.530   6.358  13.234  0.00  0.00    +0.000 C 
ENDROOT
BRANCH   1   2
ATOM      2  C   UNL     1      45.230   5.420  12.095  0.00  0.00    +0.000 A 
ATOM      3  C   UNL     1      45.559   5.780  10.784  0.00  0.00    +0.000 A 
ATOM      4  C   UNL     1      45.335   4.894   9.727  0.00  0.00    +0.000 A 
ATOM      5  C   UNL     1      44.767   3.631   9.954  0.00  0.00    +0.000 A 
ATOM      6  C   UNL     1      44.383   3.298  11.264  0.00  0.00    +0.000 A 
ATOM      7  C   UNL     1      44.608   4.184  12.322  0.00  0.00    +0.000 A 
BRANCH   5   8
ATOM      8  C   UNL     1      44.579   2.664   8.799  0.00  0.00    +0.000 C 
BRANCH   8   9
ATOM      9  C   UNL     1      45.754   2.516   7.834  0.00  0.00    +0.000 A 
ATOM     10  C   UNL     1      46.591   1.387   7.917  0.00  0.00    +0.000 A 
ATOM     11  C   UNL     1      47.622   1.181   6.997  0.00  0.00    +0.000 A 
ATOM     12  C   UNL     1      47.827   2.090   5.965  0.00  0.00    +0.000 A 
ATOM     13  C   UNL     1      47.003   3.207   5.853  0.00  0.00    +0.000 A 
ATOM     14  C   UNL     1      45.972   3.415   6.775  0.00  0.00    +0.000 A 
ENDBRANCH   8   9
BRANCH   8  15
ATOM     15  O   UNL     1      44.207   1.409   9.374  0.00  0.00    +0.000 OA
ATOM     16  H   UNL     1      43.571   1.001   8.764  0.00  0.00    +0.000 HD
ENDBRANCH   8  15
ENDBRANCH   5   8
ENDBRANCH   1   2
BRANCH   1  19
ATOM     17  O   UNL     1      45.831   9.165  13.160  0.00  0.00    +0.000 OA
ATOM     18  C   UNL     1      46.823   8.453  13.035  0.00  0.00    +0.000 C 
ATOM     19  N   UNL     1      46.751   7.085  13.017  0.00  0.00    +0.000 N 
ATOM     20  H   UNL     1      47.605   6.541  13.075  0.00  0.00    +0.000 HD
BRANCH  18  21
ATOM     21  C   UNL     1      48.161   9.029  12.839  0.00  0.00    +0.000 A 
ATOM     22  C   UNL     1      48.316  10.166  12.056  0.00  0.00    +0.000 A 
ATOM     23  S   UNL     1      49.932  10.695  11.930  0.00  0.00    +0.000 S 
ATOM     24  C   UNL     1      50.478   9.450  12.952  0.00  0.00    +0.000 A 
ATOM     25  N   UNL     1      51.791   9.355  13.297  0.00  0.00    +0.000 NA
ATOM     26  C   UNL     1      52.057   8.395  14.120  0.00  0.00    +0.000 A 
ATOM     27  N   UNL     1      51.132   7.513  14.615  0.00  0.00    +0.000 N 
ATOM     28  C   UNL     1      49.816   7.518  14.228  0.00  0.00    +0.000 A 
ATOM     29  O   UNL     1      49.053   6.620  14.571  0.00  0.00    +0.000 OA
ATOM     30  C   UNL     1      49.447   8.619  13.357  0.00  0.00    +0.000 A 
ATOM     31  H   UNL     1      51.412   6.759  15.225  0.00  0.00    +0.000 HD
ENDBRANCH  18  21
ENDBRANCH   1  19
TORSDOF 6
ENDMDL
MODEL 7
REMARK VINA RESULT:    -7.621      1.362      2.073
REMARK INTER + INTRA:         -11.013
REMARK INTER:                 -10.022
REMARK INTRA:                  -0.990
REMARK UNBOUND:                -0.942
REMARK  Name = 
REMARK  6 active torsions:
REMARK  status: ('A' for Active; 'I' for Inactive)
REMARK    1  A    between atoms: C_2  and  C_19
REMARK    2  A    between atoms: N_3  and  C_4
REMARK    3  A    between atoms: C_4  and  C_5
REMARK    4  A    between atoms: C_8  and  C_9
REMARK    5  A    between atoms: C_9  and  O_10
REMARK    6  A    between atoms: C_9  and  C_11
REMARK                            x       y       z     vdW  Elec       q    Type
REMARK                         _______ _______ _______ _____ _____    ______ ____
ROOT
ATOM      1  C   UNL     1      47.581   8.091  13.860  0.00  0.00    +0.000 C 
ENDROOT
BRANCH   1   2
ATOM      2  C   UNL     1      46.751   7.253  12.924  0.00  0.00    +0.000 A 
ATOM      3  C   UNL     1      46.886   5.860  12.921  0.00  0.00    +0.000 A 
ATOM      4  C   UNL     1      46.081   5.070  12.096  0.00  0.00    +0.000 A 
ATOM      5  C   UNL     1      45.130   5.654  11.246  0.00  0.00    +0.000 A 
ATOM      6  C   UNL     1      45.040   7.056  11.208  0.00  0.00    +0.000 A 
ATOM      7  C   UNL     1      45.844   7.846  12.035  0.00  0.00    +0.000 A 
BRANCH   5   8
ATOM      8  C   UNL     1      44.231   4.775  10.395  0.00  0.00    +0.000 C 
BRANCH   8   9
ATOM      9  C   UNL     1      44.922   3.883   9.366  0.00  0.00    +0.000 A 
ATOM     10  C   UNL     1      45.671   4.465   8.325  0.00  0.00    +0.000 A 
ATOM     11  C   UNL     1      46.384   3.676   7.418  0.00  0.00    +0.000 A 
ATOM     12  C   UNL     1      46.376   2.291   7.543  0.00  0.00    +0.000 A 
ATOM     13  C   UNL     1      45.654   1.693   8.572  0.00  0.00    +0.000 A 
ATOM     14  C   UNL     1      44.939   2.481   9.480  0.00  0.00    +0.000 A 
ENDBRANCH   8   9
BRANCH   8  15
ATOM     15  O   UNL     1      43.429   4.013  11.301  0.00  0.00    +0.000 OA
ATOM     16  H   UNL     1      44.004   3.323  11.667  0.00  0.00    +0.000 HD
ENDBRANCH   8  15
ENDBRANCH   5   8
ENDBRANCH   1   2
BRANCH   1  19
ATOM     17  O   UNL     1      50.006   8.150  15.306  0.00  0.00    +0.000 OA
ATOM     18  C   UNL     1      49.059   7.506  15.750  0.00  0.00    +0.000 C 
ATOM     19  N   UNL     1      47.867   7.394  15.085  0.00  0.00    +0.000 N 
ATOM     20  H   UNL     1      47.068   6.991  15.561  0.00  0.00    +0.000 HD
BRANCH  18  21
ATOM     21  C   UNL     1      49.164   6.759  17.011  0.00  0.00    +0.000 A 
ATOM     22  C   UNL     1      49.698   7.373  18.137  0.00  0.00    +0.000 A 
ATOM     23  S   UNL     1      49.751   6.362  19.509  0.00  0.00    +0.000 S 
ATOM     24  C   UNL     1      49.022   5.081  18.661  0.00  0.00    +0.000 A 
ATOM     25  N   UNL     1      48.736   3.905  19.284  0.00  0.00    +0.000 NA
ATOM     26  C   UNL     1      48.135   3.039  18.537  0.00  0.00    +0.000 A 
ATOM     27  N   UNL     1      47.812   3.236  17.219  0.00  0.00    +0.000 N 
ATOM     28  C   UNL     1      48.158   4.370  16.529  0.00  0.00    +0.000 A 
ATOM     29  O   UNL     1      47.990   4.446  15.315  0.00  0.00    +0.000 OA
ATOM     30  C   UNL     1      48.773   5.406  17.338  0.00  0.00    +0.000 A 
ATOM     31  H   UNL     1      47.378   2.502  16.679  0.00  0.00    +0.000 HD
ENDBRANCH  18  21
ENDBRANCH   1  19
TORSDOF 6
ENDMDL
MODEL 8
REMARK VINA RESULT:    -7.300      3.868      9.162
REMARK INTER + INTRA:         -10.589
REMARK INTER:                  -9.612
REMARK INTRA:                  -0.977
REMARK UNBOUND:                -0.942
REMARK  Name = 
REMARK  6 active torsions:
REMARK  status: ('A' for Active; 'I' for Inactive)
REMARK    1  A    between atoms: C_2  and  C_19
REMARK    2  A    between atoms: N_3  and  C_4
REMARK    3  A    between atoms: C_4  and  C_5
REMARK    4  A    between atoms: C_8  and  C_9
REMARK    5  A    between atoms: C_9  and  O_10
REMARK    6  A    between atoms: C_9  and  C_11
REMARK                            x       y       z     vdW  Elec       q    Type
REMARK                         _______ _______ _______ _____ _____    ______ ____
ROOT
ATOM      1  C   UNL     1      47.154   3.393  16.888  0.00  0.00    +0.000 C 
ENDROOT
BRANCH   1   2
ATOM      2  C   UNL     1      48.641   3.355  17.119  0.00  0.00    +0.000 A 
ATOM      3  C   UNL     1      49.322   4.514  17.507  0.00  0.00    +0.000 A 
ATOM      4  C   UNL     1      50.692   4.477  17.778  0.00  0.00    +0.000 A 
ATOM      5  C   UNL     1      51.417   3.281  17.657  0.00  0.00    +0.000 A 
ATOM      6  C   UNL     1      50.742   2.133  17.209  0.00  0.00    +0.000 A 
ATOM      7  C   UNL     1      49.370   2.171  16.940  0.00  0.00    +0.000 A 
BRANCH   5   8
ATOM      8  C   UNL     1      52.895   3.251  18.005  0.00  0.00    +0.000 C 
BRANCH   8   9
ATOM      9  C   UNL     1      53.592   4.603  18.144  0.00  0.00    +0.000 A 
ATOM     10  C   UNL     1      53.822   5.144  19.424  0.00  0.00    +0.000 A 
ATOM     11  C   UNL     1      54.531   6.337  19.588  0.00  0.00    +0.000 A 
ATOM     12  C   UNL     1      55.039   7.004  18.479  0.00  0.00    +0.000 A 
ATOM     13  C   UNL     1      54.836   6.481  17.205  0.00  0.00    +0.000 A 
ATOM     14  C   UNL     1      54.126   5.288  17.038  0.00  0.00    +0.000 A 
ENDBRANCH   8   9
BRANCH   8  15
ATOM     15  O   UNL     1      53.018   2.468  19.195  0.00  0.00    +0.000 OA
ATOM     16  H   UNL     1      53.478   1.651  18.945  0.00  0.00    +0.000 HD
ENDBRANCH   8  15
ENDBRANCH   5   8
ENDBRANCH   1   2
BRANCH   1  19
ATOM     17  O   UNL     1      47.254   3.056  14.086  0.00  0.00    +0.000 OA
ATOM     18  C   UNL     1      46.833   4.112  14.547  0.00  0.00    +0.000 C 
ATOM     19  N   UNL     1      46.795   4.367  15.892  0.00  0.00    +0.000 N 
ATOM     20  H   UNL     1      46.294   5.180  16.232  0.00  0.00    +0.000 HD
BRANCH  18  21
ATOM     21  C   UNL     1      46.389   5.208  13.674  0.00  0.00    +0.000 A 
ATOM     22  C   UNL     1      47.236   6.280  13.423  0.00  0.00    +0.000 A 
ATOM     23  S   UNL     1      46.561   7.461  12.396  0.00  0.00    +0.000 S 
ATOM     24  C   UNL     1      45.129   6.563  12.213  0.00  0.00    +0.000 A 
ATOM     25  N   UNL     1      44.127   7.004  11.404  0.00  0.00    +0.000 NA
ATOM     26  C   UNL     1      43.120   6.198  11.315  0.00  0.00    +0.000 A 
ATOM     27  N   UNL     1      43.018   5.002  11.978  0.00  0.00    +0.000 N 
ATOM     28  C   UNL     1      43.963   4.560  12.869  0.00  0.00    +0.000 A 
ATOM     29  O   UNL     1      43.765   3.563  13.556  0.00  0.00    +0.000 OA
ATOM     30  C   UNL     1      45.149   5.393  12.953  0.00  0.00    +0.000 A 
ATOM     31  H   UNL     1      42.186   4.437  11.896  0.00  0.00    +0.000 HD
ENDBRANCH  18  21
ENDBRANCH   1  19
TORSDOF 6
ENDMDL
MODEL 9
REMARK VINA RESULT:    -6.824      4.901      7.464
REMARK INTER + INTRA:          -9.960
REMARK INTER:                  -8.868
REMARK INTRA:                  -1.093
REMARK UNBOUND:                -0.942
REMARK  Name = 
REMARK  6 active torsions:
REMARK  status: ('A' for Active; 'I' for Inactive)
REMARK    1  A    between atoms: C_2  and  C_19
REMARK    2  A    between atoms: N_3  and  C_4
REMARK    3  A    between atoms: C_4  and  C_5
REMARK    4  A    between atoms: C_8  and  C_9
REMARK    5  A    between atoms: C_9  and  O_10
REMARK    6  A    between atoms: C_9  and  C_11
REMARK                            x       y       z     vdW  Elec       q    Type
REMARK                         _______ _______ _______ _____ _____    ______ ____
ROOT
ATOM      1  C   UNL     1      46.614   8.483  12.481  0.00  0.00    +0.000 C 
ENDROOT
BRANCH   1   2
ATOM      2  C   UNL     1      48.080   8.552  12.141  0.00  0.00    +0.000 A 
ATOM      3  C   UNL     1      48.882   7.412  12.256  0.00  0.00    +0.000 A 
ATOM      4  C   UNL     1      50.230   7.452  11.891  0.00  0.00    +0.000 A 
ATOM      5  C   UNL     1      50.811   8.636  11.413  0.00  0.00    +0.000 A 
ATOM      6  C   UNL     1      50.017   9.794  11.356  0.00  0.00    +0.000 A 
ATOM      7  C   UNL     1      48.667   9.753  11.720  0.00  0.00    +0.000 A 
BRANCH   5   8
ATOM      8  C   UNL     1      52.265   8.645  10.973  0.00  0.00    +0.000 C 
BRANCH   8   9
ATOM      9  C   UNL     1      52.534   8.360   9.497  0.00  0.00    +0.000 A 
ATOM     10  C   UNL     1      52.407   7.047   9.004  0.00  0.00    +0.000 A 
ATOM     11  C   UNL     1      52.564   6.767   7.644  0.00  0.00    +0.000 A 
ATOM     12  C   UNL     1      52.835   7.795   6.747  0.00  0.00    +0.000 A 
ATOM     13  C   UNL     1      52.951   9.103   7.210  0.00  0.00    +0.000 A 
ATOM     14  C   UNL     1      52.796   9.385   8.571  0.00  0.00    +0.000 A 
ENDBRANCH   8   9
BRANCH   8  15
ATOM     15  O   UNL     1      52.804   9.907  11.374  0.00  0.00    +0.000 OA
ATOM     16  H   UNL     1      53.764   9.786  11.454  0.00  0.00    +0.000 HD
ENDBRANCH   8  15
ENDBRANCH   5   8
ENDBRANCH   1   2
BRANCH   1  19
ATOM     17  O   UNL     1      44.320   7.740  11.012  0.00  0.00    +0.000 OA
ATOM     18  C   UNL     1      44.993   6.868  11.552  0.00  0.00    +0.000 C 
ATOM     19  N   UNL     1      46.093   7.153  12.317  0.00  0.00    +0.000 N 
ATOM     20  H   UNL     1      46.706   6.400  12.607  0.00  0.00    +0.000 HD
BRANCH  18  21
ATOM     21  C   UNL     1      44.625   5.448  11.460  0.00  0.00    +0.000 A 
ATOM     22  C   UNL     1      43.925   4.845  12.496  0.00  0.00    +0.000 A 
ATOM     23  S   UNL     1      43.587   3.196  12.228  0.00  0.00    +0.000 S 
ATOM     24  C   UNL     1      44.325   3.237  10.696  0.00  0.00    +0.000 A 
ATOM     25  N   UNL     1      44.343   2.134   9.900  0.00  0.00    +0.000 NA
ATOM     26  C   UNL     1      44.889   2.321   8.743  0.00  0.00    +0.000 A 
ATOM     27  N   UNL     1      45.435   3.505   8.321  0.00  0.00    +0.000 N 
ATOM     28  C   UNL     1      45.517   4.616   9.122  0.00  0.00    +0.000 A 
ATOM     29  O   UNL     1      46.148   5.606   8.765  0.00  0.00    +0.000 OA
ATOM     30  C   UNL     1      44.855   4.483  10.407  0.00  0.00    +0.000 A 
ATOM     31  H   UNL     1      45.883   3.574   7.419  0.00  0.00    +0.000 HD
ENDBRANCH  18  21
ENDBRANCH   1  19
TORSDOF 6
ENDMDL
