MODEL 1
REMARK VINA RESULT:    -8.975      0.000      0.000
REMARK INTER + INTRA:         -14.118
REMARK INTER:                 -12.910
REMARK INTRA:                  -1.207
REMARK UNBOUND:                -1.207
REMARK  Name = 
REMARK  10 active torsions:
REMARK  status: ('A' for Active; 'I' for Inactive)
REMARK    1  A    between atoms: C_1  and  C_2
REMARK    2  A    between atoms: C_2  and  C_3
REMARK    3  A    between atoms: C_6  and  O_7
REMARK    4  A    between atoms: O_7  and  C_8
REMARK    5  A    between atoms: C_10  and  C_11
REMARK    6  A    between atoms: C_11  and  C_14
REMARK    7  A    between atoms: C_14  and  N_15
REMARK    8  A    between atoms: N_15  and  C_16
REMARK    9  A    between atoms: C_19  and  S_20
REMARK   10  A    between atoms: S_20  and  N_21
REMARK                            x       y       z     vdW  Elec       q    Type
REMARK                         _______ _______ _______ _____ _____    ______ ____
ROOT
ATOM      1  C   UNL     1      43.191   4.995  12.744  0.00  0.00    +0.000 C 
ATOM      2  F   UNL     1      42.643   4.461  13.870  0.00  0.00    +0.000 F 
ATOM      3  F   UNL     1      42.365   6.021  12.380  0.00  0.00    +0.000 F 
ENDROOT
BRANCH   1   6
ATOM      4  C   UNL     1      46.911   5.027  13.692  0.00  0.00    +0.000 A 
ATOM      5  C   UNL     1      45.556   4.674  13.666  0.00  0.00    +0.000 A 
ATOM      6  C   UNL     1      44.628   5.457  12.950  0.00  0.00    +0.000 A 
ATOM      7  C   UNL     1      45.073   6.622  12.306  0.00  0.00    +0.000 A 
ATOM      8  C   UNL     1      46.426   6.948  12.297  0.00  0.00    +0.000 A 
ATOM      9  C   UNL     1      47.338   6.137  12.963  0.00  0.00    +0.000 A 
ATOM     10  F   UNL     1      48.639   6.446  12.871  0.00  0.00    +0.000 F 
BRANCH   4  11
ATOM     11  O   UNL     1      47.751   4.220  14.424  0.00  0.00    +0.000 OA
BRANCH  11  17
ATOM     12  C   UNL     1      49.065   6.124  16.351  0.00  0.00    +0.000 C 
ATOM     13  C   UNL     1      48.270   4.935  16.874  0.00  0.00    +0.000 C 
ATOM     14  C   UNL     1      47.491   5.295  18.146  0.00  0.00    +0.000 C 
ATOM     15  N   UNL     1      49.165   3.768  17.088  0.00  0.00    +0.000 NA
ATOM     16  C   UNL     1      48.140   2.866  16.537  0.00  0.00    +0.000 C 
ATOM     17  C   UNL     1      47.457   4.070  15.844  0.00  0.00    +0.000 C 
ATOM     18  H   UNL     1      49.431   3.584  18.054  0.00  0.00    +0.000 HD
ENDBRANCH  11  17
ENDBRANCH   4  11
ENDBRANCH   1   6
BRANCH   1  19
ATOM     19  C   UNL     1      43.194   3.935  11.607  0.00  0.00    +0.000 C 
BRANCH  19  20
ATOM     20  N   UNL     1      43.473   4.467  10.256  0.00  0.00    +0.000 N 
ATOM     21  H   UNL     1      43.581   5.481  10.252  0.00  0.00    +0.000 HD
BRANCH  20  22
ATOM     22  C   UNL     1      44.465   3.814   9.505  0.00  0.00    +0.000 A 
ATOM     23  C   UNL     1      44.588   2.416   9.459  0.00  0.00    +0.000 A 
ATOM     24  C   UNL     1      45.506   1.790   8.613  0.00  0.00    +0.000 A 
ATOM     25  C   UNL     1      46.298   2.564   7.769  0.00  0.00    +0.000 A 
ATOM     26  C   UNL     1      46.206   3.954   7.794  0.00  0.00    +0.000 A 
ATOM     27  C   UNL     1      45.278   4.568   8.645  0.00  0.00    +0.000 A 
BRANCH  25  28
ATOM     28  S   UNL     1      47.390   1.765   6.633  0.00  0.00    +0.000 S 
ATOM     29  O   UNL     1      48.739   2.218   6.870  0.00  0.00    +0.000 OA
ATOM     30  O   UNL     1      47.041   0.371   6.534  0.00  0.00    +0.000 OA
BRANCH  28  31
ATOM     31  N   UNL     1      46.907   2.468   5.183  0.00  0.00    +0.000 NA
ATOM     32  H   UNL     1      46.648   1.749   4.508  0.00  0.00    +0.000 HD
ATOM     33  H   UNL     1      46.190   3.172   5.350  0.00  0.00    +0.000 HD
ENDBRANCH  28  31
ENDBRANCH  25  28
ENDBRANCH  20  22
ENDBRANCH  19  20
ENDBRANCH   1  19
TORSDOF 8
ENDMDL
MODEL 2
REMARK VINA RESULT:    -7.955      1.302      1.822
REMARK INTER + INTRA:         -12.650
REMARK INTER:                 -11.518
REMARK INTRA:                  -1.132
REMARK UNBOUND:                -1.207
REMARK  Name = 
REMARK  10 active torsions:
REMARK  status: ('A' for Active; 'I' for Inactive)
REMARK    1  A    between atoms: C_1  and  C_2
REMARK    2  A    between atoms: C_2  and  C_3
REMARK    3  A    between atoms: C_6  and  O_7
REMARK    4  A    between atoms: O_7  and  C_8
REMARK    5  A    between atoms: C_10  and  C_11
REMARK    6  A    between atoms: C_11  and  C_14
REMARK    7  A    between atoms: C_14  and  N_15
REMARK    8  A    between atoms: N_15  and  C_16
REMARK    9  A    between atoms: C_19  and  S_20
REMARK   10  A    between atoms: S_20  and  N_21
REMARK                            x       y       z     vdW  Elec       q    Type
REMARK                         _______ _______ _______ _____ _____    ______ ____
ROOT
ATOM      1  C   UNL     1      45.157   4.587  12.748  0.00  0.00    +0.000 C 
ATOM      2  F   UNL     1      45.535   3.327  12.396  0.00  0.00    +0.000 F 
ATOM      3  F   UNL     1      44.374   4.442  13.859  0.00  0.00    +0.000 F 
ENDROOT
BRANCH   1   6
ATOM      4  C   UNL     1      48.303   6.146  14.301  0.00  0.00    +0.000 A 
ATOM      5  C   UNL     1      47.115   5.416  14.172  0.00  0.00    +0.000 A 
ATOM      6  C   UNL     1      46.344   5.510  12.996  0.00  0.00    +0.000 A 
ATOM      7  C   UNL     1      46.758   6.383  11.977  0.00  0.00    +0.000 A 
ATOM      8  C   UNL     1      47.960   7.075  12.090  0.00  0.00    +0.000 A 
ATOM      9  C   UNL     1      48.737   6.931  13.233  0.00  0.00    +0.000 A 
ATOM     10  F   UNL     1      49.921   7.558  13.272  0.00  0.00    +0.000 F 
BRANCH   4  11
ATOM     11  O   UNL     1      48.991   6.011  15.484  0.00  0.00    +0.000 OA
BRANCH  11  17
ATOM     12  C   UNL     1      48.861   7.516  18.088  0.00  0.00    +0.000 C 
ATOM     13  C   UNL     1      48.358   6.082  18.010  0.00  0.00    +0.000 C 
ATOM     14  C   UNL     1      47.111   5.874  18.879  0.00  0.00    +0.000 C 
ATOM     15  N   UNL     1      49.444   5.132  18.370  0.00  0.00    +0.000 NA
ATOM     16  C   UNL     1      49.024   4.224  17.289  0.00  0.00    +0.000 C 
ATOM     17  C   UNL     1      48.282   5.394  16.599  0.00  0.00    +0.000 C 
ATOM     18  H   UNL     1      49.397   4.739  19.309  0.00  0.00    +0.000 HD
ENDBRANCH  11  17
ENDBRANCH   4  11
ENDBRANCH   1   6
BRANCH   1  19
ATOM     19  C   UNL     1      44.298   5.215  11.616  0.00  0.00    +0.000 C 
BRANCH  19  20
ATOM     20  N   UNL     1      43.650   4.244  10.710  0.00  0.00    +0.000 N 
ATOM     21  H   UNL     1      42.734   4.562  10.390  0.00  0.00    +0.000 HD
BRANCH  20  22
ATOM     22  C   UNL     1      44.434   3.721   9.668  0.00  0.00    +0.000 A 
ATOM     23  C   UNL     1      45.254   4.521   8.857  0.00  0.00    +0.000 A 
ATOM     24  C   UNL     1      46.113   3.962   7.907  0.00  0.00    +0.000 A 
ATOM     25  C   UNL     1      46.185   2.578   7.780  0.00  0.00    +0.000 A 
ATOM     26  C   UNL     1      45.380   1.754   8.564  0.00  0.00    +0.000 A 
ATOM     27  C   UNL     1      44.526   2.329   9.516  0.00  0.00    +0.000 A 
BRANCH  25  28
ATOM     28  S   UNL     1      47.340   1.872   6.644  0.00  0.00    +0.000 S 
ATOM     29  O   UNL     1      48.648   2.429   6.886  0.00  0.00    +0.000 OA
ATOM     30  O   UNL     1      47.102   0.454   6.541  0.00  0.00    +0.000 OA
BRANCH  28  31
ATOM     31  N   UNL     1      46.806   2.538   5.195  0.00  0.00    +0.000 NA
ATOM     32  H   UNL     1      46.835   1.841   4.451  0.00  0.00    +0.000 HD
ATOM     33  H   UNL     1      45.900   2.987   5.322  0.00  0.00    +0.000 HD
ENDBRANCH  28  31
ENDBRANCH  25  28
ENDBRANCH  20  22
ENDBRANCH  19  20
ENDBRANCH   1  19
TORSDOF 8
ENDMDL
MODEL 3
REMARK VINA RESULT:    -7.126      3.154      7.990
REMARK INTER + INTRA:         -11.458
REMARK INTER:                 -10.377
REMARK INTRA:                  -1.081
REMARK UNBOUND:                -1.207
REMARK  Name = 
REMARK  10 active torsions:
REMARK  status: ('A' for Active; 'I' for Inactive)
REMARK    1  A    between atoms: C_1  and  C_2
REMARK    2  A    between atoms: C_2  and  C_3
REMARK    3  A    between atoms: C_6  and  O_7
REMARK    4  A    between atoms: O_7  and  C_8
REMARK    5  A    between atoms: C_10  and  C_11
REMARK    6  A    between atoms: C_11  and  C_14
REMARK    7  A    between atoms: C_14  and  N_15
REMARK    8  A    between atoms: N_15  and  C_16
REMARK    9  A    between atoms: C_19  and  S_20
REMARK   10  A    between atoms: S_20  and  N_21
REMARK                            x       y       z     vdW  Elec       q    Type
REMARK                         _______ _______ _______ _____ _____    ______ ____
ROOT
ATOM      1  C   UNL     1      45.380   6.665  11.485  0.00  0.00    +0.000 C 
ATOM      2  F   UNL     1      45.102   7.723  10.673  0.00  0.00    +0.000 F 
ATOM      3  F   UNL     1      44.855   6.987  12.705  0.00  0.00    +0.000 F 
ENDROOT
BRANCH   1   6
ATOM      4  C   UNL     1      44.842   3.559   9.292  0.00  0.00    +0.000 A 
ATOM      5  C   UNL     1      45.218   4.849   9.689  0.00  0.00    +0.000 A 
ATOM      6  C   UNL     1      44.828   5.350  10.948  0.00  0.00    +0.000 A 
ATOM      7  C   UNL     1      44.017   4.558  11.776  0.00  0.00    +0.000 A 
ATOM      8  C   UNL     1      43.681   3.261  11.398  0.00  0.00    +0.000 A 
ATOM      9  C   UNL     1      44.117   2.761  10.177  0.00  0.00    +0.000 A 
ATOM     10  F   UNL     1      43.833   1.485   9.881  0.00  0.00    +0.000 F 
BRANCH   4  11
ATOM     11  O   UNL     1      45.250   3.149   8.044  0.00  0.00    +0.000 OA
BRANCH  11  17
ATOM     12  C   UNL     1      46.620   3.142   5.364  0.00  0.00    +0.000 C 
ATOM     13  C   UNL     1      47.209   2.352   6.525  0.00  0.00    +0.000 C 
ATOM     14  C   UNL     1      48.742   2.404   6.520  0.00  0.00    +0.000 C 
ATOM     15  N   UNL     1      46.706   0.953   6.507  0.00  0.00    +0.000 NA
ATOM     16  C   UNL     1      46.562   0.975   7.973  0.00  0.00    +0.000 C 
ATOM     17  C   UNL     1      46.564   2.523   7.947  0.00  0.00    +0.000 C 
ATOM     18  H   UNL     1      47.352   0.254   6.145  0.00  0.00    +0.000 HD
ENDBRANCH  11  17
ENDBRANCH   4  11
ENDBRANCH   1   6
BRANCH   1  19
ATOM     19  C   UNL     1      46.918   6.506  11.634  0.00  0.00    +0.000 C 
BRANCH  19  20
ATOM     20  N   UNL     1      47.492   7.097  12.861  0.00  0.00    +0.000 N 
ATOM     21  H   UNL     1      47.107   8.019  13.066  0.00  0.00    +0.000 HD
BRANCH  20  22
ATOM     22  C   UNL     1      47.555   6.273  13.998  0.00  0.00    +0.000 A 
ATOM     23  C   UNL     1      46.951   5.007  14.054  0.00  0.00    +0.000 A 
ATOM     24  C   UNL     1      47.128   4.159  15.151  0.00  0.00    +0.000 A 
ATOM     25  C   UNL     1      47.948   4.562  16.201  0.00  0.00    +0.000 A 
ATOM     26  C   UNL     1      48.557   5.815  16.181  0.00  0.00    +0.000 A 
ATOM     27  C   UNL     1      48.373   6.653  15.073  0.00  0.00    +0.000 A 
BRANCH  25  28
ATOM     28  S   UNL     1      48.245   3.451  17.543  0.00  0.00    +0.000 S 
ATOM     29  O   UNL     1      49.104   2.382  17.095  0.00  0.00    +0.000 OA
ATOM     30  O   UNL     1      48.500   4.208  18.742  0.00  0.00    +0.000 OA
BRANCH  28  31
ATOM     31  N   UNL     1      46.718   2.774  17.737  0.00  0.00    +0.000 NA
ATOM     32  H   UNL     1      46.178   2.859  16.876  0.00  0.00    +0.000 HD
ATOM     33  H   UNL     1      46.792   1.825  18.100  0.00  0.00    +0.000 HD
ENDBRANCH  28  31
ENDBRANCH  25  28
ENDBRANCH  20  22
ENDBRANCH  19  20
ENDBRANCH   1  19
TORSDOF 8
ENDMDL
MODEL 4
REMARK VINA RESULT:    -7.041      4.473      6.216
REMARK INTER + INTRA:         -11.336
REMARK INTER:                  -9.762
REMARK INTRA:                  -1.573
REMARK UNBOUND:                -1.207
REMARK  Name = 
REMARK  10 active torsions:
REMARK  status: ('A' for Active; 'I' for Inactive)
REMARK    1  A    between atoms: C_1  and  C_2
REMARK    2  A    between atoms: C_2  and  C_3
REMARK    3  A    between atoms: C_6  and  O_7
REMARK    4  A    between atoms: O_7  and  C_8
REMARK    5  A    between atoms: C_10  and  C_11
REMARK    6  A    between atoms: C_11  and  C_14
REMARK    7  A    between atoms: C_14  and  N_15
REMARK    8  A    between atoms: N_15  and  C_16
REMARK    9  A    between atoms: C_19  and  S_20
REMARK   10  A    between atoms: S_20  and  N_21
REMARK                            x       y       z     vdW  Elec       q    Type
REMARK                         _______ _______ _______ _____ _____    ______ ____
ROOT
ATOM      1  C   UNL     1      50.024   8.270  14.887  0.00  0.00    +0.000 C 
ATOM      2  F   UNL     1      50.893   9.318  14.847  0.00  0.00    +0.000 F 
ATOM      3  F   UNL     1      50.801   7.145  14.901  0.00  0.00    +0.000 F 
ENDROOT
BRANCH   1   6
ATOM      4  C   UNL     1      48.069   7.303  18.046  0.00  0.00    +0.000 A 
ATOM      5  C   UNL     1      48.793   7.189  16.853  0.00  0.00    +0.000 A 
ATOM      6  C   UNL     1      49.079   8.334  16.081  0.00  0.00    +0.000 A 
ATOM      7  C   UNL     1      48.586   9.580  16.499  0.00  0.00    +0.000 A 
ATOM      8  C   UNL     1      47.904   9.696  17.706  0.00  0.00    +0.000 A 
ATOM      9  C   UNL     1      47.675   8.567  18.484  0.00  0.00    +0.000 A 
ATOM     10  F   UNL     1      47.078   8.732  19.672  0.00  0.00    +0.000 F 
BRANCH   4  11
ATOM     11  O   UNL     1      47.819   6.139  18.735  0.00  0.00    +0.000 OA
BRANCH  11  17
ATOM     12  C   UNL     1      47.258   3.512  17.376  0.00  0.00    +0.000 C 
ATOM     13  C   UNL     1      48.531   3.693  18.191  0.00  0.00    +0.000 C 
ATOM     14  C   UNL     1      49.720   2.969  17.547  0.00  0.00    +0.000 C 
ATOM     15  N   UNL     1      48.314   3.255  19.595  0.00  0.00    +0.000 NA
ATOM     16  C   UNL     1      49.091   4.405  20.086  0.00  0.00    +0.000 C 
ATOM     17  C   UNL     1      48.870   5.128  18.736  0.00  0.00    +0.000 C 
ATOM     18  H   UNL     1      48.692   2.340  19.838  0.00  0.00    +0.000 HD
ENDBRANCH  11  17
ENDBRANCH   4  11
ENDBRANCH   1   6
BRANCH   1  19
ATOM     19  C   UNL     1      49.157   8.256  13.598  0.00  0.00    +0.000 C 
BRANCH  19  20
ATOM     20  N   UNL     1      48.995   6.929  12.967  0.00  0.00    +0.000 N 
ATOM     21  H   UNL     1      49.652   6.241  13.334  0.00  0.00    +0.000 HD
BRANCH  20  22
ATOM     22  C   UNL     1      47.686   6.426  12.866  0.00  0.00    +0.000 A 
ATOM     23  C   UNL     1      46.871   6.648  11.745  0.00  0.00    +0.000 A 
ATOM     24  C   UNL     1      45.620   6.039  11.617  0.00  0.00    +0.000 A 
ATOM     25  C   UNL     1      45.180   5.165  12.608  0.00  0.00    +0.000 A 
ATOM     26  C   UNL     1      45.962   4.927  13.737  0.00  0.00    +0.000 A 
ATOM     27  C   UNL     1      47.216   5.542  13.849  0.00  0.00    +0.000 A 
BRANCH  25  28
ATOM     28  S   UNL     1      43.640   4.323  12.400  0.00  0.00    +0.000 S 
ATOM     29  O   UNL     1      43.189   4.484  11.039  0.00  0.00    +0.000 OA
ATOM     30  O   UNL     1      43.704   3.042  13.056  0.00  0.00    +0.000 OA
BRANCH  28  31
ATOM     31  N   UNL     1      42.629   5.278  13.345  0.00  0.00    +0.000 NA
ATOM     32  H   UNL     1      43.106   5.566  14.199  0.00  0.00    +0.000 HD
ATOM     33  H   UNL     1      42.245   6.044  12.794  0.00  0.00    +0.000 HD
ENDBRANCH  28  31
ENDBRANCH  25  28
ENDBRANCH  20  22
ENDBRANCH  19  20
ENDBRANCH   1  19
TORSDOF 8
ENDMDL
MODEL 5
REMARK VINA RESULT:    -6.894      2.801      3.547
REMARK INTER + INTRA:         -11.124
REMARK INTER:                 -10.431
REMARK INTRA:                  -0.692
REMARK UNBOUND:                -1.207
REMARK  Name = 
REMARK  10 active torsions:
REMARK  status: ('A' for Active; 'I' for Inactive)
REMARK    1  A    between atoms: C_1  and  C_2
REMARK    2  A    between atoms: C_2  and  C_3
REMARK    3  A    between atoms: C_6  and  O_7
REMARK    4  A    between atoms: O_7  and  C_8
REMARK    5  A    between atoms: C_10  and  C_11
REMARK    6  A    between atoms: C_11  and  C_14
REMARK    7  A    between atoms: C_14  and  N_15
REMARK    8  A    between atoms: N_15  and  C_16
REMARK    9  A    between atoms: C_19  and  S_20
REMARK   10  A    between atoms: S_20  and  N_21
REMARK                            x       y       z     vdW  Elec       q    Type
REMARK                         _______ _______ _______ _____ _____    ______ ____
ROOT
ATOM      1  C   UNL     1      44.829   5.369  12.338  0.00  0.00    +0.000 C 
ATOM      2  F   UNL     1      45.776   4.450  11.999  0.00  0.00    +0.000 F 
ATOM      3  F   UNL     1      44.238   4.890  13.474  0.00  0.00    +0.000 F 
ENDROOT
BRANCH   1   6
ATOM      4  C   UNL     1      47.232   8.232  13.212  0.00  0.00    +0.000 A 
ATOM      5  C   UNL     1      46.631   6.967  13.201  0.00  0.00    +0.000 A 
ATOM      6  C   UNL     1      45.407   6.765  12.532  0.00  0.00    +0.000 A 
ATOM      7  C   UNL     1      44.774   7.860  11.921  0.00  0.00    +0.000 A 
ATOM      8  C   UNL     1      45.394   9.106  11.897  0.00  0.00    +0.000 A 
ATOM      9  C   UNL     1      46.627   9.278  12.515  0.00  0.00    +0.000 A 
ATOM     10  F   UNL     1      47.223  10.474  12.408  0.00  0.00    +0.000 F 
BRANCH   4  11
ATOM     11  O   UNL     1      48.419   8.351  13.898  0.00  0.00    +0.000 OA
BRANCH  11  17
ATOM     12  C   UNL     1      50.656  10.357  13.709  0.00  0.00    +0.000 C 
ATOM     13  C   UNL     1      50.735   9.049  12.933  0.00  0.00    +0.000 C 
ATOM     14  C   UNL     1      52.167   8.502  12.898  0.00  0.00    +0.000 C 
ATOM     15  N   UNL     1      50.179   9.224  11.565  0.00  0.00    +0.000 NA
ATOM     16  C   UNL     1      49.520   7.910  11.652  0.00  0.00    +0.000 C 
ATOM     17  C   UNL     1      49.635   7.959  13.195  0.00  0.00    +0.000 C 
ATOM     18  H   UNL     1      50.864   9.318  10.816  0.00  0.00    +0.000 HD
ENDBRANCH  11  17
ENDBRANCH   4  11
ENDBRANCH   1   6
BRANCH   1  19
ATOM     19  C   UNL     1      43.754   5.453  11.220  0.00  0.00    +0.000 C 
BRANCH  19  20
ATOM     20  N   UNL     1      43.432   4.170  10.562  0.00  0.00    +0.000 N 
ATOM     21  H   UNL     1      42.510   4.178  10.124  0.00  0.00    +0.000 HD
BRANCH  20  22
ATOM     22  C   UNL     1      44.419   3.612   9.733  0.00  0.00    +0.000 A 
ATOM     23  C   UNL     1      44.659   2.230   9.658  0.00  0.00    +0.000 A 
ATOM     24  C   UNL     1      45.564   1.693   8.739  0.00  0.00    +0.000 A 
ATOM     25  C   UNL     1      46.223   2.540   7.853  0.00  0.00    +0.000 A 
ATOM     26  C   UNL     1      46.014   3.917   7.904  0.00  0.00    +0.000 A 
ATOM     27  C   UNL     1      45.100   4.441   8.828  0.00  0.00    +0.000 A 
BRANCH  25  28
ATOM     28  S   UNL     1      47.296   1.848   6.630  0.00  0.00    +0.000 S 
ATOM     29  O   UNL     1      48.626   2.378   6.809  0.00  0.00    +0.000 OA
ATOM     30  O   UNL     1      47.027   0.439   6.501  0.00  0.00    +0.000 OA
BRANCH  28  31
ATOM     31  N   UNL     1      46.689   2.566   5.236  0.00  0.00    +0.000 NA
ATOM     32  H   UNL     1      46.022   1.945   4.778  0.00  0.00    +0.000 HD
ATOM     33  H   UNL     1      46.330   3.497   5.441  0.00  0.00    +0.000 HD
ENDBRANCH  28  31
ENDBRANCH  25  28
ENDBRANCH  20  22
ENDBRANCH  19  20
ENDBRANCH   1  19
TORSDOF 8
ENDMDL
MODEL 6
REMARK VINA RESULT:    -6.626      4.179      5.931
REMARK INTER + INTRA:         -10.739
REMARK INTER:                  -9.138
REMARK INTRA:                  -1.602
REMARK UNBOUND:                -1.207
REMARK  Name = 
REMARK  10 active torsions:
REMARK  status: ('A' for Active; 'I' for Inactive)
REMARK    1  A    between atoms: C_1  and  C_2
REMARK    2  A    between atoms: C_2  and  C_3
REMARK    3  A    between atoms: C_6  and  O_7
REMARK    4  A    between atoms: O_7  and  C_8
REMARK    5  A    between atoms: C_10  and  C_11
REMARK    6  A    between atoms: C_11  and  C_14
REMARK    7  A    between atoms: C_14  and  N_15
REMARK    8  A    between atoms: N_15  and  C_16
REMARK    9  A    between atoms: C_19  and  S_20
REMARK   10  A    between atoms: S_20  and  N_21
REMARK                            x       y       z     vdW  Elec       q    Type
REMARK                         _______ _______ _______ _____ _____    ______ ____
ROOT
ATOM      1  C   UNL     1      49.077   8.947  14.345  0.00  0.00    +0.000 C 
ATOM      2  F   UNL     1      47.835   8.793  14.881  0.00  0.00    +0.000 F 
ATOM      3  F   UNL     1      49.295  10.296  14.296  0.00  0.00    +0.000 F 
ENDROOT
BRANCH   1   6
ATOM      4  C   UNL     1      50.824   6.473  16.704  0.00  0.00    +0.000 A 
ATOM      5  C   UNL     1      49.825   7.259  16.117  0.00  0.00    +0.000 A 
ATOM      6  C   UNL     1      50.155   8.217  15.137  0.00  0.00    +0.000 A 
ATOM      7  C   UNL     1      51.504   8.405  14.794  0.00  0.00    +0.000 A 
ATOM      8  C   UNL     1      52.489   7.593  15.347  0.00  0.00    +0.000 A 
ATOM      9  C   UNL     1      52.143   6.617  16.274  0.00  0.00    +0.000 A 
ATOM     10  F   UNL     1      53.111   5.810  16.729  0.00  0.00    +0.000 F 
BRANCH   4  11
ATOM     11  O   UNL     1      50.423   5.571  17.663  0.00  0.00    +0.000 OA
BRANCH  11  17
ATOM     12  C   UNL     1      47.626   5.435  18.768  0.00  0.00    +0.000 C 
ATOM     13  C   UNL     1      48.172   4.289  17.928  0.00  0.00    +0.000 C 
ATOM     14  C   UNL     1      47.089   3.688  17.023  0.00  0.00    +0.000 C 
ATOM     15  N   UNL     1      48.793   3.258  18.801  0.00  0.00    +0.000 NA
ATOM     16  C   UNL     1      49.897   3.093  17.840  0.00  0.00    +0.000 C 
ATOM     17  C   UNL     1      49.566   4.475  17.227  0.00  0.00    +0.000 C 
ATOM     18  H   UNL     1      48.235   2.422  18.968  0.00  0.00    +0.000 HD
ENDBRANCH  11  17
ENDBRANCH   4  11
ENDBRANCH   1   6
BRANCH   1  19
ATOM     19  C   UNL     1      49.098   8.390  12.894  0.00  0.00    +0.000 C 
BRANCH  19  20
ATOM     20  N   UNL     1      48.944   6.924  12.784  0.00  0.00    +0.000 N 
ATOM     21  H   UNL     1      49.515   6.421  13.463  0.00  0.00    +0.000 HD
BRANCH  20  22
ATOM     22  C   UNL     1      47.633   6.424  12.704  0.00  0.00    +0.000 A 
ATOM     23  C   UNL     1      46.816   6.606  11.577  0.00  0.00    +0.000 A 
ATOM     24  C   UNL     1      45.562   5.998  11.475  0.00  0.00    +0.000 A 
ATOM     25  C   UNL     1      45.120   5.166  12.500  0.00  0.00    +0.000 A 
ATOM     26  C   UNL     1      45.902   4.969  13.637  0.00  0.00    +0.000 A 
ATOM     27  C   UNL     1      47.160   5.582  13.722  0.00  0.00    +0.000 A 
BRANCH  25  28
ATOM     28  S   UNL     1      43.576   4.325  12.327  0.00  0.00    +0.000 S 
ATOM     29  O   UNL     1      43.050   4.560  11.004  0.00  0.00    +0.000 OA
ATOM     30  O   UNL     1      43.683   3.008  12.902  0.00  0.00    +0.000 OA
BRANCH  28  31
ATOM     31  N   UNL     1      42.613   5.214  13.380  0.00  0.00    +0.000 NA
ATOM     32  H   UNL     1      42.914   5.072  14.344  0.00  0.00    +0.000 HD
ATOM     33  H   UNL     1      42.570   6.189  13.088  0.00  0.00    +0.000 HD
ENDBRANCH  28  31
ENDBRANCH  25  28
ENDBRANCH  20  22
ENDBRANCH  19  20
ENDBRANCH   1  19
TORSDOF 8
ENDMDL
MODEL 7
REMARK VINA RESULT:    -6.575      4.274      7.991
REMARK INTER + INTRA:         -10.666
REMARK INTER:                  -9.661
REMARK INTRA:                  -1.005
REMARK UNBOUND:                -1.207
REMARK  Name = 
REMARK  10 active torsions:
REMARK  status: ('A' for Active; 'I' for Inactive)
REMARK    1  A    between atoms: C_1  and  C_2
REMARK    2  A    between atoms: C_2  and  C_3
REMARK    3  A    between atoms: C_6  and  O_7
REMARK    4  A    between atoms: O_7  and  C_8
REMARK    5  A    between atoms: C_10  and  C_11
REMARK    6  A    between atoms: C_11  and  C_14
REMARK    7  A    between atoms: C_14  and  N_15
REMARK    8  A    between atoms: N_15  and  C_16
REMARK    9  A    between atoms: C_19  and  S_20
REMARK   10  A    between atoms: S_20  and  N_21
REMARK                            x       y       z     vdW  Elec       q    Type
REMARK                         _______ _______ _______ _____ _____    ______ ____
ROOT
ATOM      1  C   UNL     1      49.623   8.513  12.027  0.00  0.00    +0.000 C 
ATOM      2  F   UNL     1      49.907   7.218  11.712  0.00  0.00    +0.000 F 
ATOM      3  F   UNL     1      50.348   9.274  11.154  0.00  0.00    +0.000 F 
ENDROOT
BRANCH   1   6
ATOM      4  C   UNL     1      45.814   8.197  12.389  0.00  0.00    +0.000 A 
ATOM      5  C   UNL     1      47.165   7.846  12.280  0.00  0.00    +0.000 A 
ATOM      6  C   UNL     1      48.132   8.821  11.963  0.00  0.00    +0.000 A 
ATOM      7  C   UNL     1      47.715  10.138  11.709  0.00  0.00    +0.000 A 
ATOM      8  C   UNL     1      46.378  10.493  11.859  0.00  0.00    +0.000 A 
ATOM      9  C   UNL     1      45.443   9.531  12.225  0.00  0.00    +0.000 A 
ATOM     10  F   UNL     1      44.179   9.927  12.429  0.00  0.00    +0.000 F 
BRANCH   4  11
ATOM     11  O   UNL     1      44.931   7.185  12.688  0.00  0.00    +0.000 OA
BRANCH  11  17
ATOM     12  C   UNL     1      42.706   5.437  11.659  0.00  0.00    +0.000 C 
ATOM     13  C   UNL     1      44.103   4.862  11.851  0.00  0.00    +0.000 C 
ATOM     14  C   UNL     1      44.454   3.857  10.747  0.00  0.00    +0.000 C 
ATOM     15  N   UNL     1      44.234   4.261  13.204  0.00  0.00    +0.000 NA
ATOM     16  C   UNL     1      45.591   4.819  13.333  0.00  0.00    +0.000 C 
ATOM     17  C   UNL     1      45.271   5.846  12.221  0.00  0.00    +0.000 C 
ATOM     18  H   UNL     1      44.177   3.245  13.246  0.00  0.00    +0.000 HD
ENDBRANCH  11  17
ENDBRANCH   4  11
ENDBRANCH   1   6
BRANCH   1  19
ATOM     19  C   UNL     1      50.107   8.821  13.471  0.00  0.00    +0.000 C 
BRANCH  19  20
ATOM     20  N   UNL     1      50.725   7.681  14.181  0.00  0.00    +0.000 N 
ATOM     21  H   UNL     1      51.641   7.914  14.566  0.00  0.00    +0.000 HD
BRANCH  20  22
ATOM     22  C   UNL     1      49.916   6.983  15.094  0.00  0.00    +0.000 A 
ATOM     23  C   UNL     1      48.618   6.547  14.783  0.00  0.00    +0.000 A 
ATOM     24  C   UNL     1      47.881   5.753  15.665  0.00  0.00    +0.000 A 
ATOM     25  C   UNL     1      48.454   5.356  16.870  0.00  0.00    +0.000 A 
ATOM     26  C   UNL     1      49.738   5.776  17.214  0.00  0.00    +0.000 A 
ATOM     27  C   UNL     1      50.467   6.569  16.317  0.00  0.00    +0.000 A 
BRANCH  25  28
ATOM     28  S   UNL     1      47.556   4.275  17.941  0.00  0.00    +0.000 S 
ATOM     29  O   UNL     1      46.715   3.410  17.150  0.00  0.00    +0.000 OA
ATOM     30  O   UNL     1      48.437   3.782  18.969  0.00  0.00    +0.000 OA
BRANCH  28  31
ATOM     31  N   UNL     1      46.526   5.367  18.699  0.00  0.00    +0.000 NA
ATOM     32  H   UNL     1      46.392   5.110  19.677  0.00  0.00    +0.000 HD
ATOM     33  H   UNL     1      46.847   6.322  18.551  0.00  0.00    +0.000 HD
ENDBRANCH  28  31
ENDBRANCH  25  28
ENDBRANCH  20  22
ENDBRANCH  19  20
ENDBRANCH   1  19
TORSDOF 8
ENDMDL
MODEL 8
REMARK VINA RESULT:    -6.537      3.311      7.718
REMARK INTER + INTRA:         -10.611
REMARK INTER:                  -9.529
REMARK INTRA:                  -1.082
REMARK UNBOUND:                -1.207
REMARK  Name = 
REMARK  10 active torsions:
REMARK  status: ('A' for Active; 'I' for Inactive)
REMARK    1  A    between atoms: C_1  and  C_2
REMARK    2  A    between atoms: C_2  and  C_3
REMARK    3  A    between atoms: C_6  and  O_7
REMARK    4  A    between atoms: O_7  and  C_8
REMARK    5  A    between atoms: C_10  and  C_11
REMARK    6  A    between atoms: C_11  and  C_14
REMARK    7  A    between atoms: C_14  and  N_15
REMARK    8  A    between atoms: N_15  and  C_16
REMARK    9  A    between atoms: C_19  and  S_20
REMARK   10  A    between atoms: S_20  and  N_21
REMARK                            x       y       z     vdW  Elec       q    Type
REMARK                         _______ _______ _______ _____ _____    ______ ____
ROOT
ATOM      1  C   UNL     1      48.845   8.899  12.573  0.00  0.00    +0.000 C 
ATOM      2  F   UNL     1      49.851   8.110  12.102  0.00  0.00    +0.000 F 
ATOM      3  F   UNL     1      49.089  10.148  12.074  0.00  0.00    +0.000 F 
ENDROOT
BRANCH   1   6
ATOM      4  C   UNL     1      46.030   6.650  11.247  0.00  0.00    +0.000 A 
ATOM      5  C   UNL     1      47.303   7.202  11.437  0.00  0.00    +0.000 A 
ATOM      6  C   UNL     1      47.463   8.384  12.187  0.00  0.00    +0.000 A 
ATOM      7  C   UNL     1      46.325   9.027  12.699  0.00  0.00    +0.000 A 
ATOM      8  C   UNL     1      45.066   8.454  12.546  0.00  0.00    +0.000 A 
ATOM      9  C   UNL     1      44.929   7.260  11.848  0.00  0.00    +0.000 A 
ATOM     10  F   UNL     1      43.711   6.705  11.784  0.00  0.00    +0.000 F 
BRANCH   4  11
ATOM     11  O   UNL     1      45.955   5.504  10.491  0.00  0.00    +0.000 OA
BRANCH  11  17
ATOM     12  C   UNL     1      45.861   3.375  12.618  0.00  0.00    +0.000 C 
ATOM     13  C   UNL     1      44.742   3.479  11.590  0.00  0.00    +0.000 C 
ATOM     14  C   UNL     1      43.374   3.171  12.215  0.00  0.00    +0.000 C 
ATOM     15  N   UNL     1      45.025   2.599  10.426  0.00  0.00    +0.000 NA
ATOM     16  C   UNL     1      44.537   3.641   9.506  0.00  0.00    +0.000 C 
ATOM     17  C   UNL     1      44.740   4.707  10.610  0.00  0.00    +0.000 C 
ATOM     18  H   UNL     1      44.511   1.720  10.398  0.00  0.00    +0.000 HD
ENDBRANCH  11  17
ENDBRANCH   4  11
ENDBRANCH   1   6
BRANCH   1  19
ATOM     19  C   UNL     1      48.909   8.964  14.124  0.00  0.00    +0.000 C 
BRANCH  19  20
ATOM     20  N   UNL     1      49.858   8.021  14.751  0.00  0.00    +0.000 N 
ATOM     21  H   UNL     1      50.578   8.498  15.294  0.00  0.00    +0.000 HD
BRANCH  20  22
ATOM     22  C   UNL     1      49.308   6.920  15.431  0.00  0.00    +0.000 A 
ATOM     23  C   UNL     1      48.205   6.200  14.946  0.00  0.00    +0.000 A 
ATOM     24  C   UNL     1      47.753   5.039  15.578  0.00  0.00    +0.000 A 
ATOM     25  C   UNL     1      48.429   4.563  16.698  0.00  0.00    +0.000 A 
ATOM     26  C   UNL     1      49.524   5.257  17.211  0.00  0.00    +0.000 A 
ATOM     27  C   UNL     1      49.968   6.417  16.563  0.00  0.00    +0.000 A 
BRANCH  25  28
ATOM     28  S   UNL     1      47.913   3.044  17.440  0.00  0.00    +0.000 S 
ATOM     29  O   UNL     1      46.472   2.981  17.444  0.00  0.00    +0.000 OA
ATOM     30  O   UNL     1      48.741   1.970  16.954  0.00  0.00    +0.000 OA
BRANCH  28  31
ATOM     31  N   UNL     1      48.375   3.300  19.036  0.00  0.00    +0.000 NA
ATOM     32  H   UNL     1      48.544   4.291  19.204  0.00  0.00    +0.000 HD
ATOM     33  H   UNL     1      47.708   2.869  19.674  0.00  0.00    +0.000 HD
ENDBRANCH  28  31
ENDBRANCH  25  28
ENDBRANCH  20  22
ENDBRANCH  19  20
ENDBRANCH   1  19
TORSDOF 8
ENDMDL
MODEL 9
REMARK VINA RESULT:    -6.245      4.457      6.291
REMARK INTER + INTRA:         -10.191
REMARK INTER:                  -9.296
REMARK INTRA:                  -0.894
REMARK UNBOUND:                -1.207
REMARK  Name = 
REMARK  10 active torsions:
REMARK  status: ('A' for Active; 'I' for Inactive)
REMARK    1  A    between atoms: C_1  and  C_2
REMARK    2  A    between atoms: C_2  and  C_3
REMARK    3  A    between atoms: C_6  and  O_7
REMARK    4  A    between atoms: O_7  and  C_8
REMARK    5  A    between atoms: C_10  and  C_11
REMARK    6  A    between atoms: C_11  and  C_14
REMARK    7  A    between atoms: C_14  and  N_15
REMARK    8  A    between atoms: N_15  and  C_16
REMARK    9  A    between atoms: C_19  and  S_20
REMARK   10  A    between atoms: S_20  and  N_21
REMARK                            x       y       z     vdW  Elec       q    Type
REMARK                         _______ _______ _______ _____ _____    ______ ____
ROOT
ATOM      1  C   UNL     1      47.424   3.639  17.382  0.00  0.00    +0.000 C 
ATOM      2  F   UNL     1      46.772   2.508  17.769  0.00  0.00    +0.000 F 
ATOM      3  F   UNL     1      46.622   4.679  17.764  0.00  0.00    +0.000 F 
ENDROOT
BRANCH   1   6
ATOM      4  C   UNL     1      51.217   3.285  17.861  0.00  0.00    +0.000 A 
ATOM      5  C   UNL     1      49.911   3.039  17.418  0.00  0.00    +0.000 A 
ATOM      6  C   UNL     1      48.825   3.744  17.974  0.00  0.00    +0.000 A 
ATOM      7  C   UNL     1      49.064   4.659  19.011  0.00  0.00    +0.000 A 
ATOM      8  C   UNL     1      50.366   4.933  19.420  0.00  0.00    +0.000 A 
ATOM      9  C   UNL     1      51.432   4.269  18.826  0.00  0.00    +0.000 A 
ATOM     10  F   UNL     1      52.673   4.612  19.197  0.00  0.00    +0.000 F 
BRANCH   4  11
ATOM     11  O   UNL     1      52.221   2.546  17.280  0.00  0.00    +0.000 OA
BRANCH  11  17
ATOM     12  C   UNL     1      55.153   3.208  17.435  0.00  0.00    +0.000 C 
ATOM     13  C   UNL     1      54.614   1.962  18.124  0.00  0.00    +0.000 C 
ATOM     14  C   UNL     1      55.321   1.709  19.462  0.00  0.00    +0.000 C 
ATOM     15  N   UNL     1      54.712   0.787  17.219  0.00  0.00    +0.000 NA
ATOM     16  C   UNL     1      53.386   0.322  17.662  0.00  0.00    +0.000 C 
ATOM     17  C   UNL     1      53.058   1.748  18.167  0.00  0.00    +0.000 C 
ATOM     18  H   UNL     1      55.481   0.146  17.406  0.00  0.00    +0.000 HD
ENDBRANCH  11  17
ENDBRANCH   4  11
ENDBRANCH   1   6
BRANCH   1  19
ATOM     19  C   UNL     1      47.562   3.664  15.835  0.00  0.00    +0.000 C 
BRANCH  19  20
ATOM     20  N   UNL     1      47.128   4.919  15.187  0.00  0.00    +0.000 N 
ATOM     21  H   UNL     1      47.873   5.615  15.149  0.00  0.00    +0.000 HD
BRANCH  20  22
ATOM     22  C   UNL     1      46.434   4.803  13.970  0.00  0.00    +0.000 A 
ATOM     23  C   UNL     1      46.131   5.907  13.159  0.00  0.00    +0.000 A 
ATOM     24  C   UNL     1      45.546   5.752  11.899  0.00  0.00    +0.000 A 
ATOM     25  C   UNL     1      45.285   4.471  11.419  0.00  0.00    +0.000 A 
ATOM     26  C   UNL     1      45.567   3.353  12.202  0.00  0.00    +0.000 A 
ATOM     27  C   UNL     1      46.157   3.524  13.461  0.00  0.00    +0.000 A 
BRANCH  25  28
ATOM     28  S   UNL     1      44.633   4.273   9.789  0.00  0.00    +0.000 S 
ATOM     29  O   UNL     1      44.914   2.938   9.322  0.00  0.00    +0.000 OA
ATOM     30  O   UNL     1      43.319   4.863   9.725  0.00  0.00    +0.000 OA
BRANCH  28  31
ATOM     31  N   UNL     1      45.643   5.297   8.918  0.00  0.00    +0.000 NA
ATOM     32  H   UNL     1      45.093   5.964   8.377  0.00  0.00    +0.000 HD
ATOM     33  H   UNL     1      46.338   5.720   9.532  0.00  0.00    +0.000 HD
ENDBRANCH  28  31
ENDBRANCH  25  28
ENDBRANCH  20  22
ENDBRANCH  19  20
ENDBRANCH   1  19
TORSDOF 8
ENDMDL
