MODEL 1
REMARK VINA RESULT:    -7.913      0.000      0.000
REMARK INTER + INTRA:         -10.678
REMARK INTER:                  -9.995
REMARK INTRA:                  -0.683
REMARK UNBOUND:                -0.683
REMARK  Name = 
REMARK  6 active torsions:
REMARK  status: ('A' for Active; 'I' for Inactive)
REMARK    1  A    between atoms: C_1  and  O_2
REMARK    2  A    between atoms: O_2  and  C_3
REMARK    3  A    between atoms: N_10  and  C_11
REMARK    4  A    between atoms: C_11  and  C_12
REMARK    5  A    between atoms: C_15  and  C_16
REMARK    6  A    between atoms: C_16  and  N_17
REMARK                            x       y       z     vdW  Elec       q    Type
REMARK                         _______ _______ _______ _____ _____    ______ ____
ROOT
ATOM      1  C   UNL     1      47.162   4.724  14.343  0.00  0.00    +0.000 A 
ATOM      2  C   UNL     1      46.788   3.556  13.680  0.00  0.00    +0.000 A 
ATOM      3  C   UNL     1      45.916   3.595  12.583  0.00  0.00    +0.000 A 
ATOM      4  C   UNL     1      45.428   4.841  12.160  0.00  0.00    +0.000 A 
ATOM      5  C   UNL     1      45.804   6.026  12.800  0.00  0.00    +0.000 A 
ATOM      6  C   UNL     1      45.172   7.099  12.117  0.00  0.00    +0.000 A 
ATOM      7  C   UNL     1      44.416   6.561  11.104  0.00  0.00    +0.000 A 
ATOM      8  N   UNL     1      44.550   5.193  11.147  0.00  0.00    +0.000 N 
ATOM      9  C   UNL     1      46.665   5.959  13.914  0.00  0.00    +0.000 A 
ENDROOT
BRANCH   1  11
ATOM     10  C   UNL     1      47.550   4.008  16.564  0.00  0.00    +0.000 C 
ATOM     11  O   UNL     1      47.970   4.781  15.447  0.00  0.00    +0.000 OA
ENDBRANCH   1  11
BRANCH   8  12
ATOM     12  C   UNL     1      43.779   4.271  10.310  0.00  0.00    +0.000 C 
BRANCH  12  13
ATOM     13  C   UNL     1      44.654   3.569   9.304  0.00  0.00    +0.000 A 
ATOM     14  C   UNL     1      44.800   2.177   9.336  0.00  0.00    +0.000 A 
ATOM     15  C   UNL     1      45.720   1.540   8.499  0.00  0.00    +0.000 A 
ATOM     16  C   UNL     1      46.509   2.278   7.605  0.00  0.00    +0.000 A 
ATOM     17  C   UNL     1      46.311   3.663   7.527  0.00  0.00    +0.000 A 
ATOM     18  C   UNL     1      45.389   4.301   8.361  0.00  0.00    +0.000 A 
BRANCH  16  19
ATOM     19  C   UNL     1      47.642   1.593   6.879  0.00  0.00    +0.000 C 
BRANCH  19  20
ATOM     20  N   UNL     1      48.570   2.516   6.232  0.00  0.00    +0.000 NA
ATOM     21  H   UNL     1      49.397   2.609   6.819  0.00  0.00    +0.000 HD
ATOM     22  H   UNL     1      48.139   3.438   6.191  0.00  0.00    +0.000 HD
ENDBRANCH  19  20
ENDBRANCH  16  19
ENDBRANCH  12  13
ENDBRANCH   8  12
TORSDOF 5
ENDMDL
MODEL 2
REMARK VINA RESULT:    -7.765      1.305      1.873
REMARK INTER + INTRA:         -10.491
REMARK INTER:                  -9.797
REMARK INTRA:                  -0.695
REMARK UNBOUND:                -0.683
REMARK  Name = 
REMARK  6 active torsions:
REMARK  status: ('A' for Active; 'I' for Inactive)
REMARK    1  A    between atoms: C_1  and  O_2
REMARK    2  A    between atoms: O_2  and  C_3
REMARK    3  A    between atoms: N_10  and  C_11
REMARK    4  A    between atoms: C_11  and  C_12
REMARK    5  A    between atoms: C_15  and  C_16
REMARK    6  A    between atoms: C_16  and  N_17
REMARK                            x       y       z     vdW  Elec       q    Type
REMARK                         _______ _______ _______ _____ _____    ______ ____
ROOT
ATOM      1  C   UNL     1      47.747   6.392  13.101  0.00  0.00    +0.000 A 
ATOM      2  C   UNL     1      47.483   6.766  11.784  0.00  0.00    +0.000 A 
ATOM      3  C   UNL     1      46.390   6.234  11.086  0.00  0.00    +0.000 A 
ATOM      4  C   UNL     1      45.559   5.315  11.745  0.00  0.00    +0.000 A 
ATOM      5  C   UNL     1      45.795   4.939  13.071  0.00  0.00    +0.000 A 
ATOM      6  C   UNL     1      44.768   4.034  13.448  0.00  0.00    +0.000 A 
ATOM      7  C   UNL     1      43.949   3.856  12.359  0.00  0.00    +0.000 A 
ATOM      8  N   UNL     1      44.443   4.610  11.321  0.00  0.00    +0.000 N 
ATOM      9  C   UNL     1      46.913   5.472  13.744  0.00  0.00    +0.000 A 
ENDROOT
BRANCH   1  11
ATOM     10  C   UNL     1      48.679   6.688  15.255  0.00  0.00    +0.000 C 
ATOM     11  O   UNL     1      48.812   6.823  13.845  0.00  0.00    +0.000 OA
ENDBRANCH   1  11
BRANCH   8  12
ATOM     12  C   UNL     1      43.914   4.566   9.956  0.00  0.00    +0.000 C 
BRANCH  12  13
ATOM     13  C   UNL     1      44.754   3.693   9.061  0.00  0.00    +0.000 A 
ATOM     14  C   UNL     1      44.782   2.305   9.242  0.00  0.00    +0.000 A 
ATOM     15  C   UNL     1      45.668   1.511   8.509  0.00  0.00    +0.000 A 
ATOM     16  C   UNL     1      46.541   2.084   7.573  0.00  0.00    +0.000 A 
ATOM     17  C   UNL     1      46.462   3.464   7.346  0.00  0.00    +0.000 A 
ATOM     18  C   UNL     1      45.573   4.259   8.075  0.00  0.00    +0.000 A 
BRANCH  16  19
ATOM     19  C   UNL     1      47.632   1.238   6.964  0.00  0.00    +0.000 C 
BRANCH  19  20
ATOM     20  N   UNL     1      48.389   1.917   5.917  0.00  0.00    +0.000 NA
ATOM     21  H   UNL     1      48.710   1.222   5.246  0.00  0.00    +0.000 HD
ATOM     22  H   UNL     1      49.225   2.326   6.331  0.00  0.00    +0.000 HD
ENDBRANCH  19  20
ENDBRANCH  16  19
ENDBRANCH  12  13
ENDBRANCH   8  12
TORSDOF 5
ENDMDL
MODEL 3
REMARK VINA RESULT:    -7.247      1.788      3.053
REMARK INTER + INTRA:          -9.837
REMARK INTER:                  -9.173
REMARK INTRA:                  -0.664
REMARK UNBOUND:                -0.683
REMARK  Name = 
REMARK  6 active torsions:
REMARK  status: ('A' for Active; 'I' for Inactive)
REMARK    1  A    between atoms: C_1  and  O_2
REMARK    2  A    between atoms: O_2  and  C_3
REMARK    3  A    between atoms: N_10  and  C_11
REMARK    4  A    between atoms: C_11  and  C_12
REMARK    5  A    between atoms: C_15  and  C_16
REMARK    6  A    between atoms: C_16  and  N_17
REMARK                            x       y       z     vdW  Elec       q    Type
REMARK                         _______ _______ _______ _____ _____    ______ ____
ROOT
ATOM      1  C   UNL     1      45.711   8.719  12.352  0.00  0.00    +0.000 A 
ATOM      2  C   UNL     1      44.711   8.520  11.401  0.00  0.00    +0.000 A 
ATOM      3  C   UNL     1      44.290   7.229  11.053  0.00  0.00    +0.000 A 
ATOM      4  C   UNL     1      44.897   6.134  11.688  0.00  0.00    +0.000 A 
ATOM      5  C   UNL     1      45.890   6.312  12.657  0.00  0.00    +0.000 A 
ATOM      6  C   UNL     1      46.267   5.024  13.123  0.00  0.00    +0.000 A 
ATOM      7  C   UNL     1      45.530   4.096  12.427  0.00  0.00    +0.000 A 
ATOM      8  N   UNL     1      44.721   4.767  11.541  0.00  0.00    +0.000 N 
ATOM      9  C   UNL     1      46.310   7.620  12.974  0.00  0.00    +0.000 A 
ENDROOT
BRANCH   1  11
ATOM     10  C   UNL     1      47.624  10.089  12.596  0.00  0.00    +0.000 C 
ATOM     11  O   UNL     1      46.216   9.936  12.723  0.00  0.00    +0.000 OA
ENDBRANCH   1  11
BRANCH   8  12
ATOM     12  C   UNL     1      43.893   4.104  10.530  0.00  0.00    +0.000 C 
BRANCH  12  13
ATOM     13  C   UNL     1      44.731   3.482   9.444  0.00  0.00    +0.000 A 
ATOM     14  C   UNL     1      44.882   2.092   9.370  0.00  0.00    +0.000 A 
ATOM     15  C   UNL     1      45.773   1.522   8.455  0.00  0.00    +0.000 A 
ATOM     16  C   UNL     1      46.526   2.327   7.589  0.00  0.00    +0.000 A 
ATOM     17  C   UNL     1      46.321   3.713   7.619  0.00  0.00    +0.000 A 
ATOM     18  C   UNL     1      45.428   4.284   8.530  0.00  0.00    +0.000 A 
BRANCH  16  19
ATOM     19  C   UNL     1      47.633   1.703   6.774  0.00  0.00    +0.000 C 
BRANCH  19  20
ATOM     20  N   UNL     1      48.643   2.656   6.326  0.00  0.00    +0.000 NA
ATOM     21  H   UNL     1      48.588   2.736   5.312  0.00  0.00    +0.000 HD
ATOM     22  H   UNL     1      49.565   2.277   6.535  0.00  0.00    +0.000 HD
ENDBRANCH  19  20
ENDBRANCH  16  19
ENDBRANCH  12  13
ENDBRANCH   8  12
TORSDOF 5
ENDMDL
MODEL 4
REMARK VINA RESULT:    -6.738      3.041      6.483
REMARK INTER + INTRA:          -9.194
REMARK INTER:                  -8.717
REMARK INTRA:                  -0.477
REMARK UNBOUND:                -0.683
REMARK  Name = 
REMARK  6 active torsions:
REMARK  status: ('A' for Active; 'I' for Inactive)
REMARK    1  A    between atoms: C_1  and  O_2
REMARK    2  A    between atoms: O_2  and  C_3
REMARK    3  A    between atoms: N_10  and  C_11
REMARK    4  A    between atoms: C_11  and  C_12
REMARK    5  A    between atoms: C_15  and  C_16
REMARK    6  A    between atoms: C_16  and  N_17
REMARK                            x       y       z     vdW  Elec       q    Type
REMARK                         _______ _______ _______ _____ _____    ______ ____
ROOT
ATOM      1  C   UNL     1      45.959   2.626   8.039  0.00  0.00    +0.000 A 
ATOM      2  C   UNL     1      46.086   4.014   8.014  0.00  0.00    +0.000 A 
ATOM      3  C   UNL     1      45.422   4.817   8.952  0.00  0.00    +0.000 A 
ATOM      4  C   UNL     1      44.627   4.192   9.925  0.00  0.00    +0.000 A 
ATOM      5  C   UNL     1      44.500   2.800   9.978  0.00  0.00    +0.000 A 
ATOM      6  C   UNL     1      43.664   2.489  11.084  0.00  0.00    +0.000 A 
ATOM      7  C   UNL     1      43.282   3.675  11.664  0.00  0.00    +0.000 A 
ATOM      8  N   UNL     1      43.843   4.705  10.946  0.00  0.00    +0.000 N 
ATOM      9  C   UNL     1      45.160   2.016   9.010  0.00  0.00    +0.000 A 
ENDROOT
BRANCH   1  11
ATOM     10  C   UNL     1      46.806   0.456   7.624  0.00  0.00    +0.000 C 
ATOM     11  O   UNL     1      46.531   1.765   7.141  0.00  0.00    +0.000 OA
ENDBRANCH   1  11
BRANCH   8  12
ATOM     12  C   UNL     1      43.545   6.120  11.182  0.00  0.00    +0.000 C 
BRANCH  12  13
ATOM     13  C   UNL     1      44.736   6.854  11.741  0.00  0.00    +0.000 A 
ATOM     14  C   UNL     1      45.724   6.167  12.456  0.00  0.00    +0.000 A 
ATOM     15  C   UNL     1      46.752   6.865  13.097  0.00  0.00    +0.000 A 
ATOM     16  C   UNL     1      46.820   8.264  13.032  0.00  0.00    +0.000 A 
ATOM     17  C   UNL     1      45.868   8.942  12.259  0.00  0.00    +0.000 A 
ATOM     18  C   UNL     1      44.843   8.245  11.614  0.00  0.00    +0.000 A 
BRANCH  16  19
ATOM     19  C   UNL     1      47.802   8.999  13.911  0.00  0.00    +0.000 C 
BRANCH  19  20
ATOM     20  N   UNL     1      47.443   8.999  15.325  0.00  0.00    +0.000 NA
ATOM     21  H   UNL     1      48.021   9.685  15.807  0.00  0.00    +0.000 HD
ATOM     22  H   UNL     1      47.679   8.092  15.723  0.00  0.00    +0.000 HD
ENDBRANCH  19  20
ENDBRANCH  16  19
ENDBRANCH  12  13
ENDBRANCH   8  12
TORSDOF 5
ENDMDL
MODEL 5
REMARK VINA RESULT:    -6.472      1.338      1.785
REMARK INTER + INTRA:          -8.858
REMARK INTER:                  -8.340
REMARK INTRA:                  -0.518
REMARK UNBOUND:                -0.683
REMARK  Name = 
REMARK  6 active torsions:
REMARK  status: ('A' for Active; 'I' for Inactive)
REMARK    1  A    between atoms: C_1  and  O_2
REMARK    2  A    between atoms: O_2  and  C_3
REMARK    3  A    between atoms: N_10  and  C_11
REMARK    4  A    between atoms: C_11  and  C_12
REMARK    5  A    between atoms: C_15  and  C_16
REMARK    6  A    between atoms: C_16  and  N_17
REMARK                            x       y       z     vdW  Elec       q    Type
REMARK                         _______ _______ _______ _____ _____    ______ ____
ROOT
ATOM      1  C   UNL     1      47.602   7.011  13.557  0.00  0.00    +0.000 A 
ATOM      2  C   UNL     1      47.604   5.631  13.361  0.00  0.00    +0.000 A 
ATOM      3  C   UNL     1      46.621   5.010  12.578  0.00  0.00    +0.000 A 
ATOM      4  C   UNL     1      45.631   5.811  11.988  0.00  0.00    +0.000 A 
ATOM      5  C   UNL     1      45.620   7.199  12.158  0.00  0.00    +0.000 A 
ATOM      6  C   UNL     1      44.523   7.712  11.415  0.00  0.00    +0.000 A 
ATOM      7  C   UNL     1      43.880   6.647  10.833  0.00  0.00    +0.000 A 
ATOM      8  N   UNL     1      44.534   5.495  11.201  0.00  0.00    +0.000 N 
ATOM      9  C   UNL     1      46.607   7.797  12.968  0.00  0.00    +0.000 A 
ENDROOT
BRANCH   1  11
ATOM     10  C   UNL     1      48.178   9.064  14.581  0.00  0.00    +0.000 C 
ATOM     11  O   UNL     1      48.491   7.699  14.338  0.00  0.00    +0.000 OA
ENDBRANCH   1  11
BRANCH   8  12
ATOM     12  C   UNL     1      44.054   4.147  10.887  0.00  0.00    +0.000 C 
BRANCH  12  13
ATOM     13  C   UNL     1      44.759   3.570   9.688  0.00  0.00    +0.000 A 
ATOM     14  C   UNL     1      44.872   2.184   9.528  0.00  0.00    +0.000 A 
ATOM     15  C   UNL     1      45.648   1.649   8.495  0.00  0.00    +0.000 A 
ATOM     16  C   UNL     1      46.322   2.487   7.595  0.00  0.00    +0.000 A 
ATOM     17  C   UNL     1      46.150   3.872   7.717  0.00  0.00    +0.000 A 
ATOM     18  C   UNL     1      45.371   4.408   8.746  0.00  0.00    +0.000 A 
BRANCH  16  19
ATOM     19  C   UNL     1      47.323   1.890   6.635  0.00  0.00    +0.000 C 
BRANCH  19  20
ATOM     20  N   UNL     1      48.562   2.652   6.528  0.00  0.00    +0.000 NA
ATOM     21  H   UNL     1      48.908   2.844   7.466  0.00  0.00    +0.000 HD
ATOM     22  H   UNL     1      48.355   3.556   6.106  0.00  0.00    +0.000 HD
ENDBRANCH  19  20
ENDBRANCH  16  19
ENDBRANCH  12  13
ENDBRANCH   8  12
TORSDOF 5
ENDMDL
MODEL 6
REMARK VINA RESULT:    -6.150      2.987      6.140
REMARK INTER + INTRA:          -8.451
REMARK INTER:                  -7.859
REMARK INTRA:                  -0.592
REMARK UNBOUND:                -0.683
REMARK  Name = 
REMARK  6 active torsions:
REMARK  status: ('A' for Active; 'I' for Inactive)
REMARK    1  A    between atoms: C_1  and  O_2
REMARK    2  A    between atoms: O_2  and  C_3
REMARK    3  A    between atoms: N_10  and  C_11
REMARK    4  A    between atoms: C_11  and  C_12
REMARK    5  A    between atoms: C_15  and  C_16
REMARK    6  A    between atoms: C_16  and  N_17
REMARK                            x       y       z     vdW  Elec       q    Type
REMARK                         _______ _______ _______ _____ _____    ______ ____
ROOT
ATOM      1  C   UNL     1      45.394   3.228   8.364  0.00  0.00    +0.000 A 
ATOM      2  C   UNL     1      45.773   4.531   8.683  0.00  0.00    +0.000 A 
ATOM      3  C   UNL     1      45.394   5.117   9.899  0.00  0.00    +0.000 A 
ATOM      4  C   UNL     1      44.625   4.359  10.796  0.00  0.00    +0.000 A 
ATOM      5  C   UNL     1      44.249   3.045  10.503  0.00  0.00    +0.000 A 
ATOM      6  C   UNL     1      43.516   2.552  11.616  0.00  0.00    +0.000 A 
ATOM      7  C   UNL     1      43.437   3.562  12.543  0.00  0.00    +0.000 A 
ATOM      8  N   UNL     1      44.085   4.664  12.036  0.00  0.00    +0.000 N 
ATOM      9  C   UNL     1      44.624   2.485   9.264  0.00  0.00    +0.000 A 
ENDROOT
BRANCH   1  11
ATOM     10  C   UNL     1      46.939   1.935   7.124  0.00  0.00    +0.000 C 
ATOM     11  O   UNL     1      45.678   2.589   7.187  0.00  0.00    +0.000 OA
ENDBRANCH   1  11
BRANCH   8  12
ATOM     12  C   UNL     1      44.088   5.978  12.683  0.00  0.00    +0.000 C 
BRANCH  12  13
ATOM     13  C   UNL     1      45.489   6.478  12.921  0.00  0.00    +0.000 A 
ATOM     14  C   UNL     1      45.875   7.751  12.485  0.00  0.00    +0.000 A 
ATOM     15  C   UNL     1      47.209   8.159  12.576  0.00  0.00    +0.000 A 
ATOM     16  C   UNL     1      48.185   7.308  13.112  0.00  0.00    +0.000 A 
ATOM     17  C   UNL     1      47.783   6.062  13.611  0.00  0.00    +0.000 A 
ATOM     18  C   UNL     1      46.449   5.654  13.524  0.00  0.00    +0.000 A 
BRANCH  16  19
ATOM     19  C   UNL     1      49.642   7.686  12.994  0.00  0.00    +0.000 C 
BRANCH  19  20
ATOM     20  N   UNL     1      50.037   8.098  11.651  0.00  0.00    +0.000 NA
ATOM     21  H   UNL     1      49.959   7.295  11.029  0.00  0.00    +0.000 HD
ATOM     22  H   UNL     1      51.021   8.358  11.664  0.00  0.00    +0.000 HD
ENDBRANCH  19  20
ENDBRANCH  16  19
ENDBRANCH  12  13
ENDBRANCH   8  12
TORSDOF 5
ENDMDL
MODEL 7
REMARK VINA RESULT:    -5.372      4.007      6.509
REMARK INTER + INTRA:          -7.468
REMARK INTER:                  -6.851
REMARK INTRA:                  -0.617
REMARK UNBOUND:                -0.683
REMARK  Name = 
REMARK  6 active torsions:
REMARK  status: ('A' for Active; 'I' for Inactive)
REMARK    1  A    between atoms: C_1  and  O_2
REMARK    2  A    between atoms: O_2  and  C_3
REMARK    3  A    between atoms: N_10  and  C_11
REMARK    4  A    between atoms: C_11  and  C_12
REMARK    5  A    between atoms: C_15  and  C_16
REMARK    6  A    between atoms: C_16  and  N_17
REMARK                            x       y       z     vdW  Elec       q    Type
REMARK                         _______ _______ _______ _____ _____    ______ ____
ROOT
ATOM      1  C   UNL     1      44.626   3.666  10.876  0.00  0.00    +0.000 A 
ATOM      2  C   UNL     1      44.750   4.969  10.396  0.00  0.00    +0.000 A 
ATOM      3  C   UNL     1      45.476   5.935  11.106  0.00  0.00    +0.000 A 
ATOM      4  C   UNL     1      46.084   5.561  12.315  0.00  0.00    +0.000 A 
ATOM      5  C   UNL     1      45.986   4.255  12.806  0.00  0.00    +0.000 A 
ATOM      6  C   UNL     1      46.730   4.197  14.015  0.00  0.00    +0.000 A 
ATOM      7  C   UNL     1      47.240   5.450  14.251  0.00  0.00    +0.000 A 
ATOM      8  N   UNL     1      46.827   6.282  13.237  0.00  0.00    +0.000 N 
ATOM      9  C   UNL     1      45.232   3.308  12.084  0.00  0.00    +0.000 A 
ENDROOT
BRANCH   1  11
ATOM     10  C   UNL     1      44.526   2.030   9.170  0.00  0.00    +0.000 C 
ATOM     11  O   UNL     1      43.904   2.669  10.277  0.00  0.00    +0.000 OA
ENDBRANCH   1  11
BRANCH   8  12
ATOM     12  C   UNL     1      47.058   7.728  13.222  0.00  0.00    +0.000 C 
BRANCH  12  13
ATOM     13  C   UNL     1      48.483   8.060  12.861  0.00  0.00    +0.000 A 
ATOM     14  C   UNL     1      48.993   7.732  11.600  0.00  0.00    +0.000 A 
ATOM     15  C   UNL     1      50.350   7.907  11.315  0.00  0.00    +0.000 A 
ATOM     16  C   UNL     1      51.226   8.423  12.280  0.00  0.00    +0.000 A 
ATOM     17  C   UNL     1      50.699   8.815  13.518  0.00  0.00    +0.000 A 
ATOM     18  C   UNL     1      49.341   8.643  13.803  0.00  0.00    +0.000 A 
BRANCH  16  19
ATOM     19  C   UNL     1      52.713   8.393  12.022  0.00  0.00    +0.000 C 
BRANCH  19  20
ATOM     20  N   UNL     1      53.482   7.746  13.080  0.00  0.00    +0.000 NA
ATOM     21  H   UNL     1      52.836   7.404  13.789  0.00  0.00    +0.000 HD
ATOM     22  H   UNL     1      54.065   8.447  13.536  0.00  0.00    +0.000 HD
ENDBRANCH  19  20
ENDBRANCH  16  19
ENDBRANCH  12  13
ENDBRANCH   8  12
TORSDOF 5
ENDMDL
MODEL 8
REMARK VINA RESULT:    -5.198      3.324      4.504
REMARK INTER + INTRA:          -7.249
REMARK INTER:                  -6.804
REMARK INTRA:                  -0.445
REMARK UNBOUND:                -0.683
REMARK  Name = 
REMARK  6 active torsions:
REMARK  status: ('A' for Active; 'I' for Inactive)
REMARK    1  A    between atoms: C_1  and  O_2
REMARK    2  A    between atoms: O_2  and  C_3
REMARK    3  A    between atoms: N_10  and  C_11
REMARK    4  A    between atoms: C_11  and  C_12
REMARK    5  A    between atoms: C_15  and  C_16
REMARK    6  A    between atoms: C_16  and  N_17
REMARK                            x       y       z     vdW  Elec       q    Type
REMARK                         _______ _______ _______ _____ _____    ______ ____
ROOT
ATOM      1  C   UNL     1      49.636   9.277  11.872  0.00  0.00    +0.000 A 
ATOM      2  C   UNL     1      49.542   7.929  12.214  0.00  0.00    +0.000 A 
ATOM      3  C   UNL     1      48.298   7.326  12.445  0.00  0.00    +0.000 A 
ATOM      4  C   UNL     1      47.141   8.110  12.318  0.00  0.00    +0.000 A 
ATOM      5  C   UNL     1      47.211   9.460  11.959  0.00  0.00    +0.000 A 
ATOM      6  C   UNL     1      45.881   9.952  11.886  0.00  0.00    +0.000 A 
ATOM      7  C   UNL     1      45.035   8.921  12.218  0.00  0.00    +0.000 A 
ATOM      8  N   UNL     1      45.799   7.814  12.505  0.00  0.00    +0.000 N 
ATOM      9  C   UNL     1      48.475  10.048  11.754  0.00  0.00    +0.000 A 
ENDROOT
BRANCH   1  11
ATOM     10  C   UNL     1      51.996   9.276  12.038  0.00  0.00    +0.000 C 
ATOM     11  O   UNL     1      50.804   9.962  11.672  0.00  0.00    +0.000 OA
ENDBRANCH   1  11
BRANCH   8  12
ATOM     12  C   UNL     1      45.255   6.562  13.035  0.00  0.00    +0.000 C 
BRANCH  12  13
ATOM     13  C   UNL     1      45.249   5.473  11.996  0.00  0.00    +0.000 A 
ATOM     14  C   UNL     1      45.372   5.785  10.636  0.00  0.00    +0.000 A 
ATOM     15  C   UNL     1      45.222   4.793   9.663  0.00  0.00    +0.000 A 
ATOM     16  C   UNL     1      44.955   3.465  10.026  0.00  0.00    +0.000 A 
ATOM     17  C   UNL     1      44.902   3.144  11.389  0.00  0.00    +0.000 A 
ATOM     18  C   UNL     1      45.055   4.134  12.363  0.00  0.00    +0.000 A 
BRANCH  16  19
ATOM     19  C   UNL     1      44.580   2.467   8.957  0.00  0.00    +0.000 C 
BRANCH  19  20
ATOM     20  N   UNL     1      45.517   1.355   8.835  0.00  0.00    +0.000 NA
ATOM     21  H   UNL     1      45.076   0.516   9.206  0.00  0.00    +0.000 HD
ATOM     22  H   UNL     1      46.325   1.542   9.426  0.00  0.00    +0.000 HD
ENDBRANCH  19  20
ENDBRANCH  16  19
ENDBRANCH  12  13
ENDBRANCH   8  12
TORSDOF 5
ENDMDL
MODEL 9
REMARK VINA RESULT:    -5.094      3.791      7.938
REMARK INTER + INTRA:          -7.117
REMARK INTER:                  -6.569
REMARK INTRA:                  -0.548
REMARK UNBOUND:                -0.683
REMARK  Name = 
REMARK  6 active torsions:
REMARK  status: ('A' for Active; 'I' for Inactive)
REMARK    1  A    between atoms: C_1  and  O_2
REMARK    2  A    between atoms: O_2  and  C_3
REMARK    3  A    between atoms: N_10  and  C_11
REMARK    4  A    between atoms: C_11  and  C_12
REMARK    5  A    between atoms: C_15  and  C_16
REMARK    6  A    between atoms: C_16  and  N_17
REMARK                            x       y       z     vdW  Elec       q    Type
REMARK                         _______ _______ _______ _____ _____    ______ ____
ROOT
ATOM      1  C   UNL     1      44.812   4.801  12.053  0.00  0.00    +0.000 A 
ATOM      2  C   UNL     1      45.722   4.062  12.807  0.00  0.00    +0.000 A 
ATOM      3  C   UNL     1      46.743   4.694  13.532  0.00  0.00    +0.000 A 
ATOM      4  C   UNL     1      46.826   6.095  13.487  0.00  0.00    +0.000 A 
ATOM      5  C   UNL     1      45.912   6.855  12.752  0.00  0.00    +0.000 A 
ATOM      6  C   UNL     1      46.247   8.223  12.939  0.00  0.00    +0.000 A 
ATOM      7  C   UNL     1      47.353   8.274  13.752  0.00  0.00    +0.000 A 
ATOM      8  N   UNL     1      47.719   6.985  14.062  0.00  0.00    +0.000 N 
ATOM      9  C   UNL     1      44.909   6.195  12.014  0.00  0.00    +0.000 A 
ENDROOT
BRANCH   1  11
ATOM     10  C   UNL     1      43.421   2.942  11.599  0.00  0.00    +0.000 C 
ATOM     11  O   UNL     1      43.814   4.271  11.280  0.00  0.00    +0.000 OA
ENDBRANCH   1  11
BRANCH   8  12
ATOM     12  C   UNL     1      48.938   6.637  14.795  0.00  0.00    +0.000 C 
BRANCH  12  13
ATOM     13  C   UNL     1      48.646   6.305  16.235  0.00  0.00    +0.000 A 
ATOM     14  C   UNL     1      48.715   7.296  17.222  0.00  0.00    +0.000 A 
ATOM     15  C   UNL     1      48.587   6.962  18.574  0.00  0.00    +0.000 A 
ATOM     16  C   UNL     1      48.379   5.633  18.969  0.00  0.00    +0.000 A 
ATOM     17  C   UNL     1      48.242   4.655  17.975  0.00  0.00    +0.000 A 
ATOM     18  C   UNL     1      48.366   4.988  16.623  0.00  0.00    +0.000 A 
BRANCH  16  19
ATOM     19  C   UNL     1      48.467   5.274  20.433  0.00  0.00    +0.000 C 
BRANCH  19  20
ATOM     20  N   UNL     1      48.437   3.838  20.690  0.00  0.00    +0.000 NA
ATOM     21  H   UNL     1      47.575   3.614  21.185  0.00  0.00    +0.000 HD
ATOM     22  H   UNL     1      49.201   3.602  21.320  0.00  0.00    +0.000 HD
ENDBRANCH  19  20
ENDBRANCH  16  19
ENDBRANCH  12  13
ENDBRANCH   8  12
TORSDOF 5
ENDMDL
