MODEL 1
REMARK VINA RESULT:    -7.408      0.000      0.000
REMARK INTER + INTRA:          -9.877
REMARK INTER:                  -9.140
REMARK INTRA:                  -0.737
REMARK UNBOUND:                -0.737
REMARK  Name = 
REMARK  8 active torsions:
REMARK  status: ('A' for Active; 'I' for Inactive)
REMARK    1  A    between atoms: C_1  and  C_2
REMARK    2  A    between atoms: C_6  and  C_7
REMARK    3  A    between atoms: C_11  and  C_12
REMARK    4  A    between atoms: C_12  and  C_13
REMARK    5  A    between atoms: C_12  and  C_14
REMARK    6  A    between atoms: C_12  and  C_15
REMARK    7  A    between atoms: C_15  and  N_16
REMARK    8  A    between atoms: C_20  and  C_21
REMARK                            x       y       z     vdW  Elec       q    Type
REMARK                         _______ _______ _______ _____ _____    ______ ____
ROOT
ATOM      1  C   UNL     1      48.308   8.480  13.079  0.00  0.00    +0.000 C 
ATOM      2  C   UNL     1      48.564  10.004  13.187  0.00  0.00    +0.000 C 
ATOM      3  C   UNL     1      48.847   7.973  11.722  0.00  0.00    +0.000 C 
ENDROOT
BRANCH   1  14
ATOM      4  C   UNL     1      47.085   4.191  15.092  0.00  0.00    +0.000 C 
ATOM      5  C   UNL     1      47.406   4.301  16.582  0.00  0.00    +0.000 C 
ATOM      6  C   UNL     1      48.033   2.959  17.031  0.00  0.00    +0.000 C 
ATOM      7  O   UNL     1      48.369   2.943  18.423  0.00  0.00    +0.000 OA
ATOM      8  C   UNL     1      49.336   3.969  18.693  0.00  0.00    +0.000 C 
ATOM      9  C   UNL     1      48.768   5.369  18.401  0.00  0.00    +0.000 C 
ATOM     10  C   UNL     1      47.633   5.721  19.368  0.00  0.00    +0.000 C 
ATOM     11  N   UNL     1      48.242   5.458  17.015  0.00  0.00    +0.000 N 
ATOM     12  C   UNL     1      48.996   6.228  16.141  0.00  0.00    +0.000 A 
ATOM     13  C   UNL     1      48.359   6.951  15.129  0.00  0.00    +0.000 A 
ATOM     14  C   UNL     1      49.064   7.769  14.228  0.00  0.00    +0.000 A 
ATOM     15  C   UNL     1      50.438   7.876  14.444  0.00  0.00    +0.000 A 
ATOM     16  C   UNL     1      51.007   7.174  15.498  0.00  0.00    +0.000 A 
ATOM     17  N   UNL     1      50.323   6.357  16.328  0.00  0.00    +0.000 NA
ENDBRANCH   1  14
BRANCH   1  18
ATOM     18  C   UNL     1      46.774   8.218  13.163  0.00  0.00    +0.000 C 
BRANCH  18  19
ATOM     19  N   UNL     1      46.137   7.917  11.884  0.00  0.00    +0.000 N 
ATOM     20  C   UNL     1      45.595   6.648  11.720  0.00  0.00    +0.000 A 
ATOM     21  C   UNL     1      44.950   5.929  12.736  0.00  0.00    +0.000 A 
ATOM     22  N   UNL     1      44.395   4.702  12.574  0.00  0.00    +0.000 NA
ATOM     23  C   UNL     1      44.478   4.215  11.307  0.00  0.00    +0.000 A 
ATOM     24  C   UNL     1      45.096   4.915  10.284  0.00  0.00    +0.000 A 
ATOM     25  N   UNL     1      45.671   6.135  10.475  0.00  0.00    +0.000 NA
ATOM     26  H   UNL     1      46.681   8.110  11.045  0.00  0.00    +0.000 HD
BRANCH  23  27
ATOM     27  C   UNL     1      43.872   2.879  11.049  0.00  0.00    +0.000 C 
ATOM     28  N   UNL     1      44.451   2.163  10.031  0.00  0.00    +0.000 N 
ATOM     29  O   UNL     1      42.931   2.447  11.699  0.00  0.00    +0.000 OA
ATOM     30  H   UNL     1      45.239   2.551   9.526  0.00  0.00    +0.000 HD
ATOM     31  H   UNL     1      44.099   1.243   9.809  0.00  0.00    +0.000 HD
ENDBRANCH  23  27
ENDBRANCH  18  19
ENDBRANCH   1  18
TORSDOF 4
ENDMDL
MODEL 2
REMARK VINA RESULT:    -7.131      1.555      6.764
REMARK INTER + INTRA:          -9.535
REMARK INTER:                  -8.755
REMARK INTRA:                  -0.780
REMARK UNBOUND:                -0.737
REMARK  Name = 
REMARK  8 active torsions:
REMARK  status: ('A' for Active; 'I' for Inactive)
REMARK    1  A    between atoms: C_1  and  C_2
REMARK    2  A    between atoms: C_6  and  C_7
REMARK    3  A    between atoms: C_11  and  C_12
REMARK    4  A    between atoms: C_12  and  C_13
REMARK    5  A    between atoms: C_12  and  C_14
REMARK    6  A    between atoms: C_12  and  C_15
REMARK    7  A    between atoms: C_15  and  N_16
REMARK    8  A    between atoms: C_20  and  C_21
REMARK                            x       y       z     vdW  Elec       q    Type
REMARK                         _______ _______ _______ _____ _____    ______ ____
ROOT
ATOM      1  C   UNL     1      49.036   8.466  12.442  0.00  0.00    +0.000 C 
ATOM      2  C   UNL     1      49.883   7.379  11.733  0.00  0.00    +0.000 C 
ATOM      3  C   UNL     1      49.408   9.851  11.864  0.00  0.00    +0.000 C 
ENDROOT
BRANCH   1  14
ATOM      4  C   UNL     1      46.676   4.300  13.452  0.00  0.00    +0.000 C 
ATOM      5  C   UNL     1      45.671   4.083  12.322  0.00  0.00    +0.000 C 
ATOM      6  C   UNL     1      44.355   3.567  12.952  0.00  0.00    +0.000 C 
ATOM      7  O   UNL     1      43.335   3.318  11.979  0.00  0.00    +0.000 OA
ATOM      8  C   UNL     1      43.021   4.539  11.293  0.00  0.00    +0.000 C 
ATOM      9  C   UNL     1      44.236   5.079  10.518  0.00  0.00    +0.000 C 
ATOM     10  C   UNL     1      44.622   4.143   9.368  0.00  0.00    +0.000 C 
ATOM     11  N   UNL     1      45.415   5.234  11.408  0.00  0.00    +0.000 N 
ATOM     12  C   UNL     1      45.769   6.542  11.705  0.00  0.00    +0.000 A 
ATOM     13  C   UNL     1      47.114   6.871  11.890  0.00  0.00    +0.000 A 
ATOM     14  C   UNL     1      47.539   8.183  12.168  0.00  0.00    +0.000 A 
ATOM     15  C   UNL     1      46.542   9.159  12.180  0.00  0.00    +0.000 A 
ATOM     16  C   UNL     1      45.229   8.779  11.940  0.00  0.00    +0.000 A 
ATOM     17  N   UNL     1      44.831   7.508  11.717  0.00  0.00    +0.000 NA
ENDBRANCH   1  14
BRANCH   1  18
ATOM     18  C   UNL     1      49.349   8.435  13.968  0.00  0.00    +0.000 C 
BRANCH  18  19
ATOM     19  N   UNL     1      50.264   7.376  14.381  0.00  0.00    +0.000 N 
ATOM     20  C   UNL     1      49.950   6.671  15.537  0.00  0.00    +0.000 A 
ATOM     21  C   UNL     1      48.647   6.328  15.922  0.00  0.00    +0.000 A 
ATOM     22  N   UNL     1      48.337   5.617  17.035  0.00  0.00    +0.000 NA
ATOM     23  C   UNL     1      49.417   5.214  17.757  0.00  0.00    +0.000 A 
ATOM     24  C   UNL     1      50.714   5.526  17.387  0.00  0.00    +0.000 A 
ATOM     25  N   UNL     1      51.001   6.265  16.279  0.00  0.00    +0.000 NA
ATOM     26  H   UNL     1      51.250   7.624  14.452  0.00  0.00    +0.000 HD
BRANCH  23  27
ATOM     27  C   UNL     1      49.154   4.410  18.984  0.00  0.00    +0.000 C 
ATOM     28  N   UNL     1      48.381   3.292  18.794  0.00  0.00    +0.000 N 
ATOM     29  O   UNL     1      49.597   4.720  20.080  0.00  0.00    +0.000 OA
ATOM     30  H   UNL     1      48.046   3.063  17.865  0.00  0.00    +0.000 HD
ATOM     31  H   UNL     1      48.173   2.693  19.579  0.00  0.00    +0.000 HD
ENDBRANCH  23  27
ENDBRANCH  18  19
ENDBRANCH   1  18
TORSDOF 4
ENDMDL
MODEL 3
REMARK VINA RESULT:    -6.944      3.503      5.724
REMARK INTER + INTRA:          -9.304
REMARK INTER:                  -8.684
REMARK INTRA:                  -0.620
REMARK UNBOUND:                -0.737
REMARK  Name = 
REMARK  8 active torsions:
REMARK  status: ('A' for Active; 'I' for Inactive)
REMARK    1  A    between atoms: C_1  and  C_2
REMARK    2  A    between atoms: C_6  and  C_7
REMARK    3  A    between atoms: C_11  and  C_12
REMARK    4  A    between atoms: C_12  and  C_13
REMARK    5  A    between atoms: C_12  and  C_14
REMARK    6  A    between atoms: C_12  and  C_15
REMARK    7  A    between atoms: C_15  and  N_16
REMARK    8  A    between atoms: C_20  and  C_21
REMARK                            x       y       z     vdW  Elec       q    Type
REMARK                         _______ _______ _______ _____ _____    ______ ____
ROOT
ATOM      1  C   UNL     1      43.569   5.599  11.903  0.00  0.00    +0.000 C 
ATOM      2  C   UNL     1      44.026   4.627  13.019  0.00  0.00    +0.000 C 
ATOM      3  C   UNL     1      42.079   5.947  12.117  0.00  0.00    +0.000 C 
ENDROOT
BRANCH   1  14
ATOM      4  C   UNL     1      48.374   5.821  12.801  0.00  0.00    +0.000 C 
ATOM      5  C   UNL     1      48.600   7.061  13.665  0.00  0.00    +0.000 C 
ATOM      6  C   UNL     1      49.888   7.759  13.164  0.00  0.00    +0.000 C 
ATOM      7  O   UNL     1      50.205   8.938  13.911  0.00  0.00    +0.000 OA
ATOM      8  C   UNL     1      49.137   9.887  13.783  0.00  0.00    +0.000 C 
ATOM      9  C   UNL     1      47.824   9.342  14.373  0.00  0.00    +0.000 C 
ATOM     10  C   UNL     1      47.929   9.165  15.891  0.00  0.00    +0.000 C 
ATOM     11  N   UNL     1      47.470   8.030  13.774  0.00  0.00    +0.000 N 
ATOM     12  C   UNL     1      46.386   8.043  12.908  0.00  0.00    +0.000 A 
ATOM     13  C   UNL     1      45.544   6.931  12.835  0.00  0.00    +0.000 A 
ATOM     14  C   UNL     1      44.415   6.892  11.998  0.00  0.00    +0.000 A 
ATOM     15  C   UNL     1      44.139   8.062  11.289  0.00  0.00    +0.000 A 
ATOM     16  C   UNL     1      44.984   9.153  11.441  0.00  0.00    +0.000 A 
ATOM     17  N   UNL     1      46.090   9.159  12.216  0.00  0.00    +0.000 NA
ENDBRANCH   1  14
BRANCH   1  18
ATOM     18  C   UNL     1      43.751   4.903  10.520  0.00  0.00    +0.000 C 
BRANCH  18  19
ATOM     19  N   UNL     1      44.595   3.713  10.544  0.00  0.00    +0.000 N 
ATOM     20  C   UNL     1      45.312   3.412   9.391  0.00  0.00    +0.000 A 
ATOM     21  C   UNL     1      45.893   4.372   8.552  0.00  0.00    +0.000 A 
ATOM     22  N   UNL     1      46.617   4.083   7.441  0.00  0.00    +0.000 NA
ATOM     23  C   UNL     1      46.776   2.752   7.211  0.00  0.00    +0.000 A 
ATOM     24  C   UNL     1      46.226   1.787   8.036  0.00  0.00    +0.000 A 
ATOM     25  N   UNL     1      45.479   2.099   9.132  0.00  0.00    +0.000 NA
ATOM     26  H   UNL     1      44.155   2.845  10.846  0.00  0.00    +0.000 HD
BRANCH  23  27
ATOM     27  C   UNL     1      47.578   2.359   6.018  0.00  0.00    +0.000 C 
ATOM     28  N   UNL     1      47.418   3.163   4.917  0.00  0.00    +0.000 N 
ATOM     29  O   UNL     1      48.328   1.393   6.019  0.00  0.00    +0.000 OA
ATOM     30  H   UNL     1      46.797   3.962   4.963  0.00  0.00    +0.000 HD
ATOM     31  H   UNL     1      47.939   2.963   4.077  0.00  0.00    +0.000 HD
ENDBRANCH  23  27
ENDBRANCH  18  19
ENDBRANCH   1  18
TORSDOF 4
ENDMDL
MODEL 4
REMARK VINA RESULT:    -6.326      2.899      6.861
REMARK INTER + INTRA:          -8.543
REMARK INTER:                  -7.730
REMARK INTRA:                  -0.813
REMARK UNBOUND:                -0.737
REMARK  Name = 
REMARK  8 active torsions:
REMARK  status: ('A' for Active; 'I' for Inactive)
REMARK    1  A    between atoms: C_1  and  C_2
REMARK    2  A    between atoms: C_6  and  C_7
REMARK    3  A    between atoms: C_11  and  C_12
REMARK    4  A    between atoms: C_12  and  C_13
REMARK    5  A    between atoms: C_12  and  C_14
REMARK    6  A    between atoms: C_12  and  C_15
REMARK    7  A    between atoms: C_15  and  N_16
REMARK    8  A    between atoms: C_20  and  C_21
REMARK                            x       y       z     vdW  Elec       q    Type
REMARK                         _______ _______ _______ _____ _____    ______ ____
ROOT
ATOM      1  C   UNL     1      45.371   5.710  12.170  0.00  0.00    +0.000 C 
ATOM      2  C   UNL     1      43.977   5.562  12.827  0.00  0.00    +0.000 C 
ATOM      3  C   UNL     1      45.292   5.224  10.705  0.00  0.00    +0.000 C 
ENDROOT
BRANCH   1  14
ATOM      4  C   UNL     1      49.872   7.483  11.429  0.00  0.00    +0.000 C 
ATOM      5  C   UNL     1      50.027   8.682  12.363  0.00  0.00    +0.000 C 
ATOM      6  C   UNL     1      50.771   9.795  11.585  0.00  0.00    +0.000 C 
ATOM      7  O   UNL     1      50.982  10.973  12.370  0.00  0.00    +0.000 OA
ATOM      8  C   UNL     1      49.715  11.515  12.769  0.00  0.00    +0.000 C 
ATOM      9  C   UNL     1      48.938  10.534  13.664  0.00  0.00    +0.000 C 
ATOM     10  C   UNL     1      49.647  10.326  15.006  0.00  0.00    +0.000 C 
ATOM     11  N   UNL     1      48.789   9.210  13.006  0.00  0.00    +0.000 N 
ATOM     12  C   UNL     1      47.508   8.903  12.570  0.00  0.00    +0.000 A 
ATOM     13  C   UNL     1      47.066   7.578  12.597  0.00  0.00    +0.000 A 
ATOM     14  C   UNL     1      45.772   7.206  12.192  0.00  0.00    +0.000 A 
ATOM     15  C   UNL     1      44.922   8.249  11.825  0.00  0.00    +0.000 A 
ATOM     16  C   UNL     1      45.402   9.551  11.866  0.00  0.00    +0.000 A 
ATOM     17  N   UNL     1      46.662   9.888  12.215  0.00  0.00    +0.000 NA
ENDBRANCH   1  14
BRANCH   1  18
ATOM     18  C   UNL     1      46.396   4.837  12.956  0.00  0.00    +0.000 C 
BRANCH  18  19
ATOM     19  N   UNL     1      45.999   4.515  14.322  0.00  0.00    +0.000 N 
ATOM     20  C   UNL     1      46.993   4.506  15.294  0.00  0.00    +0.000 A 
ATOM     21  C   UNL     1      48.069   5.403  15.328  0.00  0.00    +0.000 A 
ATOM     22  N   UNL     1      49.027   5.418  16.289  0.00  0.00    +0.000 NA
ATOM     23  C   UNL     1      48.844   4.495  17.271  0.00  0.00    +0.000 A 
ATOM     24  C   UNL     1      47.778   3.611  17.268  0.00  0.00    +0.000 A 
ATOM     25  N   UNL     1      46.843   3.596  16.278  0.00  0.00    +0.000 NA
ATOM     26  H   UNL     1      45.459   3.660  14.453  0.00  0.00    +0.000 HD
BRANCH  23  27
ATOM     27  C   UNL     1      49.846   4.465  18.373  0.00  0.00    +0.000 C 
ATOM     28  N   UNL     1      49.393   3.946  19.560  0.00  0.00    +0.000 N 
ATOM     29  O   UNL     1      50.991   4.870  18.231  0.00  0.00    +0.000 OA
ATOM     30  H   UNL     1      48.440   3.608  19.631  0.00  0.00    +0.000 HD
ATOM     31  H   UNL     1      50.022   3.884  20.347  0.00  0.00    +0.000 HD
ENDBRANCH  23  27
ENDBRANCH  18  19
ENDBRANCH   1  18
TORSDOF 4
ENDMDL
MODEL 5
REMARK VINA RESULT:    -6.314      1.378      2.338
REMARK INTER + INTRA:          -8.527
REMARK INTER:                  -8.028
REMARK INTRA:                  -0.500
REMARK UNBOUND:                -0.737
REMARK  Name = 
REMARK  8 active torsions:
REMARK  status: ('A' for Active; 'I' for Inactive)
REMARK    1  A    between atoms: C_1  and  C_2
REMARK    2  A    between atoms: C_6  and  C_7
REMARK    3  A    between atoms: C_11  and  C_12
REMARK    4  A    between atoms: C_12  and  C_13
REMARK    5  A    between atoms: C_12  and  C_14
REMARK    6  A    between atoms: C_12  and  C_15
REMARK    7  A    between atoms: C_15  and  N_16
REMARK    8  A    between atoms: C_20  and  C_21
REMARK                            x       y       z     vdW  Elec       q    Type
REMARK                         _______ _______ _______ _____ _____    ______ ____
ROOT
ATOM      1  C   UNL     1      47.947   7.922  13.435  0.00  0.00    +0.000 C 
ATOM      2  C   UNL     1      48.624   9.191  14.010  0.00  0.00    +0.000 C 
ATOM      3  C   UNL     1      48.690   7.491  12.150  0.00  0.00    +0.000 C 
ENDROOT
BRANCH   1  14
ATOM      4  C   UNL     1      47.946   8.515  18.293  0.00  0.00    +0.000 C 
ATOM      5  C   UNL     1      48.904   7.468  18.860  0.00  0.00    +0.000 C 
ATOM      6  C   UNL     1      48.264   6.887  20.144  0.00  0.00    +0.000 C 
ATOM      7  O   UNL     1      49.083   5.895  20.772  0.00  0.00    +0.000 OA
ATOM      8  C   UNL     1      49.281   4.798  19.868  0.00  0.00    +0.000 C 
ATOM      9  C   UNL     1      50.032   5.239  18.600  0.00  0.00    +0.000 C 
ATOM     10  C   UNL     1      51.468   5.664  18.925  0.00  0.00    +0.000 C 
ATOM     11  N   UNL     1      49.347   6.380  17.940  0.00  0.00    +0.000 N 
ATOM     12  C   UNL     1      48.710   6.081  16.744  0.00  0.00    +0.000 A 
ATOM     13  C   UNL     1      48.654   7.040  15.730  0.00  0.00    +0.000 A 
ATOM     14  C   UNL     1      48.046   6.790  14.487  0.00  0.00    +0.000 A 
ATOM     15  C   UNL     1      47.558   5.497  14.295  0.00  0.00    +0.000 A 
ATOM     16  C   UNL     1      47.687   4.572  15.321  0.00  0.00    +0.000 A 
ATOM     17  N   UNL     1      48.235   4.841  16.526  0.00  0.00    +0.000 NA
ENDBRANCH   1  14
BRANCH   1  18
ATOM     18  C   UNL     1      46.462   8.251  13.096  0.00  0.00    +0.000 C 
BRANCH  18  19
ATOM     19  N   UNL     1      46.048   7.873  11.748  0.00  0.00    +0.000 N 
ATOM     20  C   UNL     1      45.509   6.603  11.575  0.00  0.00    +0.000 A 
ATOM     21  C   UNL     1      44.680   5.965  12.507  0.00  0.00    +0.000 A 
ATOM     22  N   UNL     1      44.129   4.738  12.330  0.00  0.00    +0.000 NA
ATOM     23  C   UNL     1      44.417   4.165  11.132  0.00  0.00    +0.000 A 
ATOM     24  C   UNL     1      45.220   4.784  10.189  0.00  0.00    +0.000 A 
ATOM     25  N   UNL     1      45.785   6.006  10.398  0.00  0.00    +0.000 NA
ATOM     26  H   UNL     1      46.734   8.001  11.005  0.00  0.00    +0.000 HD
BRANCH  23  27
ATOM     27  C   UNL     1      43.830   2.823  10.859  0.00  0.00    +0.000 C 
ATOM     28  N   UNL     1      44.403   2.136   9.819  0.00  0.00    +0.000 N 
ATOM     29  O   UNL     1      42.907   2.364  11.516  0.00  0.00    +0.000 OA
ATOM     30  H   UNL     1      45.177   2.547   9.309  0.00  0.00    +0.000 HD
ATOM     31  H   UNL     1      44.065   1.214   9.585  0.00  0.00    +0.000 HD
ENDBRANCH  23  27
ENDBRANCH  18  19
ENDBRANCH   1  18
TORSDOF 4
ENDMDL
MODEL 6
REMARK VINA RESULT:    -6.214      2.298      7.217
REMARK INTER + INTRA:          -8.404
REMARK INTER:                  -7.718
REMARK INTRA:                  -0.687
REMARK UNBOUND:                -0.737
REMARK  Name = 
REMARK  8 active torsions:
REMARK  status: ('A' for Active; 'I' for Inactive)
REMARK    1  A    between atoms: C_1  and  C_2
REMARK    2  A    between atoms: C_6  and  C_7
REMARK    3  A    between atoms: C_11  and  C_12
REMARK    4  A    between atoms: C_12  and  C_13
REMARK    5  A    between atoms: C_12  and  C_14
REMARK    6  A    between atoms: C_12  and  C_15
REMARK    7  A    between atoms: C_15  and  N_16
REMARK    8  A    between atoms: C_20  and  C_21
REMARK                            x       y       z     vdW  Elec       q    Type
REMARK                         _______ _______ _______ _____ _____    ______ ____
ROOT
ATOM      1  C   UNL     1      48.442   8.281  12.732  0.00  0.00    +0.000 C 
ATOM      2  C   UNL     1      49.190   8.042  11.396  0.00  0.00    +0.000 C 
ATOM      3  C   UNL     1      47.479   9.478  12.563  0.00  0.00    +0.000 C 
ENDROOT
BRANCH   1  14
ATOM      4  C   UNL     1      46.084   5.438   9.523  0.00  0.00    +0.000 C 
ATOM      5  C   UNL     1      44.803   4.971  10.213  0.00  0.00    +0.000 C 
ATOM      6  C   UNL     1      44.589   3.480   9.855  0.00  0.00    +0.000 C 
ATOM      7  O   UNL     1      43.404   2.933  10.443  0.00  0.00    +0.000 OA
ATOM      8  C   UNL     1      43.502   3.010  11.873  0.00  0.00    +0.000 C 
ATOM      9  C   UNL     1      43.589   4.470  12.354  0.00  0.00    +0.000 C 
ATOM     10  C   UNL     1      42.289   5.228  12.069  0.00  0.00    +0.000 C 
ATOM     11  N   UNL     1      44.704   5.190  11.685  0.00  0.00    +0.000 N 
ATOM     12  C   UNL     1      45.795   5.479  12.492  0.00  0.00    +0.000 A 
ATOM     13  C   UNL     1      46.526   6.650  12.276  0.00  0.00    +0.000 A 
ATOM     14  C   UNL     1      47.625   7.012  13.074  0.00  0.00    +0.000 A 
ATOM     15  C   UNL     1      47.906   6.166  14.148  0.00  0.00    +0.000 A 
ATOM     16  C   UNL     1      47.113   5.044  14.343  0.00  0.00    +0.000 A 
ATOM     17  N   UNL     1      46.087   4.686  13.540  0.00  0.00    +0.000 NA
ENDBRANCH   1  14
BRANCH   1  18
ATOM     18  C   UNL     1      49.485   8.602  13.845  0.00  0.00    +0.000 C 
BRANCH  18  19
ATOM     19  N   UNL     1      49.004   9.504  14.887  0.00  0.00    +0.000 N 
ATOM     20  C   UNL     1      48.937   9.007  16.184  0.00  0.00    +0.000 A 
ATOM     21  C   UNL     1      49.871   8.120  16.737  0.00  0.00    +0.000 A 
ATOM     22  N   UNL     1      49.826   7.654  18.011  0.00  0.00    +0.000 NA
ATOM     23  C   UNL     1      48.799   8.152  18.750  0.00  0.00    +0.000 A 
ATOM     24  C   UNL     1      47.875   9.043  18.230  0.00  0.00    +0.000 A 
ATOM     25  N   UNL     1      47.924   9.477  16.939  0.00  0.00    +0.000 NA
ATOM     26  H   UNL     1      48.119   9.976  14.712  0.00  0.00    +0.000 HD
BRANCH  23  27
ATOM     27  C   UNL     1      48.697   7.700  20.166  0.00  0.00    +0.000 C 
ATOM     28  N   UNL     1      47.544   7.025  20.481  0.00  0.00    +0.000 N 
ATOM     29  O   UNL     1      49.576   7.911  20.989  0.00  0.00    +0.000 OA
ATOM     30  H   UNL     1      46.846   6.858  19.766  0.00  0.00    +0.000 HD
ATOM     31  H   UNL     1      47.413   6.678  21.419  0.00  0.00    +0.000 HD
ENDBRANCH  23  27
ENDBRANCH  18  19
ENDBRANCH   1  18
TORSDOF 4
ENDMDL
MODEL 7
REMARK VINA RESULT:    -5.945      4.686      7.734
REMARK INTER + INTRA:          -8.072
REMARK INTER:                  -7.514
REMARK INTRA:                  -0.558
REMARK UNBOUND:                -0.737
REMARK  Name = 
REMARK  8 active torsions:
REMARK  status: ('A' for Active; 'I' for Inactive)
REMARK    1  A    between atoms: C_1  and  C_2
REMARK    2  A    between atoms: C_6  and  C_7
REMARK    3  A    between atoms: C_11  and  C_12
REMARK    4  A    between atoms: C_12  and  C_13
REMARK    5  A    between atoms: C_12  and  C_14
REMARK    6  A    between atoms: C_12  and  C_15
REMARK    7  A    between atoms: C_15  and  N_16
REMARK    8  A    between atoms: C_20  and  C_21
REMARK                            x       y       z     vdW  Elec       q    Type
REMARK                         _______ _______ _______ _____ _____    ______ ____
ROOT
ATOM      1  C   UNL     1      48.889   8.400  12.830  0.00  0.00    +0.000 C 
ATOM      2  C   UNL     1      48.886   9.690  13.688  0.00  0.00    +0.000 C 
ATOM      3  C   UNL     1      49.399   7.223  13.691  0.00  0.00    +0.000 C 
ENDROOT
BRANCH   1  14
ATOM      4  C   UNL     1      46.432   4.234  13.570  0.00  0.00    +0.000 C 
ATOM      5  C   UNL     1      45.578   4.004  12.324  0.00  0.00    +0.000 C 
ATOM      6  C   UNL     1      44.193   3.488  12.788  0.00  0.00    +0.000 C 
ATOM      7  O   UNL     1      43.305   3.227  11.696  0.00  0.00    +0.000 OA
ATOM      8  C   UNL     1      43.077   4.442  10.967  0.00  0.00    +0.000 C 
ATOM      9  C   UNL     1      44.378   4.980  10.346  0.00  0.00    +0.000 C 
ATOM     10  C   UNL     1      44.908   4.036   9.261  0.00  0.00    +0.000 C 
ATOM     11  N   UNL     1      45.436   5.146  11.376  0.00  0.00    +0.000 N 
ATOM     12  C   UNL     1      45.745   6.458  11.704  0.00  0.00    +0.000 A 
ATOM     13  C   UNL     1      47.056   6.794  12.054  0.00  0.00    +0.000 A 
ATOM     14  C   UNL     1      47.439   8.109  12.372  0.00  0.00    +0.000 A 
ATOM     15  C   UNL     1      46.446   9.081  12.251  0.00  0.00    +0.000 A 
ATOM     16  C   UNL     1      45.174   8.695  11.850  0.00  0.00    +0.000 A 
ATOM     17  N   UNL     1      44.811   7.421  11.590  0.00  0.00    +0.000 NA
ENDBRANCH   1  14
BRANCH   1  18
ATOM     18  C   UNL     1      49.837   8.606  11.611  0.00  0.00    +0.000 C 
BRANCH  18  19
ATOM     19  N   UNL     1      50.906   7.618  11.498  0.00  0.00    +0.000 N 
ATOM     20  C   UNL     1      51.884   7.839  10.535  0.00  0.00    +0.000 A 
ATOM     21  C   UNL     1      52.388   9.103  10.199  0.00  0.00    +0.000 A 
ATOM     22  N   UNL     1      53.362   9.321   9.280  0.00  0.00    +0.000 NA
ATOM     23  C   UNL     1      53.858   8.188   8.714  0.00  0.00    +0.000 A 
ATOM     24  C   UNL     1      53.388   6.929   9.044  0.00  0.00    +0.000 A 
ATOM     25  N   UNL     1      52.390   6.734   9.950  0.00  0.00    +0.000 NA
ATOM     26  H   UNL     1      50.622   6.644  11.404  0.00  0.00    +0.000 HD
BRANCH  23  27
ATOM     27  C   UNL     1      54.946   8.349   7.709  0.00  0.00    +0.000 C 
ATOM     28  N   UNL     1      55.115   7.286   6.857  0.00  0.00    +0.000 N 
ATOM     29  O   UNL     1      55.637   9.356   7.642  0.00  0.00    +0.000 OA
ATOM     30  H   UNL     1      54.512   6.476   6.937  0.00  0.00    +0.000 HD
ATOM     31  H   UNL     1      55.826   7.331   6.142  0.00  0.00    +0.000 HD
ENDBRANCH  23  27
ENDBRANCH  18  19
ENDBRANCH   1  18
TORSDOF 4
ENDMDL
MODEL 8
REMARK VINA RESULT:    -5.636      4.594      6.707
REMARK INTER + INTRA:          -7.691
REMARK INTER:                  -7.010
REMARK INTRA:                  -0.681
REMARK UNBOUND:                -0.737
REMARK  Name = 
REMARK  8 active torsions:
REMARK  status: ('A' for Active; 'I' for Inactive)
REMARK    1  A    between atoms: C_1  and  C_2
REMARK    2  A    between atoms: C_6  and  C_7
REMARK    3  A    between atoms: C_11  and  C_12
REMARK    4  A    between atoms: C_12  and  C_13
REMARK    5  A    between atoms: C_12  and  C_14
REMARK    6  A    between atoms: C_12  and  C_15
REMARK    7  A    between atoms: C_15  and  N_16
REMARK    8  A    between atoms: C_20  and  C_21
REMARK                            x       y       z     vdW  Elec       q    Type
REMARK                         _______ _______ _______ _____ _____    ______ ____
ROOT
ATOM      1  C   UNL     1      49.809   9.313  13.029  0.00  0.00    +0.000 C 
ATOM      2  C   UNL     1      49.895  10.698  13.717  0.00  0.00    +0.000 C 
ATOM      3  C   UNL     1      49.102   9.471  11.664  0.00  0.00    +0.000 C 
ENDROOT
BRANCH   1  14
ATOM      4  C   UNL     1      52.506   9.977   9.001  0.00  0.00    +0.000 C 
ATOM      5  C   UNL     1      53.305   8.692   8.794  0.00  0.00    +0.000 C 
ATOM      6  C   UNL     1      54.736   9.089   8.354  0.00  0.00    +0.000 C 
ATOM      7  O   UNL     1      55.579   7.956   8.121  0.00  0.00    +0.000 OA
ATOM      8  C   UNL     1      55.708   7.200   9.334  0.00  0.00    +0.000 C 
ATOM      9  C   UNL     1      54.352   6.641   9.798  0.00  0.00    +0.000 C 
ATOM     10  C   UNL     1      53.814   5.598   8.813  0.00  0.00    +0.000 C 
ATOM     11  N   UNL     1      53.341   7.722   9.928  0.00  0.00    +0.000 N 
ATOM     12  C   UNL     1      52.984   8.050  11.228  0.00  0.00    +0.000 A 
ATOM     13  C   UNL     1      51.678   8.463  11.504  0.00  0.00    +0.000 A 
ATOM     14  C   UNL     1      51.247   8.784  12.803  0.00  0.00    +0.000 A 
ATOM     15  C   UNL     1      52.182   8.599  13.821  0.00  0.00    +0.000 A 
ATOM     16  C   UNL     1      53.449   8.137  13.492  0.00  0.00    +0.000 A 
ATOM     17  N   UNL     1      53.862   7.875  12.233  0.00  0.00    +0.000 NA
ENDBRANCH   1  14
BRANCH   1  18
ATOM     18  C   UNL     1      48.987   8.348  13.936  0.00  0.00    +0.000 C 
BRANCH  18  19
ATOM     19  N   UNL     1      48.877   6.983  13.430  0.00  0.00    +0.000 N 
ATOM     20  C   UNL     1      47.606   6.422  13.371  0.00  0.00    +0.000 A 
ATOM     21  C   UNL     1      46.446   7.132  13.034  0.00  0.00    +0.000 A 
ATOM     22  N   UNL     1      45.208   6.583  12.947  0.00  0.00    +0.000 NA
ATOM     23  C   UNL     1      45.175   5.244  13.181  0.00  0.00    +0.000 A 
ATOM     24  C   UNL     1      46.311   4.519  13.498  0.00  0.00    +0.000 A 
ATOM     25  N   UNL     1      47.541   5.096  13.607  0.00  0.00    +0.000 NA
ATOM     26  H   UNL     1      49.482   6.285  13.860  0.00  0.00    +0.000 HD
BRANCH  23  27
ATOM     27  C   UNL     1      43.850   4.568  13.084  0.00  0.00    +0.000 C 
ATOM     28  N   UNL     1      42.767   5.410  13.058  0.00  0.00    +0.000 N 
ATOM     29  O   UNL     1      43.735   3.353  13.027  0.00  0.00    +0.000 OA
ATOM     30  H   UNL     1      42.907   6.414  13.092  0.00  0.00    +0.000 HD
ATOM     31  H   UNL     1      41.839   5.023  12.980  0.00  0.00    +0.000 HD
ENDBRANCH  23  27
ENDBRANCH  18  19
ENDBRANCH   1  18
TORSDOF 4
ENDMDL
MODEL 9
REMARK VINA RESULT:    -5.396      2.206      6.496
REMARK INTER + INTRA:          -7.395
REMARK INTER:                  -6.656
REMARK INTRA:                  -0.739
REMARK UNBOUND:                -0.737
REMARK  Name = 
REMARK  8 active torsions:
REMARK  status: ('A' for Active; 'I' for Inactive)
REMARK    1  A    between atoms: C_1  and  C_2
REMARK    2  A    between atoms: C_6  and  C_7
REMARK    3  A    between atoms: C_11  and  C_12
REMARK    4  A    between atoms: C_12  and  C_13
REMARK    5  A    between atoms: C_12  and  C_14
REMARK    6  A    between atoms: C_12  and  C_15
REMARK    7  A    between atoms: C_15  and  N_16
REMARK    8  A    between atoms: C_20  and  C_21
REMARK                            x       y       z     vdW  Elec       q    Type
REMARK                         _______ _______ _______ _____ _____    ______ ____
ROOT
ATOM      1  C   UNL     1      49.817  10.148  14.500  0.00  0.00    +0.000 C 
ATOM      2  C   UNL     1      51.347  10.382  14.440  0.00  0.00    +0.000 C 
ATOM      3  C   UNL     1      49.091  11.479  14.197  0.00  0.00    +0.000 C 
ENDROOT
BRANCH   1  14
ATOM      4  C   UNL     1      45.301   9.270  12.833  0.00  0.00    +0.000 C 
ATOM      5  C   UNL     1      45.212   7.764  12.585  0.00  0.00    +0.000 C 
ATOM      6  C   UNL     1      44.438   7.547  11.262  0.00  0.00    +0.000 C 
ATOM      7  O   UNL     1      44.285   6.163  10.931  0.00  0.00    +0.000 OA
ATOM      8  C   UNL     1      45.579   5.567  10.761  0.00  0.00    +0.000 C 
ATOM      9  C   UNL     1      46.395   5.611  12.065  0.00  0.00    +0.000 C 
ATOM     10  C   UNL     1      45.763   4.729  13.147  0.00  0.00    +0.000 C 
ATOM     11  N   UNL     1      46.492   6.997  12.592  0.00  0.00    +0.000 N 
ATOM     12  C   UNL     1      47.742   7.589  12.483  0.00  0.00    +0.000 A 
ATOM     13  C   UNL     1      48.170   8.487  13.464  0.00  0.00    +0.000 A 
ATOM     14  C   UNL     1      49.434   9.101  13.425  0.00  0.00    +0.000 A 
ATOM     15  C   UNL     1      50.273   8.708  12.382  0.00  0.00    +0.000 A 
ATOM     16  C   UNL     1      49.811   7.774  11.465  0.00  0.00    +0.000 A 
ATOM     17  N   UNL     1      48.576   7.226  11.492  0.00  0.00    +0.000 NA
ENDBRANCH   1  14
BRANCH   1  18
ATOM     18  C   UNL     1      49.435   9.658  15.929  0.00  0.00    +0.000 C 
BRANCH  18  19
ATOM     19  N   UNL     1      50.459   8.855  16.591  0.00  0.00    +0.000 N 
ATOM     20  C   UNL     1      50.162   7.521  16.845  0.00  0.00    +0.000 A 
ATOM     21  C   UNL     1      49.419   6.701  15.986  0.00  0.00    +0.000 A 
ATOM     22  N   UNL     1      49.150   5.391  16.216  0.00  0.00    +0.000 NA
ATOM     23  C   UNL     1      49.701   4.902  17.359  0.00  0.00    +0.000 A 
ATOM     24  C   UNL     1      50.454   5.689  18.214  0.00  0.00    +0.000 A 
ATOM     25  N   UNL     1      50.689   7.010  17.977  0.00  0.00    +0.000 NA
ATOM     26  H   UNL     1      50.853   9.233  17.451  0.00  0.00    +0.000 HD
BRANCH  23  27
ATOM     27  C   UNL     1      49.465   3.464  17.668  0.00  0.00    +0.000 C 
ATOM     28  N   UNL     1      48.913   3.215  18.900  0.00  0.00    +0.000 N 
ATOM     29  O   UNL     1      49.738   2.569  16.882  0.00  0.00    +0.000 OA
ATOM     30  H   UNL     1      48.687   3.988  19.516  0.00  0.00    +0.000 HD
ATOM     31  H   UNL     1      48.713   2.265  19.172  0.00  0.00    +0.000 HD
ENDBRANCH  23  27
ENDBRANCH  18  19
ENDBRANCH   1  18
TORSDOF 4
ENDMDL
