MODEL 1
REMARK VINA RESULT:    -7.535      0.000      0.000
REMARK INTER + INTRA:         -10.094
REMARK INTER:                  -9.297
REMARK INTRA:                  -0.796
REMARK UNBOUND:                -0.796
REMARK  Name = 
REMARK  5 active torsions:
REMARK  status: ('A' for Active; 'I' for Inactive)
REMARK    1  A    between atoms: C_1  and  C_2
REMARK    2  A    between atoms: C_2  and  N_3
REMARK    3  A    between atoms: C_2  and  C_12
REMARK    4  A    between atoms: N_3  and  C_4
REMARK    5  A    between atoms: C_7  and  C_8
REMARK                            x       y       z     vdW  Elec       q    Type
REMARK                         _______ _______ _______ _____ _____    ______ ____
ROOT
ATOM      1  N   UNL     1      43.718   4.788   9.859  0.00  0.00    +0.000 N 
ATOM      2  H   UNL     1      43.749   5.773   9.594  0.00  0.00    +0.000 HD
ENDROOT
BRANCH   1   3
ATOM      3  C   UNL     1      44.714   4.077   9.182  0.00  0.00    +0.000 A 
ATOM      4  C   UNL     1      44.771   2.682   9.141  0.00  0.00    +0.000 A 
ATOM      5  C   UNL     1      45.726   2.012   8.365  0.00  0.00    +0.000 A 
ATOM      6  C   UNL     1      46.633   2.733   7.588  0.00  0.00    +0.000 A 
ATOM      7  C   UNL     1      46.582   4.124   7.598  0.00  0.00    +0.000 A 
ATOM      8  C   UNL     1      45.621   4.785   8.377  0.00  0.00    +0.000 A 
BRANCH   6   9
ATOM      9  C   UNL     1      47.583   2.037   6.769  0.00  0.00    +0.000 C 
ATOM     10  N   UNL     1      48.348   1.489   6.094  0.00  0.00    +0.000 NA
ENDBRANCH   6   9
ENDBRANCH   1   3
BRANCH   1  12
ATOM     11  C   UNL     1      42.327   5.471  11.820  0.00  0.00    +0.000 C 
ATOM     12  C   UNL     1      43.515   4.647  11.310  0.00  0.00    +0.000 C 
BRANCH  12  13
ATOM     13  C   UNL     1      44.788   5.123  12.004  0.00  0.00    +0.000 A 
ATOM     14  C   UNL     1      45.215   6.452  11.865  0.00  0.00    +0.000 A 
ATOM     15  C   UNL     1      46.347   6.906  12.546  0.00  0.00    +0.000 A 
ATOM     16  C   UNL     1      47.060   6.035  13.368  0.00  0.00    +0.000 A 
ATOM     17 CL   UNL     1      48.426   6.610  14.242  0.00  0.00    +0.000 Cl
ATOM     18  C   UNL     1      46.666   4.707  13.499  0.00  0.00    +0.000 A 
ATOM     19  C   UNL     1      45.538   4.252  12.817  0.00  0.00    +0.000 A 
ENDBRANCH  12  13
ENDBRANCH   1  12
TORSDOF 4
ENDMDL
MODEL 2
REMARK VINA RESULT:    -7.212      0.628      1.709
REMARK INTER + INTRA:          -9.695
REMARK INTER:                  -9.045
REMARK INTRA:                  -0.650
REMARK UNBOUND:                -0.796
REMARK  Name = 
REMARK  5 active torsions:
REMARK  status: ('A' for Active; 'I' for Inactive)
REMARK    1  A    between atoms: C_1  and  C_2
REMARK    2  A    between atoms: C_2  and  N_3
REMARK    3  A    between atoms: C_2  and  C_12
REMARK    4  A    between atoms: N_3  and  C_4
REMARK    5  A    between atoms: C_7  and  C_8
REMARK                            x       y       z     vdW  Elec       q    Type
REMARK                         _______ _______ _______ _____ _____    ______ ____
ROOT
ATOM      1  N   UNL     1      43.843   4.548  10.419  0.00  0.00    +0.000 N 
ATOM      2  H   UNL     1      43.766   5.547  10.227  0.00  0.00    +0.000 HD
ENDROOT
BRANCH   1   3
ATOM      3  C   UNL     1      44.664   3.937   9.467  0.00  0.00    +0.000 A 
ATOM      4  C   UNL     1      45.459   4.648   8.566  0.00  0.00    +0.000 A 
ATOM      5  C   UNL     1      46.345   3.994   7.699  0.00  0.00    +0.000 A 
ATOM      6  C   UNL     1      46.471   2.605   7.736  0.00  0.00    +0.000 A 
ATOM      7  C   UNL     1      45.702   1.877   8.640  0.00  0.00    +0.000 A 
ATOM      8  C   UNL     1      44.820   2.541   9.504  0.00  0.00    +0.000 A 
BRANCH   6   9
ATOM      9  C   UNL     1      47.407   1.949   6.870  0.00  0.00    +0.000 C 
ATOM     10  N   UNL     1      48.148   1.409   6.162  0.00  0.00    +0.000 NA
ENDBRANCH   6   9
ENDBRANCH   1   3
BRANCH   1  12
ATOM     11  C   UNL     1      42.829   4.815  12.687  0.00  0.00    +0.000 C 
ATOM     12  C   UNL     1      44.016   4.308  11.861  0.00  0.00    +0.000 C 
BRANCH  12  13
ATOM     13  C   UNL     1      45.281   5.039  12.302  0.00  0.00    +0.000 A 
ATOM     14  C   UNL     1      46.136   4.462  13.253  0.00  0.00    +0.000 A 
ATOM     15  C   UNL     1      47.325   5.102  13.615  0.00  0.00    +0.000 A 
ATOM     16  C   UNL     1      47.665   6.320  13.031  0.00  0.00    +0.000 A 
ATOM     17 CL   UNL     1      49.152   7.081  13.444  0.00  0.00    +0.000 Cl
ATOM     18  C   UNL     1      46.817   6.919  12.103  0.00  0.00    +0.000 A 
ATOM     19  C   UNL     1      45.629   6.284  11.743  0.00  0.00    +0.000 A 
ENDBRANCH  12  13
ENDBRANCH   1  12
TORSDOF 4
ENDMDL
MODEL 3
REMARK VINA RESULT:    -6.659      2.974      5.941
REMARK INTER + INTRA:          -9.013
REMARK INTER:                  -9.035
REMARK INTRA:                   0.022
REMARK UNBOUND:                -0.796
REMARK  Name = 
REMARK  5 active torsions:
REMARK  status: ('A' for Active; 'I' for Inactive)
REMARK    1  A    between atoms: C_1  and  C_2
REMARK    2  A    between atoms: C_2  and  N_3
REMARK    3  A    between atoms: C_2  and  C_12
REMARK    4  A    between atoms: N_3  and  C_4
REMARK    5  A    between atoms: C_7  and  C_8
REMARK                            x       y       z     vdW  Elec       q    Type
REMARK                         _______ _______ _______ _____ _____    ______ ____
ROOT
ATOM      1  N   UNL     1      44.126   5.387  10.651  0.00  0.00    +0.000 N 
ATOM      2  H   UNL     1      43.328   5.927  10.985  0.00  0.00    +0.000 HD
ENDROOT
BRANCH   1   3
ATOM      3  C   UNL     1      45.215   5.557  11.511  0.00  0.00    +0.000 A 
ATOM      4  C   UNL     1      46.282   6.416  11.241  0.00  0.00    +0.000 A 
ATOM      5  C   UNL     1      47.301   6.633  12.178  0.00  0.00    +0.000 A 
ATOM      6  C   UNL     1      47.256   6.009  13.424  0.00  0.00    +0.000 A 
ATOM      7  C   UNL     1      46.191   5.162  13.723  0.00  0.00    +0.000 A 
ATOM      8  C   UNL     1      45.176   4.954  12.779  0.00  0.00    +0.000 A 
BRANCH   6   9
ATOM      9  C   UNL     1      48.285   6.266  14.390  0.00  0.00    +0.000 C 
ATOM     10  N   UNL     1      49.109   6.490  15.173  0.00  0.00    +0.000 NA
ENDBRANCH   6   9
ENDBRANCH   1   3
BRANCH   1  12
ATOM     11  C   UNL     1      43.501   3.073  11.357  0.00  0.00    +0.000 C 
ATOM     12  C   UNL     1      43.697   4.054  10.196  0.00  0.00    +0.000 C 
BRANCH  12  13
ATOM     13  C   UNL     1      44.778   3.515   9.263  0.00  0.00    +0.000 A 
ATOM     14  C   UNL     1      45.084   2.146   9.251  0.00  0.00    +0.000 A 
ATOM     15  C   UNL     1      46.030   1.641   8.356  0.00  0.00    +0.000 A 
ATOM     16  C   UNL     1      46.677   2.499   7.469  0.00  0.00    +0.000 A 
ATOM     17 CL   UNL     1      47.807   1.866   6.337  0.00  0.00    +0.000 Cl
ATOM     18  C   UNL     1      46.404   3.864   7.482  0.00  0.00    +0.000 A 
ATOM     19  C   UNL     1      45.462   4.370   8.378  0.00  0.00    +0.000 A 
ENDBRANCH  12  13
ENDBRANCH   1  12
TORSDOF 4
ENDMDL
MODEL 4
REMARK VINA RESULT:    -6.286      3.110      6.106
REMARK INTER + INTRA:          -8.552
REMARK INTER:                  -7.900
REMARK INTRA:                  -0.652
REMARK UNBOUND:                -0.796
REMARK  Name = 
REMARK  5 active torsions:
REMARK  status: ('A' for Active; 'I' for Inactive)
REMARK    1  A    between atoms: C_1  and  C_2
REMARK    2  A    between atoms: C_2  and  N_3
REMARK    3  A    between atoms: C_2  and  C_12
REMARK    4  A    between atoms: N_3  and  C_4
REMARK    5  A    between atoms: C_7  and  C_8
REMARK                            x       y       z     vdW  Elec       q    Type
REMARK                         _______ _______ _______ _____ _____    ______ ____
ROOT
ATOM      1  N   UNL     1      45.277   4.445  11.891  0.00  0.00    +0.000 N 
ATOM      2  H   UNL     1      46.106   3.856  11.818  0.00  0.00    +0.000 HD
ENDROOT
BRANCH   1   3
ATOM      3  C   UNL     1      45.651   5.785  12.038  0.00  0.00    +0.000 A 
ATOM      4  C   UNL     1      46.951   6.192  12.343  0.00  0.00    +0.000 A 
ATOM      5  C   UNL     1      47.304   7.548  12.378  0.00  0.00    +0.000 A 
ATOM      6  C   UNL     1      46.358   8.529  12.082  0.00  0.00    +0.000 A 
ATOM      7  C   UNL     1      45.059   8.146  11.757  0.00  0.00    +0.000 A 
ATOM      8  C   UNL     1      44.718   6.786  11.722  0.00  0.00    +0.000 A 
BRANCH   6   9
ATOM      9  C   UNL     1      46.737   9.912  12.086  0.00  0.00    +0.000 C 
ATOM     10  N   UNL     1      47.058  11.025  12.101  0.00  0.00    +0.000 NA
ENDBRANCH   6   9
ENDBRANCH   1   3
BRANCH   1  12
ATOM     11  C   UNL     1      43.359   2.906  11.450  0.00  0.00    +0.000 C 
ATOM     12  C   UNL     1      44.256   4.029  10.916  0.00  0.00    +0.000 C 
BRANCH  12  13
ATOM     13  C   UNL     1      44.982   3.538   9.667  0.00  0.00    +0.000 A 
ATOM     14  C   UNL     1      45.512   4.458   8.750  0.00  0.00    +0.000 A 
ATOM     15  C   UNL     1      46.229   4.012   7.636  0.00  0.00    +0.000 A 
ATOM     16  C   UNL     1      46.419   2.647   7.432  0.00  0.00    +0.000 A 
ATOM     17 CL   UNL     1      47.342   2.104   6.085  0.00  0.00    +0.000 Cl
ATOM     18  C   UNL     1      45.880   1.718   8.318  0.00  0.00    +0.000 A 
ATOM     19  C   UNL     1      45.161   2.162   9.428  0.00  0.00    +0.000 A 
ENDBRANCH  12  13
ENDBRANCH   1  12
TORSDOF 4
ENDMDL
MODEL 5
REMARK VINA RESULT:    -5.647      3.261      5.756
REMARK INTER + INTRA:          -7.764
REMARK INTER:                  -7.063
REMARK INTRA:                  -0.701
REMARK UNBOUND:                -0.796
REMARK  Name = 
REMARK  5 active torsions:
REMARK  status: ('A' for Active; 'I' for Inactive)
REMARK    1  A    between atoms: C_1  and  C_2
REMARK    2  A    between atoms: C_2  and  N_3
REMARK    3  A    between atoms: C_2  and  C_12
REMARK    4  A    between atoms: N_3  and  C_4
REMARK    5  A    between atoms: C_7  and  C_8
REMARK                            x       y       z     vdW  Elec       q    Type
REMARK                         _______ _______ _______ _____ _____    ______ ____
ROOT
ATOM      1  N   UNL     1      44.608   6.003  12.510  0.00  0.00    +0.000 N 
ATOM      2  H   UNL     1      44.834   5.092  12.909  0.00  0.00    +0.000 HD
ENDROOT
BRANCH   1   3
ATOM      3  C   UNL     1      45.753   6.803  12.457  0.00  0.00    +0.000 A 
ATOM      4  C   UNL     1      47.043   6.292  12.298  0.00  0.00    +0.000 A 
ATOM      5  C   UNL     1      48.151   7.136  12.146  0.00  0.00    +0.000 A 
ATOM      6  C   UNL     1      47.983   8.521  12.125  0.00  0.00    +0.000 A 
ATOM      7  C   UNL     1      46.704   9.053  12.264  0.00  0.00    +0.000 A 
ATOM      8  C   UNL     1      45.602   8.199  12.413  0.00  0.00    +0.000 A 
BRANCH   6   9
ATOM      9  C   UNL     1      49.119   9.375  11.933  0.00  0.00    +0.000 C 
ATOM     10  N   UNL     1      50.025  10.081  11.779  0.00  0.00    +0.000 NA
ENDBRANCH   6   9
ENDBRANCH   1   3
BRANCH   1  12
ATOM     11  C   UNL     1      42.273   5.521  11.762  0.00  0.00    +0.000 C 
ATOM     12  C   UNL     1      43.712   5.855  11.352  0.00  0.00    +0.000 C 
BRANCH  12  13
ATOM     13  C   UNL     1      44.260   4.725  10.485  0.00  0.00    +0.000 A 
ATOM     14  C   UNL     1      45.106   5.010   9.402  0.00  0.00    +0.000 A 
ATOM     15  C   UNL     1      45.657   3.975   8.644  0.00  0.00    +0.000 A 
ATOM     16  C   UNL     1      45.365   2.650   8.960  0.00  0.00    +0.000 A 
ATOM     17 CL   UNL     1      46.083   1.376   8.052  0.00  0.00    +0.000 Cl
ATOM     18  C   UNL     1      44.509   2.347  10.016  0.00  0.00    +0.000 A 
ATOM     19  C   UNL     1      43.956   3.380  10.772  0.00  0.00    +0.000 A 
ENDBRANCH  12  13
ENDBRANCH   1  12
TORSDOF 4
ENDMDL
MODEL 6
REMARK VINA RESULT:    -5.560      3.445      6.415
REMARK INTER + INTRA:          -7.657
REMARK INTER:                  -7.077
REMARK INTRA:                  -0.579
REMARK UNBOUND:                -0.796
REMARK  Name = 
REMARK  5 active torsions:
REMARK  status: ('A' for Active; 'I' for Inactive)
REMARK    1  A    between atoms: C_1  and  C_2
REMARK    2  A    between atoms: C_2  and  N_3
REMARK    3  A    between atoms: C_2  and  C_12
REMARK    4  A    between atoms: N_3  and  C_4
REMARK    5  A    between atoms: C_7  and  C_8
REMARK                            x       y       z     vdW  Elec       q    Type
REMARK                         _______ _______ _______ _____ _____    ______ ____
ROOT
ATOM      1  N   UNL     1      45.368   4.029  12.900  0.00  0.00    +0.000 N 
ATOM      2  H   UNL     1      45.830   3.205  12.516  0.00  0.00    +0.000 HD
ENDROOT
BRANCH   1   3
ATOM      3  C   UNL     1      46.280   4.789  13.640  0.00  0.00    +0.000 A 
ATOM      4  C   UNL     1      46.801   4.383  14.871  0.00  0.00    +0.000 A 
ATOM      5  C   UNL     1      47.790   5.128  15.527  0.00  0.00    +0.000 A 
ATOM      6  C   UNL     1      48.299   6.289  14.946  0.00  0.00    +0.000 A 
ATOM      7  C   UNL     1      47.808   6.702  13.710  0.00  0.00    +0.000 A 
ATOM      8  C   UNL     1      46.820   5.949  13.061  0.00  0.00    +0.000 A 
BRANCH   6   9
ATOM      9  C   UNL     1      49.337   7.024  15.609  0.00  0.00    +0.000 C 
ATOM     10  N   UNL     1      50.163   7.630  16.150  0.00  0.00    +0.000 NA
ENDBRANCH   6   9
ENDBRANCH   1   3
BRANCH   1  12
ATOM     11  C   UNL     1      43.022   4.205  12.060  0.00  0.00    +0.000 C 
ATOM     12  C   UNL     1      44.481   4.643  11.898  0.00  0.00    +0.000 C 
BRANCH  12  13
ATOM     13  C   UNL     1      44.980   4.220  10.519  0.00  0.00    +0.000 A 
ATOM     14  C   UNL     1      44.795   2.902  10.073  0.00  0.00    +0.000 A 
ATOM     15  C   UNL     1      45.197   2.528   8.789  0.00  0.00    +0.000 A 
ATOM     16  C   UNL     1      45.787   3.465   7.944  0.00  0.00    +0.000 A 
ATOM     17 CL   UNL     1      46.238   3.012   6.346  0.00  0.00    +0.000 Cl
ATOM     18  C   UNL     1      46.001   4.771   8.377  0.00  0.00    +0.000 A 
ATOM     19  C   UNL     1      45.603   5.145   9.660  0.00  0.00    +0.000 A 
ENDBRANCH  12  13
ENDBRANCH   1  12
TORSDOF 4
ENDMDL
MODEL 7
REMARK VINA RESULT:    -4.988      4.321      6.521
REMARK INTER + INTRA:          -6.951
REMARK INTER:                  -6.395
REMARK INTRA:                  -0.556
REMARK UNBOUND:                -0.796
REMARK  Name = 
REMARK  5 active torsions:
REMARK  status: ('A' for Active; 'I' for Inactive)
REMARK    1  A    between atoms: C_1  and  C_2
REMARK    2  A    between atoms: C_2  and  N_3
REMARK    3  A    between atoms: C_2  and  C_12
REMARK    4  A    between atoms: N_3  and  C_4
REMARK    5  A    between atoms: C_7  and  C_8
REMARK                            x       y       z     vdW  Elec       q    Type
REMARK                         _______ _______ _______ _____ _____    ______ ____
ROOT
ATOM      1  N   UNL     1      47.838   5.202  15.547  0.00  0.00    +0.000 N 
ATOM      2  H   UNL     1      48.825   5.251  15.294  0.00  0.00    +0.000 HD
ENDROOT
BRANCH   1   3
ATOM      3  C   UNL     1      47.052   5.103  14.394  0.00  0.00    +0.000 A 
ATOM      4  C   UNL     1      46.830   6.169  13.520  0.00  0.00    +0.000 A 
ATOM      5  C   UNL     1      46.121   5.997  12.323  0.00  0.00    +0.000 A 
ATOM      6  C   UNL     1      45.641   4.737  11.964  0.00  0.00    +0.000 A 
ATOM      7  C   UNL     1      45.867   3.656  12.812  0.00  0.00    +0.000 A 
ATOM      8  C   UNL     1      46.579   3.839  14.005  0.00  0.00    +0.000 A 
BRANCH   6   9
ATOM      9  C   UNL     1      44.948   4.565  10.720  0.00  0.00    +0.000 C 
ATOM     10  N   UNL     1      44.378   4.441   9.719  0.00  0.00    +0.000 NA
ENDBRANCH   6   9
ENDBRANCH   1   3
BRANCH   1  12
ATOM     11  C   UNL     1      47.089   5.046  17.925  0.00  0.00    +0.000 C 
ATOM     12  C   UNL     1      47.640   4.309  16.700  0.00  0.00    +0.000 C 
BRANCH  12  13
ATOM     13  C   UNL     1      48.995   3.699  17.050  0.00  0.00    +0.000 A 
ATOM     14  C   UNL     1      49.241   2.339  16.811  0.00  0.00    +0.000 A 
ATOM     15  C   UNL     1      50.499   1.792  17.075  0.00  0.00    +0.000 A 
ATOM     16  C   UNL     1      51.516   2.598  17.582  0.00  0.00    +0.000 A 
ATOM     17 CL   UNL     1      53.077   1.930  17.862  0.00  0.00    +0.000 Cl
ATOM     18  C   UNL     1      51.283   3.945  17.848  0.00  0.00    +0.000 A 
ATOM     19  C   UNL     1      50.027   4.491  17.588  0.00  0.00    +0.000 A 
ENDBRANCH  12  13
ENDBRANCH   1  12
TORSDOF 4
ENDMDL
MODEL 8
REMARK VINA RESULT:    -4.922      3.106      5.034
REMARK INTER + INTRA:          -6.869
REMARK INTER:                  -6.221
REMARK INTRA:                  -0.648
REMARK UNBOUND:                -0.796
REMARK  Name = 
REMARK  5 active torsions:
REMARK  status: ('A' for Active; 'I' for Inactive)
REMARK    1  A    between atoms: C_1  and  C_2
REMARK    2  A    between atoms: C_2  and  N_3
REMARK    3  A    between atoms: C_2  and  C_12
REMARK    4  A    between atoms: N_3  and  C_4
REMARK    5  A    between atoms: C_7  and  C_8
REMARK                            x       y       z     vdW  Elec       q    Type
REMARK                         _______ _______ _______ _____ _____    ______ ____
ROOT
ATOM      1  N   UNL     1      46.700   6.617  13.650  0.00  0.00    +0.000 N 
ATOM      2  H   UNL     1      46.292   7.548  13.567  0.00  0.00    +0.000 HD
ENDROOT
BRANCH   1   3
ATOM      3  C   UNL     1      46.078   5.738  12.757  0.00  0.00    +0.000 A 
ATOM      4  C   UNL     1      45.791   6.064  11.430  0.00  0.00    +0.000 A 
ATOM      5  C   UNL     1      45.261   5.117  10.543  0.00  0.00    +0.000 A 
ATOM      6  C   UNL     1      45.031   3.808  10.965  0.00  0.00    +0.000 A 
ATOM      7  C   UNL     1      45.327   3.455  12.280  0.00  0.00    +0.000 A 
ATOM      8  C   UNL     1      45.859   4.410  13.158  0.00  0.00    +0.000 A 
BRANCH   6   9
ATOM      9  C   UNL     1      44.522   2.837  10.040  0.00  0.00    +0.000 C 
ATOM     10  N   UNL     1      44.121   2.040   9.302  0.00  0.00    +0.000 NA
ENDBRANCH   6   9
ENDBRANCH   1   3
BRANCH   1  12
ATOM     11  C   UNL     1      48.631   6.973  15.194  0.00  0.00    +0.000 C 
ATOM     12  C   UNL     1      48.166   6.700  13.760  0.00  0.00    +0.000 C 
BRANCH  12  13
ATOM     13  C   UNL     1      48.633   7.838  12.857  0.00  0.00    +0.000 A 
ATOM     14  C   UNL     1      47.863   9.004  12.732  0.00  0.00    +0.000 A 
ATOM     15  C   UNL     1      48.318  10.071  11.953  0.00  0.00    +0.000 A 
ATOM     16  C   UNL     1      49.541   9.979  11.294  0.00  0.00    +0.000 A 
ATOM     17 CL   UNL     1      50.119  11.313  10.373  0.00  0.00    +0.000 Cl
ATOM     18  C   UNL     1      50.308   8.821  11.386  0.00  0.00    +0.000 A 
ATOM     19  C   UNL     1      49.854   7.754  12.161  0.00  0.00    +0.000 A 
ENDBRANCH  12  13
ENDBRANCH   1  12
TORSDOF 4
ENDMDL
MODEL 9
REMARK VINA RESULT:    -4.818      3.946      6.410
REMARK INTER + INTRA:          -6.741
REMARK INTER:                  -6.164
REMARK INTRA:                  -0.577
REMARK UNBOUND:                -0.796
REMARK  Name = 
REMARK  5 active torsions:
REMARK  status: ('A' for Active; 'I' for Inactive)
REMARK    1  A    between atoms: C_1  and  C_2
REMARK    2  A    between atoms: C_2  and  N_3
REMARK    3  A    between atoms: C_2  and  C_12
REMARK    4  A    between atoms: N_3  and  C_4
REMARK    5  A    between atoms: C_7  and  C_8
REMARK                            x       y       z     vdW  Elec       q    Type
REMARK                         _______ _______ _______ _____ _____    ______ ____
ROOT
ATOM      1  N   UNL     1      46.304   6.579  12.556  0.00  0.00    +0.000 N 
ATOM      2  H   UNL     1      46.176   5.617  12.869  0.00  0.00    +0.000 HD
ENDROOT
BRANCH   1   3
ATOM      3  C   UNL     1      47.632   6.974  12.745  0.00  0.00    +0.000 A 
ATOM      4  C   UNL     1      48.394   7.608  11.762  0.00  0.00    +0.000 A 
ATOM      5  C   UNL     1      49.687   8.079  12.029  0.00  0.00    +0.000 A 
ATOM      6  C   UNL     1      50.235   7.945  13.304  0.00  0.00    +0.000 A 
ATOM      7  C   UNL     1      49.486   7.333  14.306  0.00  0.00    +0.000 A 
ATOM      8  C   UNL     1      48.193   6.867  14.028  0.00  0.00    +0.000 A 
BRANCH   6   9
ATOM      9  C   UNL     1      51.545   8.462  13.577  0.00  0.00    +0.000 C 
ATOM     10  N   UNL     1      52.595   8.892  13.810  0.00  0.00    +0.000 NA
ENDBRANCH   6   9
ENDBRANCH   1   3
BRANCH   1  12
ATOM     11  C   UNL     1      44.267   7.539  11.473  0.00  0.00    +0.000 C 
ATOM     12  C   UNL     1      45.601   6.809  11.283  0.00  0.00    +0.000 C 
BRANCH  12  13
ATOM     13  C   UNL     1      45.339   5.446  10.647  0.00  0.00    +0.000 A 
ATOM     14  C   UNL     1      45.650   5.224   9.297  0.00  0.00    +0.000 A 
ATOM     15  C   UNL     1      45.467   3.961   8.728  0.00  0.00    +0.000 A 
ATOM     16  C   UNL     1      44.971   2.915   9.503  0.00  0.00    +0.000 A 
ATOM     17 CL   UNL     1      44.791   1.350   8.811  0.00  0.00    +0.000 Cl
ATOM     18  C   UNL     1      44.633   3.123  10.838  0.00  0.00    +0.000 A 
ATOM     19  C   UNL     1      44.813   4.383  11.406  0.00  0.00    +0.000 A 
ENDBRANCH  12  13
ENDBRANCH   1  12
TORSDOF 4
ENDMDL
