MODEL 1
REMARK VINA RESULT:    -7.891      0.000      0.000
REMARK INTER + INTRA:         -10.979
REMARK INTER:                 -10.197
REMARK INTRA:                  -0.782
REMARK UNBOUND:                -0.782
REMARK  Name = 
REMARK  7 active torsions:
REMARK  status: ('A' for Active; 'I' for Inactive)
REMARK    1  A    between atoms: C_1  and  O_2
REMARK    2  A    between atoms: O_2  and  C_3
REMARK    3  A    between atoms: C_7  and  N_8
REMARK    4  A    between atoms: N_8  and  C_9
REMARK    5  A    between atoms: C_9  and  C_10
REMARK    6  A    between atoms: C_14  and  C_15
REMARK    7  A    between atoms: C_19  and  C_20
REMARK                            x       y       z     vdW  Elec       q    Type
REMARK                         _______ _______ _______ _____ _____    ______ ____
ROOT
ATOM      1  C   UNL     1      44.039   5.600  11.250  0.00  0.00    +0.000 A 
ATOM      2  C   UNL     1      43.221   4.845  12.083  0.00  0.00    +0.000 A 
ATOM      3  C   UNL     1      43.122   3.479  11.857  0.00  0.00    +0.000 A 
ATOM      4  C   UNL     1      43.843   2.907  10.812  0.00  0.00    +0.000 A 
ATOM      5  C   UNL     1      44.647   3.715  10.009  0.00  0.00    +0.000 A 
ATOM      6  N   UNL     1      44.750   5.049  10.232  0.00  0.00    +0.000 NA
ENDROOT
BRANCH   5   7
ATOM      7  C   UNL     1      45.429   3.185   8.870  0.00  0.00    +0.000 A 
ATOM      8  C   UNL     1      45.908   4.039   7.861  0.00  0.00    +0.000 A 
ATOM      9  C   UNL     1      46.660   3.550   6.788  0.00  0.00    +0.000 A 
ATOM     10  C   UNL     1      46.944   2.188   6.698  0.00  0.00    +0.000 A 
ATOM     11  C   UNL     1      46.474   1.309   7.674  0.00  0.00    +0.000 A 
ATOM     12  C   UNL     1      46.751  -0.164   7.592  0.00  0.00    +0.000 C 
ATOM     13  C   UNL     1      45.718   1.813   8.744  0.00  0.00    +0.000 A 
ENDBRANCH   5   7
BRANCH   1  14
ATOM     14  C   UNL     1      44.161   7.095  11.459  0.00  0.00    +0.000 C 
BRANCH  14  15
ATOM     15  N   UNL     1      44.906   7.411  12.674  0.00  0.00    +0.000 N 
ATOM     16  H   UNL     1      44.500   8.135  13.259  0.00  0.00    +0.000 HD
BRANCH  15  21
ATOM     17  C   UNL     1      48.532   8.010  12.075  0.00  0.00    +0.000 A 
ATOM     18  C   UNL     1      49.014   6.859  12.683  0.00  0.00    +0.000 A 
ATOM     19  N   UNL     1      48.235   5.933  13.287  0.00  0.00    +0.000 NA
ATOM     20  C   UNL     1      46.902   6.176  13.273  0.00  0.00    +0.000 A 
ATOM     21  C   UNL     1      46.291   7.305  12.718  0.00  0.00    +0.000 A 
ATOM     22  C   UNL     1      47.153   8.215  12.095  0.00  0.00    +0.000 A 
BRANCH  17  24
ATOM     23  C   UNL     1      49.098  10.207  11.376  0.00  0.00    +0.000 C 
ATOM     24  O   UNL     1      49.460   8.835  11.504  0.00  0.00    +0.000 OA
ENDBRANCH  17  24
ENDBRANCH  15  21
ENDBRANCH  14  15
ENDBRANCH   1  14
TORSDOF 5
ENDMDL
MODEL 2
REMARK VINA RESULT:    -7.645      2.158      2.950
REMARK INTER + INTRA:         -10.661
REMARK INTER:                 -10.055
REMARK INTRA:                  -0.606
REMARK UNBOUND:                -0.782
REMARK  Name = 
REMARK  7 active torsions:
REMARK  status: ('A' for Active; 'I' for Inactive)
REMARK    1  A    between atoms: C_1  and  O_2
REMARK    2  A    between atoms: O_2  and  C_3
REMARK    3  A    between atoms: C_7  and  N_8
REMARK    4  A    between atoms: N_8  and  C_9
REMARK    5  A    between atoms: C_9  and  C_10
REMARK    6  A    between atoms: C_14  and  C_15
REMARK    7  A    between atoms: C_19  and  C_20
REMARK                            x       y       z     vdW  Elec       q    Type
REMARK                         _______ _______ _______ _____ _____    ______ ____
ROOT
ATOM      1  C   UNL     1      44.694   5.619  11.499  0.00  0.00    +0.000 A 
ATOM      2  C   UNL     1      43.570   5.071  12.110  0.00  0.00    +0.000 A 
ATOM      3  C   UNL     1      43.070   3.872  11.625  0.00  0.00    +0.000 A 
ATOM      4  C   UNL     1      43.704   3.252  10.551  0.00  0.00    +0.000 A 
ATOM      5  C   UNL     1      44.827   3.848   9.978  0.00  0.00    +0.000 A 
ATOM      6  N   UNL     1      45.322   5.018  10.455  0.00  0.00    +0.000 NA
ENDROOT
BRANCH   5   7
ATOM      7  C   UNL     1      45.544   3.262   8.826  0.00  0.00    +0.000 A 
ATOM      8  C   UNL     1      46.010   4.071   7.774  0.00  0.00    +0.000 A 
ATOM      9  C   UNL     1      46.702   3.527   6.687  0.00  0.00    +0.000 A 
ATOM     10  C   UNL     1      46.937   2.154   6.625  0.00  0.00    +0.000 A 
ATOM     11  C   UNL     1      46.478   1.319   7.644  0.00  0.00    +0.000 A 
ATOM     12  C   UNL     1      46.703  -0.165   7.594  0.00  0.00    +0.000 C 
ATOM     13  C   UNL     1      45.783   1.878   8.728  0.00  0.00    +0.000 A 
ENDBRANCH   5   7
BRANCH   1  14
ATOM     14  C   UNL     1      45.260   6.933  11.993  0.00  0.00    +0.000 C 
BRANCH  14  15
ATOM     15  N   UNL     1      46.703   6.855  12.200  0.00  0.00    +0.000 N 
ATOM     16  H   UNL     1      47.258   6.710  11.362  0.00  0.00    +0.000 HD
BRANCH  15  21
ATOM     17  C   UNL     1      47.276   4.715  15.193  0.00  0.00    +0.000 A 
ATOM     18  C   UNL     1      48.214   5.522  15.823  0.00  0.00    +0.000 A 
ATOM     19  N   UNL     1      48.677   6.687  15.318  0.00  0.00    +0.000 NA
ATOM     20  C   UNL     1      48.165   7.063  14.121  0.00  0.00    +0.000 A 
ATOM     21  C   UNL     1      47.236   6.333  13.374  0.00  0.00    +0.000 A 
ATOM     22  C   UNL     1      46.786   5.144  13.960  0.00  0.00    +0.000 A 
BRANCH  17  24
ATOM     23  C   UNL     1      47.516   3.349  17.121  0.00  0.00    +0.000 C 
ATOM     24  O   UNL     1      46.913   3.572  15.849  0.00  0.00    +0.000 OA
ENDBRANCH  17  24
ENDBRANCH  15  21
ENDBRANCH  14  15
ENDBRANCH   1  14
TORSDOF 5
ENDMDL
MODEL 3
REMARK VINA RESULT:    -7.534      2.413      6.727
REMARK INTER + INTRA:         -10.518
REMARK INTER:                  -9.937
REMARK INTRA:                  -0.581
REMARK UNBOUND:                -0.782
REMARK  Name = 
REMARK  7 active torsions:
REMARK  status: ('A' for Active; 'I' for Inactive)
REMARK    1  A    between atoms: C_1  and  O_2
REMARK    2  A    between atoms: O_2  and  C_3
REMARK    3  A    between atoms: C_7  and  N_8
REMARK    4  A    between atoms: N_8  and  C_9
REMARK    5  A    between atoms: C_9  and  C_10
REMARK    6  A    between atoms: C_14  and  C_15
REMARK    7  A    between atoms: C_19  and  C_20
REMARK                            x       y       z     vdW  Elec       q    Type
REMARK                         _______ _______ _______ _____ _____    ______ ____
ROOT
ATOM      1  C   UNL     1      44.867   4.071  12.135  0.00  0.00    +0.000 A 
ATOM      2  C   UNL     1      45.688   3.253  12.904  0.00  0.00    +0.000 A 
ATOM      3  C   UNL     1      46.783   3.821  13.539  0.00  0.00    +0.000 A 
ATOM      4  C   UNL     1      47.024   5.185  13.394  0.00  0.00    +0.000 A 
ATOM      5  C   UNL     1      46.166   5.955  12.609  0.00  0.00    +0.000 A 
ATOM      6  N   UNL     1      45.091   5.403  11.992  0.00  0.00    +0.000 NA
ENDROOT
BRANCH   5   7
ATOM      7  C   UNL     1      46.364   7.404  12.393  0.00  0.00    +0.000 A 
ATOM      8  C   UNL     1      45.278   8.298  12.427  0.00  0.00    +0.000 A 
ATOM      9  C   UNL     1      45.458   9.671  12.237  0.00  0.00    +0.000 A 
ATOM     10  C   UNL     1      46.733  10.183  12.000  0.00  0.00    +0.000 A 
ATOM     11  C   UNL     1      47.832   9.325  11.946  0.00  0.00    +0.000 A 
ATOM     12  C   UNL     1      49.214   9.847  11.676  0.00  0.00    +0.000 C 
ATOM     13  C   UNL     1      47.637   7.948  12.136  0.00  0.00    +0.000 A 
ENDBRANCH   5   7
BRANCH   1  14
ATOM     14  C   UNL     1      43.670   3.483  11.416  0.00  0.00    +0.000 C 
BRANCH  14  15
ATOM     15  N   UNL     1      44.067   2.449  10.465  0.00  0.00    +0.000 N 
ATOM     16  H   UNL     1      44.226   1.528  10.861  0.00  0.00    +0.000 HD
BRANCH  15  21
ATOM     17  C   UNL     1      46.527   2.253   7.676  0.00  0.00    +0.000 A 
ATOM     18  C   UNL     1      46.423   3.568   7.243  0.00  0.00    +0.000 A 
ATOM     19  N   UNL     1      45.591   4.485   7.785  0.00  0.00    +0.000 NA
ATOM     20  C   UNL     1      44.828   4.058   8.821  0.00  0.00    +0.000 A 
ATOM     21  C   UNL     1      44.820   2.758   9.337  0.00  0.00    +0.000 A 
ATOM     22  C   UNL     1      45.716   1.863   8.741  0.00  0.00    +0.000 A 
BRANCH  17  24
ATOM     23  C   UNL     1      48.017   2.010   5.843  0.00  0.00    +0.000 C 
ATOM     24  O   UNL     1      47.427   1.462   7.019  0.00  0.00    +0.000 OA
ENDBRANCH  17  24
ENDBRANCH  15  21
ENDBRANCH  14  15
ENDBRANCH   1  14
TORSDOF 5
ENDMDL
MODEL 4
REMARK VINA RESULT:    -7.417      1.305      1.872
REMARK INTER + INTRA:         -10.367
REMARK INTER:                  -9.535
REMARK INTRA:                  -0.832
REMARK UNBOUND:                -0.782
REMARK  Name = 
REMARK  7 active torsions:
REMARK  status: ('A' for Active; 'I' for Inactive)
REMARK    1  A    between atoms: C_1  and  O_2
REMARK    2  A    between atoms: O_2  and  C_3
REMARK    3  A    between atoms: C_7  and  N_8
REMARK    4  A    between atoms: N_8  and  C_9
REMARK    5  A    between atoms: C_9  and  C_10
REMARK    6  A    between atoms: C_14  and  C_15
REMARK    7  A    between atoms: C_19  and  C_20
REMARK                            x       y       z     vdW  Elec       q    Type
REMARK                         _______ _______ _______ _____ _____    ______ ____
ROOT
ATOM      1  C   UNL     1      44.132   5.461  11.478  0.00  0.00    +0.000 A 
ATOM      2  C   UNL     1      43.403   4.654  12.346  0.00  0.00    +0.000 A 
ATOM      3  C   UNL     1      43.349   3.290  12.096  0.00  0.00    +0.000 A 
ATOM      4  C   UNL     1      44.025   2.771  10.995  0.00  0.00    +0.000 A 
ATOM      5  C   UNL     1      44.739   3.629  10.159  0.00  0.00    +0.000 A 
ATOM      6  N   UNL     1      44.799   4.962  10.405  0.00  0.00    +0.000 NA
ENDROOT
BRANCH   5   7
ATOM      7  C   UNL     1      45.467   3.157   8.962  0.00  0.00    +0.000 A 
ATOM      8  C   UNL     1      45.893   4.059   7.970  0.00  0.00    +0.000 A 
ATOM      9  C   UNL     1      46.594   3.624   6.841  0.00  0.00    +0.000 A 
ATOM     10  C   UNL     1      46.879   2.270   6.675  0.00  0.00    +0.000 A 
ATOM     11  C   UNL     1      46.462   1.344   7.632  0.00  0.00    +0.000 A 
ATOM     12  C   UNL     1      46.741  -0.122   7.470  0.00  0.00    +0.000 C 
ATOM     13  C   UNL     1      45.756   1.794   8.760  0.00  0.00    +0.000 A 
ENDBRANCH   5   7
BRANCH   1  14
ATOM     14  C   UNL     1      44.203   6.955  11.712  0.00  0.00    +0.000 C 
BRANCH  14  15
ATOM     15  N   UNL     1      45.010   7.281  12.884  0.00  0.00    +0.000 N 
ATOM     16  H   UNL     1      44.643   8.018  13.477  0.00  0.00    +0.000 HD
BRANCH  15  21
ATOM     17  C   UNL     1      48.546   6.761  13.932  0.00  0.00    +0.000 A 
ATOM     18  C   UNL     1      49.152   7.178  12.755  0.00  0.00    +0.000 A 
ATOM     19  N   UNL     1      48.480   7.584  11.654  0.00  0.00    +0.000 NA
ATOM     20  C   UNL     1      47.128   7.576  11.746  0.00  0.00    +0.000 A 
ATOM     21  C   UNL     1      46.395   7.159  12.861  0.00  0.00    +0.000 A 
ATOM     22  C   UNL     1      47.152   6.766  13.972  0.00  0.00    +0.000 A 
BRANCH  17  24
ATOM     23  C   UNL     1      48.755   5.893  16.132  0.00  0.00    +0.000 C 
ATOM     24  O   UNL     1      49.378   6.391  14.951  0.00  0.00    +0.000 OA
ENDBRANCH  17  24
ENDBRANCH  15  21
ENDBRANCH  14  15
ENDBRANCH   1  14
TORSDOF 5
ENDMDL
MODEL 5
REMARK VINA RESULT:    -7.308      3.650      7.616
REMARK INTER + INTRA:         -10.226
REMARK INTER:                  -9.695
REMARK INTRA:                  -0.531
REMARK UNBOUND:                -0.782
REMARK  Name = 
REMARK  7 active torsions:
REMARK  status: ('A' for Active; 'I' for Inactive)
REMARK    1  A    between atoms: C_1  and  O_2
REMARK    2  A    between atoms: O_2  and  C_3
REMARK    3  A    between atoms: C_7  and  N_8
REMARK    4  A    between atoms: N_8  and  C_9
REMARK    5  A    between atoms: C_9  and  C_10
REMARK    6  A    between atoms: C_14  and  C_15
REMARK    7  A    between atoms: C_19  and  C_20
REMARK                            x       y       z     vdW  Elec       q    Type
REMARK                         _______ _______ _______ _____ _____    ______ ____
ROOT
ATOM      1  C   UNL     1      45.409   4.571  12.866  0.00  0.00    +0.000 A 
ATOM      2  C   UNL     1      45.838   5.730  12.227  0.00  0.00    +0.000 A 
ATOM      3  C   UNL     1      46.884   6.449  12.788  0.00  0.00    +0.000 A 
ATOM      4  C   UNL     1      47.473   5.991  13.963  0.00  0.00    +0.000 A 
ATOM      5  C   UNL     1      47.001   4.822  14.560  0.00  0.00    +0.000 A 
ATOM      6  N   UNL     1      45.982   4.114  14.010  0.00  0.00    +0.000 NA
ENDROOT
BRANCH   5   7
ATOM      7  C   UNL     1      47.562   4.282  15.817  0.00  0.00    +0.000 A 
ATOM      8  C   UNL     1      48.003   2.949  15.900  0.00  0.00    +0.000 A 
ATOM      9  C   UNL     1      48.548   2.433  17.079  0.00  0.00    +0.000 A 
ATOM     10  C   UNL     1      48.657   3.241  18.210  0.00  0.00    +0.000 A 
ATOM     11  C   UNL     1      48.219   4.565  18.169  0.00  0.00    +0.000 A 
ATOM     12  C   UNL     1      48.310   5.452  19.377  0.00  0.00    +0.000 C 
ATOM     13  C   UNL     1      47.671   5.070  16.979  0.00  0.00    +0.000 A 
ENDBRANCH   5   7
BRANCH   1  14
ATOM     14  C   UNL     1      44.262   3.768  12.291  0.00  0.00    +0.000 C 
BRANCH  14  15
ATOM     15  N   UNL     1      43.915   4.212  10.944  0.00  0.00    +0.000 N 
ATOM     16  H   UNL     1      42.939   4.454  10.801  0.00  0.00    +0.000 HD
BRANCH  15  21
ATOM     17  C   UNL     1      45.675   1.938   8.577  0.00  0.00    +0.000 A 
ATOM     18  C   UNL     1      46.113   2.904   7.681  0.00  0.00    +0.000 A 
ATOM     19  N   UNL     1      45.845   4.224   7.794  0.00  0.00    +0.000 NA
ATOM     20  C   UNL     1      45.105   4.592   8.868  0.00  0.00    +0.000 A 
ATOM     21  C   UNL     1      44.584   3.719   9.828  0.00  0.00    +0.000 A 
ATOM     22  C   UNL     1      44.911   2.369   9.661  0.00  0.00    +0.000 A 
BRANCH  17  24
ATOM     23  C   UNL     1      47.050   0.463   7.323  0.00  0.00    +0.000 C 
ATOM     24  O   UNL     1      46.044   0.649   8.315  0.00  0.00    +0.000 OA
ENDBRANCH  17  24
ENDBRANCH  15  21
ENDBRANCH  14  15
ENDBRANCH   1  14
TORSDOF 5
ENDMDL
MODEL 6
REMARK VINA RESULT:    -7.260      3.608      4.382
REMARK INTER + INTRA:         -10.165
REMARK INTER:                  -9.641
REMARK INTRA:                  -0.524
REMARK UNBOUND:                -0.782
REMARK  Name = 
REMARK  7 active torsions:
REMARK  status: ('A' for Active; 'I' for Inactive)
REMARK    1  A    between atoms: C_1  and  O_2
REMARK    2  A    between atoms: O_2  and  C_3
REMARK    3  A    between atoms: C_7  and  N_8
REMARK    4  A    between atoms: N_8  and  C_9
REMARK    5  A    between atoms: C_9  and  C_10
REMARK    6  A    between atoms: C_14  and  C_15
REMARK    7  A    between atoms: C_19  and  C_20
REMARK                            x       y       z     vdW  Elec       q    Type
REMARK                         _______ _______ _______ _____ _____    ______ ____
ROOT
ATOM      1  C   UNL     1      45.303   4.669  12.884  0.00  0.00    +0.000 A 
ATOM      2  C   UNL     1      43.945   4.806  13.154  0.00  0.00    +0.000 A 
ATOM      3  C   UNL     1      43.035   4.490  12.155  0.00  0.00    +0.000 A 
ATOM      4  C   UNL     1      43.503   4.042  10.923  0.00  0.00    +0.000 A 
ATOM      5  C   UNL     1      44.876   3.924  10.709  0.00  0.00    +0.000 A 
ATOM      6  N   UNL     1      45.768   4.228  11.686  0.00  0.00    +0.000 NA
ENDROOT
BRANCH   5   7
ATOM      7  C   UNL     1      45.450   3.473   9.423  0.00  0.00    +0.000 A 
ATOM      8  C   UNL     1      45.746   4.391   8.400  0.00  0.00    +0.000 A 
ATOM      9  C   UNL     1      46.302   3.976   7.186  0.00  0.00    +0.000 A 
ATOM     10  C   UNL     1      46.568   2.625   6.966  0.00  0.00    +0.000 A 
ATOM     11  C   UNL     1      46.275   1.684   7.953  0.00  0.00    +0.000 A 
ATOM     12  C   UNL     1      46.535   0.222   7.735  0.00  0.00    +0.000 C 
ATOM     13  C   UNL     1      45.714   2.114   9.166  0.00  0.00    +0.000 A 
ENDBRANCH   5   7
BRANCH   1  14
ATOM     14  C   UNL     1      46.326   5.018  13.944  0.00  0.00    +0.000 C 
BRANCH  14  15
ATOM     15  N   UNL     1      46.072   4.307  15.194  0.00  0.00    +0.000 N 
ATOM     16  H   UNL     1      45.194   4.529  15.653  0.00  0.00    +0.000 HD
BRANCH  15  21
ATOM     17  C   UNL     1      49.038   2.554  16.608  0.00  0.00    +0.000 A 
ATOM     18  C   UNL     1      48.997   3.113  17.878  0.00  0.00    +0.000 A 
ATOM     19  N   UNL     1      48.088   4.031  18.277  0.00  0.00    +0.000 NA
ATOM     20  C   UNL     1      47.169   4.400  17.352  0.00  0.00    +0.000 A 
ATOM     21  C   UNL     1      47.114   3.933  16.035  0.00  0.00    +0.000 A 
ATOM     22  C   UNL     1      48.074   2.974  15.691  0.00  0.00    +0.000 A 
BRANCH  17  24
ATOM     23  C   UNL     1      51.110   1.620  17.293  0.00  0.00    +0.000 C 
ATOM     24  O   UNL     1      50.021   1.633  16.376  0.00  0.00    +0.000 OA
ENDBRANCH  17  24
ENDBRANCH  15  21
ENDBRANCH  14  15
ENDBRANCH   1  14
TORSDOF 5
ENDMDL
MODEL 7
REMARK VINA RESULT:    -6.337      3.636      5.594
REMARK INTER + INTRA:          -8.972
REMARK INTER:                  -8.299
REMARK INTRA:                  -0.673
REMARK UNBOUND:                -0.782
REMARK  Name = 
REMARK  7 active torsions:
REMARK  status: ('A' for Active; 'I' for Inactive)
REMARK    1  A    between atoms: C_1  and  O_2
REMARK    2  A    between atoms: O_2  and  C_3
REMARK    3  A    between atoms: C_7  and  N_8
REMARK    4  A    between atoms: N_8  and  C_9
REMARK    5  A    between atoms: C_9  and  C_10
REMARK    6  A    between atoms: C_14  and  C_15
REMARK    7  A    between atoms: C_19  and  C_20
REMARK                            x       y       z     vdW  Elec       q    Type
REMARK                         _______ _______ _______ _____ _____    ______ ____
ROOT
ATOM      1  C   UNL     1      47.442   7.257  13.793  0.00  0.00    +0.000 A 
ATOM      2  C   UNL     1      47.003   8.563  13.604  0.00  0.00    +0.000 A 
ATOM      3  C   UNL     1      45.908   8.782  12.780  0.00  0.00    +0.000 A 
ATOM      4  C   UNL     1      45.281   7.697  12.175  0.00  0.00    +0.000 A 
ATOM      5  C   UNL     1      45.766   6.409  12.401  0.00  0.00    +0.000 A 
ATOM      6  N   UNL     1      46.832   6.191  13.211  0.00  0.00    +0.000 NA
ENDROOT
BRANCH   5   7
ATOM      7  C   UNL     1      45.165   5.207  11.782  0.00  0.00    +0.000 A 
ATOM      8  C   UNL     1      44.530   4.228  12.566  0.00  0.00    +0.000 A 
ATOM      9  C   UNL     1      43.947   3.096  11.988  0.00  0.00    +0.000 A 
ATOM     10  C   UNL     1      43.995   2.914  10.607  0.00  0.00    +0.000 A 
ATOM     11  C   UNL     1      44.630   3.858   9.798  0.00  0.00    +0.000 A 
ATOM     12  C   UNL     1      44.710   3.678   8.310  0.00  0.00    +0.000 C 
ATOM     13  C   UNL     1      45.212   4.989  10.392  0.00  0.00    +0.000 A 
ENDBRANCH   5   7
BRANCH   1  14
ATOM     14  C   UNL     1      48.642   6.980  14.674  0.00  0.00    +0.000 C 
BRANCH  14  15
ATOM     15  N   UNL     1      48.243   6.623  16.033  0.00  0.00    +0.000 N 
ATOM     16  H   UNL     1      48.204   7.393  16.693  0.00  0.00    +0.000 HD
BRANCH  15  21
ATOM     17  C   UNL     1      50.116   3.771  17.525  0.00  0.00    +0.000 A 
ATOM     18  C   UNL     1      49.121   2.811  17.404  0.00  0.00    +0.000 A 
ATOM     19  N   UNL     1      47.890   3.049  16.897  0.00  0.00    +0.000 NA
ATOM     20  C   UNL     1      47.651   4.317  16.485  0.00  0.00    +0.000 A 
ATOM     21  C   UNL     1      48.556   5.380  16.572  0.00  0.00    +0.000 A 
ATOM     22  C   UNL     1      49.816   5.063  17.092  0.00  0.00    +0.000 A 
BRANCH  17  24
ATOM     23  C   UNL     1      51.749   2.054  17.679  0.00  0.00    +0.000 C 
ATOM     24  O   UNL     1      51.306   3.356  18.052  0.00  0.00    +0.000 OA
ENDBRANCH  17  24
ENDBRANCH  15  21
ENDBRANCH  14  15
ENDBRANCH   1  14
TORSDOF 5
ENDMDL
MODEL 8
REMARK VINA RESULT:    -6.054      5.510      8.743
REMARK INTER + INTRA:          -8.606
REMARK INTER:                  -8.087
REMARK INTRA:                  -0.518
REMARK UNBOUND:                -0.782
REMARK  Name = 
REMARK  7 active torsions:
REMARK  status: ('A' for Active; 'I' for Inactive)
REMARK    1  A    between atoms: C_1  and  O_2
REMARK    2  A    between atoms: O_2  and  C_3
REMARK    3  A    between atoms: C_7  and  N_8
REMARK    4  A    between atoms: N_8  and  C_9
REMARK    5  A    between atoms: C_9  and  C_10
REMARK    6  A    between atoms: C_14  and  C_15
REMARK    7  A    between atoms: C_19  and  C_20
REMARK                            x       y       z     vdW  Elec       q    Type
REMARK                         _______ _______ _______ _____ _____    ______ ____
ROOT
ATOM      1  C   UNL     1      48.003   4.278  16.722  0.00  0.00    +0.000 A 
ATOM      2  C   UNL     1      47.590   5.090  17.773  0.00  0.00    +0.000 A 
ATOM      3  C   UNL     1      48.415   5.211  18.882  0.00  0.00    +0.000 A 
ATOM      4  C   UNL     1      49.627   4.526  18.908  0.00  0.00    +0.000 A 
ATOM      5  C   UNL     1      49.989   3.726  17.825  0.00  0.00    +0.000 A 
ATOM      6  N   UNL     1      49.186   3.611  16.737  0.00  0.00    +0.000 NA
ENDROOT
BRANCH   5   7
ATOM      7  C   UNL     1      51.250   2.955  17.785  0.00  0.00    +0.000 A 
ATOM      8  C   UNL     1      51.262   1.607  17.381  0.00  0.00    +0.000 A 
ATOM      9  C   UNL     1      52.452   0.874  17.327  0.00  0.00    +0.000 A 
ATOM     10  C   UNL     1      53.658   1.473  17.685  0.00  0.00    +0.000 A 
ATOM     11  C   UNL     1      53.683   2.803  18.104  0.00  0.00    +0.000 A 
ATOM     12  C   UNL     1      54.966   3.468  18.510  0.00  0.00    +0.000 C 
ATOM     13  C   UNL     1      52.481   3.528  18.155  0.00  0.00    +0.000 A 
ENDBRANCH   5   7
BRANCH   1  14
ATOM     14  C   UNL     1      47.122   4.111  15.502  0.00  0.00    +0.000 C 
BRANCH  14  15
ATOM     15  N   UNL     1      47.058   5.337  14.710  0.00  0.00    +0.000 N 
ATOM     16  H   UNL     1      47.094   6.202  15.240  0.00  0.00    +0.000 HD
BRANCH  15  21
ATOM     17  C   UNL     1      45.167   4.344  11.659  0.00  0.00    +0.000 A 
ATOM     18  C   UNL     1      45.147   5.586  11.040  0.00  0.00    +0.000 A 
ATOM     19  N   UNL     1      45.684   6.709  11.568  0.00  0.00    +0.000 NA
ATOM     20  C   UNL     1      46.276   6.574  12.779  0.00  0.00    +0.000 A 
ATOM     21  C   UNL     1      46.344   5.388  13.518  0.00  0.00    +0.000 A 
ATOM     22  C   UNL     1      45.783   4.260  12.908  0.00  0.00    +0.000 A 
BRANCH  17  24
ATOM     23  C   UNL     1      43.350   2.824  11.499  0.00  0.00    +0.000 C 
ATOM     24  O   UNL     1      44.584   3.312  10.980  0.00  0.00    +0.000 OA
ENDBRANCH  17  24
ENDBRANCH  15  21
ENDBRANCH  14  15
ENDBRANCH   1  14
TORSDOF 5
ENDMDL
MODEL 9
REMARK VINA RESULT:    -5.842      4.937      9.235
REMARK INTER + INTRA:          -8.331
REMARK INTER:                  -7.693
REMARK INTRA:                  -0.639
REMARK UNBOUND:                -0.782
REMARK  Name = 
REMARK  7 active torsions:
REMARK  status: ('A' for Active; 'I' for Inactive)
REMARK    1  A    between atoms: C_1  and  O_2
REMARK    2  A    between atoms: O_2  and  C_3
REMARK    3  A    between atoms: C_7  and  N_8
REMARK    4  A    between atoms: N_8  and  C_9
REMARK    5  A    between atoms: C_9  and  C_10
REMARK    6  A    between atoms: C_14  and  C_15
REMARK    7  A    between atoms: C_19  and  C_20
REMARK                            x       y       z     vdW  Elec       q    Type
REMARK                         _______ _______ _______ _____ _____    ______ ____
ROOT
ATOM      1  C   UNL     1      47.699   4.014  16.243  0.00  0.00    +0.000 A 
ATOM      2  C   UNL     1      48.341   2.874  16.713  0.00  0.00    +0.000 A 
ATOM      3  C   UNL     1      48.852   2.884  18.004  0.00  0.00    +0.000 A 
ATOM      4  C   UNL     1      48.703   4.025  18.787  0.00  0.00    +0.000 A 
ATOM      5  C   UNL     1      48.050   5.139  18.262  0.00  0.00    +0.000 A 
ATOM      6  N   UNL     1      47.544   5.130  17.003  0.00  0.00    +0.000 NA
ENDROOT
BRANCH   5   7
ATOM      7  C   UNL     1      47.867   6.393  19.025  0.00  0.00    +0.000 A 
ATOM      8  C   UNL     1      47.607   6.369  20.407  0.00  0.00    +0.000 A 
ATOM      9  C   UNL     1      47.447   7.550  21.139  0.00  0.00    +0.000 A 
ATOM     10  C   UNL     1      47.537   8.786  20.500  0.00  0.00    +0.000 A 
ATOM     11  C   UNL     1      47.781   8.848  19.128  0.00  0.00    +0.000 A 
ATOM     12  C   UNL     1      47.866  10.165  18.412  0.00  0.00    +0.000 C 
ATOM     13  C   UNL     1      47.937   7.655  18.404  0.00  0.00    +0.000 A 
ENDBRANCH   5   7
BRANCH   1  14
ATOM     14  C   UNL     1      47.141   4.045  14.836  0.00  0.00    +0.000 C 
BRANCH  14  15
ATOM     15  N   UNL     1      46.821   5.405  14.412  0.00  0.00    +0.000 N 
ATOM     16  H   UNL     1      46.936   6.122  15.120  0.00  0.00    +0.000 HD
BRANCH  15  21
ATOM     17  C   UNL     1      44.128   4.924  11.885  0.00  0.00    +0.000 A 
ATOM     18  C   UNL     1      44.081   6.228  11.412  0.00  0.00    +0.000 A 
ATOM     19  N   UNL     1      44.847   7.237  11.883  0.00  0.00    +0.000 NA
ATOM     20  C   UNL     1      45.709   6.916  12.878  0.00  0.00    +0.000 A 
ATOM     21  C   UNL     1      45.838   5.650  13.459  0.00  0.00    +0.000 A 
ATOM     22  C   UNL     1      45.027   4.647  12.914  0.00  0.00    +0.000 A 
BRANCH  17  24
ATOM     23  C   UNL     1      43.342   2.686  11.771  0.00  0.00    +0.000 C 
ATOM     24  O   UNL     1      43.289   4.025  11.288  0.00  0.00    +0.000 OA
ENDBRANCH  17  24
ENDBRANCH  15  21
ENDBRANCH  14  15
ENDBRANCH   1  14
TORSDOF 5
ENDMDL
