MODEL 1
REMARK VINA RESULT:    -7.444      0.000      0.000
REMARK INTER + INTRA:          -9.566
REMARK INTER:                  -9.184
REMARK INTRA:                  -0.382
REMARK UNBOUND:                -0.382
REMARK  Name = 
REMARK  4 active torsions:
REMARK  status: ('A' for Active; 'I' for Inactive)
REMARK    1  A    between atoms: C_2  and  C_3
REMARK    2  A    between atoms: C_6  and  N_7
REMARK    3  A    between atoms: N_7  and  C_8
REMARK    4  A    between atoms: C_8  and  C_9
REMARK                            x       y       z     vdW  Elec       q    Type
REMARK                         _______ _______ _______ _____ _____    ______ ____
ROOT
ATOM      1  N   UNL     1      43.849   4.710   9.864  0.00  0.00    +0.000 N 
ATOM      2  H   UNL     1      43.284   5.381   9.357  0.00  0.00    +0.000 HD
ENDROOT
BRANCH   1   6
ATOM      3  C   UNL     1      46.615   2.713   7.577  0.00  0.00    +0.000 A 
ATOM      4  C   UNL     1      46.534   4.091   7.535  0.00  0.00    +0.000 A 
ATOM      5  N   UNL     1      45.646   4.786   8.280  0.00  0.00    +0.000 NA
ATOM      6  C   UNL     1      44.813   4.077   9.071  0.00  0.00    +0.000 A 
ATOM      7  C   UNL     1      44.927   2.683   9.113  0.00  0.00    +0.000 A 
ATOM      8  N   UNL     1      45.816   1.968   8.376  0.00  0.00    +0.000 NA
BRANCH   3  10
ATOM      9  N   UNL     1      48.347   1.490   6.085  0.00  0.00    +0.000 NA
ATOM     10  C   UNL     1      47.559   2.012   6.754  0.00  0.00    +0.000 C 
ENDBRANCH   3  10
ENDBRANCH   1   6
BRANCH   1  11
ATOM     11  C   UNL     1      43.906   4.829  11.324  0.00  0.00    +0.000 C 
ATOM     12  C   UNL     1      43.282   3.732  12.174  0.00  0.00    +0.000 C 
ATOM     13  C   UNL     1      42.721   5.114  12.235  0.00  0.00    +0.000 C 
BRANCH  11  14
ATOM     14  C   UNL     1      45.221   5.428  11.801  0.00  0.00    +0.000 A 
ATOM     15  C   UNL     1      45.585   6.726  11.408  0.00  0.00    +0.000 A 
ATOM     16  C   UNL     1      46.629   7.399  12.041  0.00  0.00    +0.000 A 
ATOM     17  C   UNL     1      47.349   6.765  13.048  0.00  0.00    +0.000 A 
ATOM     18  C   UNL     1      47.078   5.438  13.373  0.00  0.00    +0.000 A 
ATOM     19  C   UNL     1      46.035   4.768  12.735  0.00  0.00    +0.000 A 
ENDBRANCH  11  14
ENDBRANCH   1  11
TORSDOF 4
ENDMDL
MODEL 2
REMARK VINA RESULT:    -6.125      2.932      5.692
REMARK INTER + INTRA:          -7.939
REMARK INTER:                  -7.768
REMARK INTRA:                  -0.171
REMARK UNBOUND:                -0.382
REMARK  Name = 
REMARK  4 active torsions:
REMARK  status: ('A' for Active; 'I' for Inactive)
REMARK    1  A    between atoms: C_2  and  C_3
REMARK    2  A    between atoms: C_6  and  N_7
REMARK    3  A    between atoms: N_7  and  C_8
REMARK    4  A    between atoms: C_8  and  C_9
REMARK                            x       y       z     vdW  Elec       q    Type
REMARK                         _______ _______ _______ _____ _____    ______ ____
ROOT
ATOM      1  N   UNL     1      45.282   4.162  12.450  0.00  0.00    +0.000 N 
ATOM      2  H   UNL     1      45.413   3.185  12.683  0.00  0.00    +0.000 HD
ENDROOT
BRANCH   1   6
ATOM      3  C   UNL     1      48.348   6.489  13.884  0.00  0.00    +0.000 A 
ATOM      4  C   UNL     1      47.824   6.717  12.626  0.00  0.00    +0.000 A 
ATOM      5  N   UNL     1      46.808   5.981  12.122  0.00  0.00    +0.000 NA
ATOM      6  C   UNL     1      46.322   4.988  12.895  0.00  0.00    +0.000 A 
ATOM      7  C   UNL     1      46.854   4.789  14.174  0.00  0.00    +0.000 A 
ATOM      8  N   UNL     1      47.871   5.520  14.698  0.00  0.00    +0.000 NA
BRANCH   3  10
ATOM      9  N   UNL     1      50.330   7.885  14.804  0.00  0.00    +0.000 NA
ATOM     10  C   UNL     1      49.441   7.281  14.372  0.00  0.00    +0.000 C 
ENDBRANCH   3  10
ENDBRANCH   1   6
BRANCH   1  11
ATOM     11  C   UNL     1      44.356   4.489  11.362  0.00  0.00    +0.000 C 
ATOM     12  C   UNL     1      43.714   5.868  11.334  0.00  0.00    +0.000 C 
ATOM     13  C   UNL     1      42.851   4.662  11.504  0.00  0.00    +0.000 C 
BRANCH  11  14
ATOM     14  C   UNL     1      44.795   3.889  10.034  0.00  0.00    +0.000 A 
ATOM     15  C   UNL     1      45.364   4.711   9.047  0.00  0.00    +0.000 A 
ATOM     16  C   UNL     1      46.021   4.158   7.949  0.00  0.00    +0.000 A 
ATOM     17  C   UNL     1      46.082   2.777   7.804  0.00  0.00    +0.000 A 
ATOM     18  C   UNL     1      45.425   1.948   8.710  0.00  0.00    +0.000 A 
ATOM     19  C   UNL     1      44.766   2.505   9.805  0.00  0.00    +0.000 A 
ENDBRANCH  11  14
ENDBRANCH   1  11
TORSDOF 4
ENDMDL
MODEL 3
REMARK VINA RESULT:    -6.119      3.604      6.339
REMARK INTER + INTRA:          -7.932
REMARK INTER:                  -7.797
REMARK INTRA:                  -0.134
REMARK UNBOUND:                -0.382
REMARK  Name = 
REMARK  4 active torsions:
REMARK  status: ('A' for Active; 'I' for Inactive)
REMARK    1  A    between atoms: C_2  and  C_3
REMARK    2  A    between atoms: C_6  and  N_7
REMARK    3  A    between atoms: N_7  and  C_8
REMARK    4  A    between atoms: C_8  and  C_9
REMARK                            x       y       z     vdW  Elec       q    Type
REMARK                         _______ _______ _______ _____ _____    ______ ____
ROOT
ATOM      1  N   UNL     1      45.780   3.659  13.135  0.00  0.00    +0.000 N 
ATOM      2  H   UNL     1      46.178   2.805  12.765  0.00  0.00    +0.000 HD
ENDROOT
BRANCH   1   6
ATOM      3  C   UNL     1      48.335   5.803  15.533  0.00  0.00    +0.000 A 
ATOM      4  C   UNL     1      47.616   4.742  16.047  0.00  0.00    +0.000 A 
ATOM      5  N   UNL     1      46.774   4.004  15.289  0.00  0.00    +0.000 NA
ATOM      6  C   UNL     1      46.643   4.354  13.992  0.00  0.00    +0.000 A 
ATOM      7  C   UNL     1      47.397   5.419  13.488  0.00  0.00    +0.000 A 
ATOM      8  N   UNL     1      48.251   6.168  14.233  0.00  0.00    +0.000 NA
BRANCH   3  10
ATOM      9  N   UNL     1      49.935   7.154  17.062  0.00  0.00    +0.000 NA
ATOM     10  C   UNL     1      49.203   6.573  16.378  0.00  0.00    +0.000 C 
ENDBRANCH   3  10
ENDBRANCH   1   6
BRANCH   1  11
ATOM     11  C   UNL     1      44.648   4.254  12.419  0.00  0.00    +0.000 C 
ATOM     12  C   UNL     1      44.093   5.586  12.901  0.00  0.00    +0.000 C 
ATOM     13  C   UNL     1      43.227   4.370  12.952  0.00  0.00    +0.000 C 
BRANCH  11  14
ATOM     14  C   UNL     1      44.736   4.030  10.917  0.00  0.00    +0.000 A 
ATOM     15  C   UNL     1      45.279   5.027  10.089  0.00  0.00    +0.000 A 
ATOM     16  C   UNL     1      45.626   4.749   8.768  0.00  0.00    +0.000 A 
ATOM     17  C   UNL     1      45.398   3.480   8.246  0.00  0.00    +0.000 A 
ATOM     18  C   UNL     1      44.756   2.513   9.016  0.00  0.00    +0.000 A 
ATOM     19  C   UNL     1      44.407   2.796  10.335  0.00  0.00    +0.000 A 
ENDBRANCH  11  14
ENDBRANCH   1  11
TORSDOF 4
ENDMDL
MODEL 4
REMARK VINA RESULT:    -5.942      2.536      5.773
REMARK INTER + INTRA:          -7.714
REMARK INTER:                  -8.035
REMARK INTRA:                   0.321
REMARK UNBOUND:                -0.382
REMARK  Name = 
REMARK  4 active torsions:
REMARK  status: ('A' for Active; 'I' for Inactive)
REMARK    1  A    between atoms: C_2  and  C_3
REMARK    2  A    between atoms: C_6  and  N_7
REMARK    3  A    between atoms: N_7  and  C_8
REMARK    4  A    between atoms: C_8  and  C_9
REMARK                            x       y       z     vdW  Elec       q    Type
REMARK                         _______ _______ _______ _____ _____    ______ ____
ROOT
ATOM      1  N   UNL     1      44.338   5.512  10.586  0.00  0.00    +0.000 N 
ATOM      2  H   UNL     1      43.423   5.902  10.394  0.00  0.00    +0.000 HD
ENDROOT
BRANCH   1   6
ATOM      3  C   UNL     1      46.812   8.284  12.336  0.00  0.00    +0.000 A 
ATOM      4  C   UNL     1      47.289   7.031  12.003  0.00  0.00    +0.000 A 
ATOM      5  N   UNL     1      46.509   6.094  11.415  0.00  0.00    +0.000 NA
ATOM      6  C   UNL     1      45.223   6.423  11.174  0.00  0.00    +0.000 A 
ATOM      7  C   UNL     1      44.769   7.706  11.501  0.00  0.00    +0.000 A 
ATOM      8  N   UNL     1      45.537   8.660  12.087  0.00  0.00    +0.000 NA
BRANCH   3  10
ATOM      9  N   UNL     1      48.337  10.051  13.466  0.00  0.00    +0.000 NA
ATOM     10  C   UNL     1      47.667   9.242  12.978  0.00  0.00    +0.000 C 
ENDBRANCH   3  10
ENDBRANCH   1   6
BRANCH   1  11
ATOM     11  C   UNL     1      44.457   4.053  10.663  0.00  0.00    +0.000 C 
ATOM     12  C   UNL     1      43.362   3.264  11.366  0.00  0.00    +0.000 C 
ATOM     13  C   UNL     1      44.746   3.256  11.927  0.00  0.00    +0.000 C 
BRANCH  11  14
ATOM     14  C   UNL     1      45.053   3.456   9.397  0.00  0.00    +0.000 A 
ATOM     15  C   UNL     1      45.601   4.298   8.414  0.00  0.00    +0.000 A 
ATOM     16  C   UNL     1      46.392   3.780   7.390  0.00  0.00    +0.000 A 
ATOM     17  C   UNL     1      46.610   2.409   7.312  0.00  0.00    +0.000 A 
ATOM     18  C   UNL     1      45.982   1.548   8.208  0.00  0.00    +0.000 A 
ATOM     19  C   UNL     1      45.189   2.070   9.229  0.00  0.00    +0.000 A 
ENDBRANCH  11  14
ENDBRANCH   1  11
TORSDOF 4
ENDMDL
MODEL 5
REMARK VINA RESULT:    -5.907      3.095      5.852
REMARK INTER + INTRA:          -7.671
REMARK INTER:                  -7.883
REMARK INTRA:                   0.212
REMARK UNBOUND:                -0.382
REMARK  Name = 
REMARK  4 active torsions:
REMARK  status: ('A' for Active; 'I' for Inactive)
REMARK    1  A    between atoms: C_2  and  C_3
REMARK    2  A    between atoms: C_6  and  N_7
REMARK    3  A    between atoms: N_7  and  C_8
REMARK    4  A    between atoms: C_8  and  C_9
REMARK                            x       y       z     vdW  Elec       q    Type
REMARK                         _______ _______ _______ _____ _____    ______ ____
ROOT
ATOM      1  N   UNL     1      45.795   5.305  11.592  0.00  0.00    +0.000 N 
ATOM      2  H   UNL     1      46.021   6.260  11.343  0.00  0.00    +0.000 HD
ENDROOT
BRANCH   1   6
ATOM      3  C   UNL     1      47.376   3.989  15.147  0.00  0.00    +0.000 A 
ATOM      4  C   UNL     1      47.107   5.330  14.953  0.00  0.00    +0.000 A 
ATOM      5  N   UNL     1      46.576   5.802  13.802  0.00  0.00    +0.000 NA
ATOM      6  C   UNL     1      46.327   4.907  12.824  0.00  0.00    +0.000 A 
ATOM      7  C   UNL     1      46.588   3.551  13.050  0.00  0.00    +0.000 A 
ATOM      8  N   UNL     1      47.116   3.058  14.200  0.00  0.00    +0.000 NA
BRANCH   3  10
ATOM      9  N   UNL     1      48.421   3.212  17.388  0.00  0.00    +0.000 NA
ATOM     10  C   UNL     1      47.959   3.533  16.377  0.00  0.00    +0.000 C 
ENDBRANCH   3  10
ENDBRANCH   1   6
BRANCH   1  11
ATOM     11  C   UNL     1      44.648   4.679  10.928  0.00  0.00    +0.000 C 
ATOM     12  C   UNL     1      43.327   5.433  10.879  0.00  0.00    +0.000 C 
ATOM     13  C   UNL     1      43.407   4.143  11.626  0.00  0.00    +0.000 C 
BRANCH  11  14
ATOM     14  C   UNL     1      45.058   3.894   9.690  0.00  0.00    +0.000 A 
ATOM     15  C   UNL     1      45.618   4.563   8.589  0.00  0.00    +0.000 A 
ATOM     16  C   UNL     1      46.251   3.855   7.569  0.00  0.00    +0.000 A 
ATOM     17  C   UNL     1      46.295   2.466   7.617  0.00  0.00    +0.000 A 
ATOM     18  C   UNL     1      45.646   1.780   8.641  0.00  0.00    +0.000 A 
ATOM     19  C   UNL     1      45.011   2.492   9.657  0.00  0.00    +0.000 A 
ENDBRANCH  11  14
ENDBRANCH   1  11
TORSDOF 4
ENDMDL
MODEL 6
REMARK VINA RESULT:    -5.767      1.544      2.298
REMARK INTER + INTRA:          -7.498
REMARK INTER:                  -7.210
REMARK INTRA:                  -0.288
REMARK UNBOUND:                -0.382
REMARK  Name = 
REMARK  4 active torsions:
REMARK  status: ('A' for Active; 'I' for Inactive)
REMARK    1  A    between atoms: C_2  and  C_3
REMARK    2  A    between atoms: C_6  and  N_7
REMARK    3  A    between atoms: N_7  and  C_8
REMARK    4  A    between atoms: C_8  and  C_9
REMARK                            x       y       z     vdW  Elec       q    Type
REMARK                         _______ _______ _______ _____ _____    ______ ____
ROOT
ATOM      1  N   UNL     1      44.715   4.781  11.389  0.00  0.00    +0.000 N 
ATOM      2  H   UNL     1      43.786   5.184  11.384  0.00  0.00    +0.000 HD
ENDROOT
BRANCH   1   6
ATOM      3  C   UNL     1      45.971   3.472   7.704  0.00  0.00    +0.000 A 
ATOM      4  C   UNL     1      45.356   2.603   8.584  0.00  0.00    +0.000 A 
ATOM      5  N   UNL     1      44.918   2.997   9.801  0.00  0.00    +0.000 NA
ATOM      6  C   UNL     1      45.118   4.287  10.142  0.00  0.00    +0.000 A 
ATOM      7  C   UNL     1      45.724   5.154   9.226  0.00  0.00    +0.000 A 
ATOM      8  N   UNL     1      46.166   4.778   7.999  0.00  0.00    +0.000 NA
BRANCH   3  10
ATOM      9  N   UNL     1      46.822   2.683   5.386  0.00  0.00    +0.000 NA
ATOM     10  C   UNL     1      46.439   3.008   6.429  0.00  0.00    +0.000 C 
ENDBRANCH   3  10
ENDBRANCH   1   6
BRANCH   1  11
ATOM     11  C   UNL     1      45.621   5.164  12.475  0.00  0.00    +0.000 C 
ATOM     12  C   UNL     1      46.567   4.118  13.045  0.00  0.00    +0.000 C 
ATOM     13  C   UNL     1      45.512   4.705  13.922  0.00  0.00    +0.000 C 
BRANCH  11  14
ATOM     14  C   UNL     1      46.154   6.579  12.307  0.00  0.00    +0.000 A 
ATOM     15  C   UNL     1      45.302   7.679  12.501  0.00  0.00    +0.000 A 
ATOM     16  C   UNL     1      45.816   8.968  12.627  0.00  0.00    +0.000 A 
ATOM     17  C   UNL     1      47.187   9.179  12.519  0.00  0.00    +0.000 A 
ATOM     18  C   UNL     1      48.036   8.118  12.212  0.00  0.00    +0.000 A 
ATOM     19  C   UNL     1      47.517   6.831  12.084  0.00  0.00    +0.000 A 
ENDBRANCH  11  14
ENDBRANCH   1  11
TORSDOF 4
ENDMDL
MODEL 7
REMARK VINA RESULT:    -5.048      2.385      4.544
REMARK INTER + INTRA:          -6.611
REMARK INTER:                  -6.442
REMARK INTRA:                  -0.168
REMARK UNBOUND:                -0.382
REMARK  Name = 
REMARK  4 active torsions:
REMARK  status: ('A' for Active; 'I' for Inactive)
REMARK    1  A    between atoms: C_2  and  C_3
REMARK    2  A    between atoms: C_6  and  N_7
REMARK    3  A    between atoms: N_7  and  C_8
REMARK    4  A    between atoms: C_8  and  C_9
REMARK                            x       y       z     vdW  Elec       q    Type
REMARK                         _______ _______ _______ _____ _____    ______ ____
ROOT
ATOM      1  N   UNL     1      45.760   6.673  13.270  0.00  0.00    +0.000 N 
ATOM      2  H   UNL     1      44.940   7.053  13.727  0.00  0.00    +0.000 HD
ENDROOT
BRANCH   1   6
ATOM      3  C   UNL     1      44.932   3.612  10.659  0.00  0.00    +0.000 A 
ATOM      4  C   UNL     1      45.236   3.344  11.979  0.00  0.00    +0.000 A 
ATOM      5  N   UNL     1      45.503   4.323  12.873  0.00  0.00    +0.000 NA
ATOM      6  C   UNL     1      45.478   5.595  12.422  0.00  0.00    +0.000 A 
ATOM      7  C   UNL     1      45.148   5.843  11.085  0.00  0.00    +0.000 A 
ATOM      8  N   UNL     1      44.872   4.874  10.175  0.00  0.00    +0.000 NA
BRANCH   3  10
ATOM      9  N   UNL     1      44.516   1.682   8.979  0.00  0.00    +0.000 NA
ATOM     10  C   UNL     1      44.676   2.541   9.738  0.00  0.00    +0.000 C 
ENDBRANCH   3  10
ENDBRANCH   1   6
BRANCH   1  11
ATOM     11  C   UNL     1      46.951   7.522  13.184  0.00  0.00    +0.000 C 
ATOM     12  C   UNL     1      48.269   6.896  12.752  0.00  0.00    +0.000 C 
ATOM     13  C   UNL     1      48.145   7.468  14.125  0.00  0.00    +0.000 C 
BRANCH  11  14
ATOM     14  C   UNL     1      46.628   8.914  12.661  0.00  0.00    +0.000 A 
ATOM     15  C   UNL     1      47.658   9.739  12.179  0.00  0.00    +0.000 A 
ATOM     16  C   UNL     1      47.368  10.889  11.447  0.00  0.00    +0.000 A 
ATOM     17  C   UNL     1      46.045  11.252  11.224  0.00  0.00    +0.000 A 
ATOM     18  C   UNL     1      45.011  10.510  11.792  0.00  0.00    +0.000 A 
ATOM     19  C   UNL     1      45.305   9.362  12.526  0.00  0.00    +0.000 A 
ENDBRANCH  11  14
ENDBRANCH   1  11
TORSDOF 4
ENDMDL
MODEL 8
REMARK VINA RESULT:    -5.036      4.492      6.550
REMARK INTER + INTRA:          -6.595
REMARK INTER:                  -6.393
REMARK INTRA:                  -0.203
REMARK UNBOUND:                -0.382
REMARK  Name = 
REMARK  4 active torsions:
REMARK  status: ('A' for Active; 'I' for Inactive)
REMARK    1  A    between atoms: C_2  and  C_3
REMARK    2  A    between atoms: C_6  and  N_7
REMARK    3  A    between atoms: N_7  and  C_8
REMARK    4  A    between atoms: C_8  and  C_9
REMARK                            x       y       z     vdW  Elec       q    Type
REMARK                         _______ _______ _______ _____ _____    ______ ____
ROOT
ATOM      1  N   UNL     1      47.852   5.303  15.575  0.00  0.00    +0.000 N 
ATOM      2  H   UNL     1      48.570   5.962  15.302  0.00  0.00    +0.000 HD
ENDROOT
BRANCH   1   6
ATOM      3  C   UNL     1      45.547   4.102  12.395  0.00  0.00    +0.000 A 
ATOM      4  C   UNL     1      46.304   3.185  13.097  0.00  0.00    +0.000 A 
ATOM      5  N   UNL     1      47.067   3.538  14.157  0.00  0.00    +0.000 NA
ATOM      6  C   UNL     1      47.078   4.842  14.504  0.00  0.00    +0.000 A 
ATOM      7  C   UNL     1      46.286   5.749  13.790  0.00  0.00    +0.000 A 
ATOM      8  N   UNL     1      45.511   5.413  12.728  0.00  0.00    +0.000 NA
BRANCH   3  10
ATOM      9  N   UNL     1      44.095   3.359  10.379  0.00  0.00    +0.000 NA
ATOM     10  C   UNL     1      44.766   3.688  11.263  0.00  0.00    +0.000 C 
ENDBRANCH   3  10
ENDBRANCH   1   6
BRANCH   1  11
ATOM     11  C   UNL     1      48.010   4.611  16.858  0.00  0.00    +0.000 C 
ATOM     12  C   UNL     1      46.807   3.903  17.462  0.00  0.00    +0.000 C 
ATOM     13  C   UNL     1      47.415   5.060  18.184  0.00  0.00    +0.000 C 
BRANCH  11  14
ATOM     14  C   UNL     1      49.364   3.927  16.979  0.00  0.00    +0.000 A 
ATOM     15  C   UNL     1      50.499   4.674  17.337  0.00  0.00    +0.000 A 
ATOM     16  C   UNL     1      51.679   4.041  17.723  0.00  0.00    +0.000 A 
ATOM     17  C   UNL     1      51.752   2.652  17.717  0.00  0.00    +0.000 A 
ATOM     18  C   UNL     1      50.676   1.898  17.255  0.00  0.00    +0.000 A 
ATOM     19  C   UNL     1      49.499   2.535  16.866  0.00  0.00    +0.000 A 
ENDBRANCH  11  14
ENDBRANCH   1  11
TORSDOF 4
ENDMDL
MODEL 9
REMARK VINA RESULT:    -4.953      4.270      7.116
REMARK INTER + INTRA:          -6.493
REMARK INTER:                  -6.428
REMARK INTRA:                  -0.066
REMARK UNBOUND:                -0.382
REMARK  Name = 
REMARK  4 active torsions:
REMARK  status: ('A' for Active; 'I' for Inactive)
REMARK    1  A    between atoms: C_2  and  C_3
REMARK    2  A    between atoms: C_6  and  N_7
REMARK    3  A    between atoms: N_7  and  C_8
REMARK    4  A    between atoms: C_8  and  C_9
REMARK                            x       y       z     vdW  Elec       q    Type
REMARK                         _______ _______ _______ _____ _____    ______ ____
ROOT
ATOM      1  N   UNL     1      47.552   5.533  13.191  0.00  0.00    +0.000 N 
ATOM      2  H   UNL     1      48.351   5.291  12.618  0.00  0.00    +0.000 HD
ENDROOT
BRANCH   1   6
ATOM      3  C   UNL     1      48.087   4.826  17.201  0.00  0.00    +0.000 A 
ATOM      4  C   UNL     1      48.782   5.839  16.570  0.00  0.00    +0.000 A 
ATOM      5  N   UNL     1      48.626   6.111  15.254  0.00  0.00    +0.000 NA
ATOM      6  C   UNL     1      47.765   5.337  14.561  0.00  0.00    +0.000 A 
ATOM      7  C   UNL     1      47.057   4.330  15.226  0.00  0.00    +0.000 A 
ATOM      8  N   UNL     1      47.197   4.045  16.546  0.00  0.00    +0.000 NA
BRANCH   3  10
ATOM      9  N   UNL     1      48.513   4.316  19.707  0.00  0.00    +0.000 NA
ATOM     10  C   UNL     1      48.298   4.556  18.595  0.00  0.00    +0.000 C 
ENDBRANCH   3  10
ENDBRANCH   1   6
BRANCH   1  11
ATOM     11  C   UNL     1      46.545   6.430  12.616  0.00  0.00    +0.000 C 
ATOM     12  C   UNL     1      47.006   7.586  11.741  0.00  0.00    +0.000 C 
ATOM     13  C   UNL     1      46.308   7.875  13.029  0.00  0.00    +0.000 C 
BRANCH  11  14
ATOM     14  C   UNL     1      45.287   5.686  12.193  0.00  0.00    +0.000 A 
ATOM     15  C   UNL     1      44.243   5.491  13.113  0.00  0.00    +0.000 A 
ATOM     16  C   UNL     1      42.985   5.068  12.687  0.00  0.00    +0.000 A 
ATOM     17  C   UNL     1      42.767   4.794  11.342  0.00  0.00    +0.000 A 
ATOM     18  C   UNL     1      43.819   4.870  10.433  0.00  0.00    +0.000 A 
ATOM     19  C   UNL     1      45.076   5.291  10.863  0.00  0.00    +0.000 A 
ENDBRANCH  11  14
ENDBRANCH   1  11
TORSDOF 4
ENDMDL
