MODEL 1
REMARK VINA RESULT:    -8.223      0.000      0.000
REMARK INTER + INTRA:         -12.877
REMARK INTER:                 -11.588
REMARK INTRA:                  -1.289
REMARK UNBOUND:                -1.289
REMARK  Name = 
REMARK  8 active torsions:
REMARK  status: ('A' for Active; 'I' for Inactive)
REMARK    1  A    between atoms: C_1  and  O_2
REMARK    2  A    between atoms: O_2  and  C_3
REMARK    3  A    between atoms: C_5  and  C_6
REMARK    4  A    between atoms: C_6  and  N_7
REMARK    5  A    between atoms: C_8  and  C_10
REMARK    6  A    between atoms: C_22  and  C_23
REMARK    7  A    between atoms: C_23  and  N_24
REMARK    8  A    between atoms: C_25  and  C_27
REMARK                            x       y       z     vdW  Elec       q    Type
REMARK                         _______ _______ _______ _____ _____    ______ ____
ROOT
ATOM      1  C   UNL     1      44.415   5.840  11.831  0.00  0.00    +0.000 A 
ATOM      2  C   UNL     1      45.076   6.675  12.741  0.00  0.00    +0.000 A 
ATOM      3  C   UNL     1      46.350   7.187  12.462  0.00  0.00    +0.000 A 
ATOM      4  C   UNL     1      46.958   6.868  11.243  0.00  0.00    +0.000 A 
ATOM      5  C   UNL     1      46.308   6.037  10.329  0.00  0.00    +0.000 A 
ATOM      6  C   UNL     1      45.037   5.506  10.615  0.00  0.00    +0.000 A 
ENDROOT
BRANCH   1   8
ATOM      7  C   UNL     1      43.093   4.307  13.082  0.00  0.00    +0.000 C 
ATOM      8  O   UNL     1      43.180   5.290  12.055  0.00  0.00    +0.000 OA
ENDBRANCH   1   8
BRANCH   3   9
ATOM      9  C   UNL     1      47.024   8.098  13.453  0.00  0.00    +0.000 C 
BRANCH   9  10
ATOM     10  N   UNL     1      47.488   7.367  14.606  0.00  0.00    +0.000 N 
ATOM     11  C   UNL     1      48.753   6.848  14.701  0.00  0.00    +0.000 C 
ATOM     12  O   UNL     1      49.578   6.959  13.797  0.00  0.00    +0.000 OA
ATOM     13  H   UNL     1      46.780   7.083  15.275  0.00  0.00    +0.000 HD
BRANCH  11  14
ATOM     14  C   UNL     1      49.102   6.214  15.982  0.00  0.00    +0.000 A 
ATOM     15  C   UNL     1      50.139   6.732  16.741  0.00  0.00    +0.000 A 
ATOM     16  S   UNL     1      50.385   5.914  18.218  0.00  0.00    +0.000 S 
ATOM     17  C   UNL     1      49.140   4.807  17.874  0.00  0.00    +0.000 A 
ATOM     18  N   UNL     1      48.840   3.804  18.742  0.00  0.00    +0.000 NA
ATOM     19  C   UNL     1      47.901   3.015  18.341  0.00  0.00    +0.000 A 
ATOM     20  N   UNL     1      47.226   3.144  17.154  0.00  0.00    +0.000 N 
ATOM     21  C   UNL     1      47.455   4.174  16.274  0.00  0.00    +0.000 A 
ATOM     22  O   UNL     1      46.764   4.318  15.271  0.00  0.00    +0.000 OA
ATOM     23  C   UNL     1      48.530   5.070  16.660  0.00  0.00    +0.000 A 
ATOM     24  H   UNL     1      46.486   2.503  16.910  0.00  0.00    +0.000 HD
ENDBRANCH  11  14
ENDBRANCH   9  10
ENDBRANCH   3   9
BRANCH   6  25
ATOM     25  C   UNL     1      44.341   4.664   9.572  0.00  0.00    +0.000 C 
BRANCH  25  26
ATOM     26  N   UNL     1      45.293   4.146   8.611  0.00  0.00    +0.000 N 
ATOM     27  C   UNL     1      45.531   2.804   8.478  0.00  0.00    +0.000 C 
ATOM     28  O   UNL     1      45.007   1.959   9.200  0.00  0.00    +0.000 OA
ATOM     29  H   UNL     1      45.602   4.781   7.890  0.00  0.00    +0.000 HD
BRANCH  27  30
ATOM     30  C   UNL     1      46.447   2.444   7.426  0.00  0.00    +0.000 A 
ATOM     31  C   UNL     1      47.370   1.427   7.284  0.00  0.00    +0.000 A 
ATOM     32  N   UNL     1      48.006   1.490   6.071  0.00  0.00    +0.000 NA
ATOM     33  C   UNL     1      47.486   2.530   5.462  0.00  0.00    +0.000 A 
ATOM     34  N   UNL     1      46.542   3.137   6.240  0.00  0.00    +0.000 N 
ATOM     35  H   UNL     1      45.993   3.953   5.997  0.00  0.00    +0.000 HD
ENDBRANCH  27  30
ENDBRANCH  25  26
ENDBRANCH   6  25
TORSDOF 7
ENDMDL
MODEL 2
REMARK VINA RESULT:    -7.803      2.212      3.758
REMARK INTER + INTRA:         -12.286
REMARK INTER:                 -11.009
REMARK INTRA:                  -1.277
REMARK UNBOUND:                -1.289
REMARK  Name = 
REMARK  8 active torsions:
REMARK  status: ('A' for Active; 'I' for Inactive)
REMARK    1  A    between atoms: C_1  and  O_2
REMARK    2  A    between atoms: O_2  and  C_3
REMARK    3  A    between atoms: C_5  and  C_6
REMARK    4  A    between atoms: C_6  and  N_7
REMARK    5  A    between atoms: C_8  and  C_10
REMARK    6  A    between atoms: C_22  and  C_23
REMARK    7  A    between atoms: C_23  and  N_24
REMARK    8  A    between atoms: C_25  and  C_27
REMARK                            x       y       z     vdW  Elec       q    Type
REMARK                         _______ _______ _______ _____ _____    ______ ____
ROOT
ATOM      1  C   UNL     1      44.918   5.605  11.924  0.00  0.00    +0.000 A 
ATOM      2  C   UNL     1      45.653   5.644  13.116  0.00  0.00    +0.000 A 
ATOM      3  C   UNL     1      46.161   4.471  13.692  0.00  0.00    +0.000 A 
ATOM      4  C   UNL     1      45.939   3.248  13.051  0.00  0.00    +0.000 A 
ATOM      5  C   UNL     1      45.208   3.199  11.863  0.00  0.00    +0.000 A 
ATOM      6  C   UNL     1      44.681   4.371  11.292  0.00  0.00    +0.000 A 
ENDROOT
BRANCH   1   8
ATOM      7  C   UNL     1      44.944   7.972  11.672  0.00  0.00    +0.000 C 
ATOM      8  O   UNL     1      44.378   6.712  11.323  0.00  0.00    +0.000 OA
ENDBRANCH   1   8
BRANCH   3   9
ATOM      9  C   UNL     1      46.964   4.550  14.963  0.00  0.00    +0.000 C 
BRANCH   9  10
ATOM     10  N   UNL     1      47.684   5.796  15.051  0.00  0.00    +0.000 N 
ATOM     11  C   UNL     1      48.772   5.973  15.865  0.00  0.00    +0.000 C 
ATOM     12  O   UNL     1      49.202   5.080  16.590  0.00  0.00    +0.000 OA
ATOM     13  H   UNL     1      47.240   6.604  14.627  0.00  0.00    +0.000 HD
BRANCH  11  14
ATOM     14  C   UNL     1      49.454   7.274  15.768  0.00  0.00    +0.000 A 
ATOM     15  C   UNL     1      49.757   7.976  16.923  0.00  0.00    +0.000 A 
ATOM     16  S   UNL     1      50.589   9.438  16.641  0.00  0.00    +0.000 S 
ATOM     17  C   UNL     1      50.534   9.207  14.957  0.00  0.00    +0.000 A 
ATOM     18  N   UNL     1      51.064  10.129  14.109  0.00  0.00    +0.000 NA
ATOM     19  C   UNL     1      50.921   9.847  12.858  0.00  0.00    +0.000 A 
ATOM     20  N   UNL     1      50.307   8.720  12.377  0.00  0.00    +0.000 N 
ATOM     21  C   UNL     1      49.810   7.733  13.194  0.00  0.00    +0.000 A 
ATOM     22  O   UNL     1      49.358   6.692  12.731  0.00  0.00    +0.000 OA
ATOM     23  C   UNL     1      49.910   8.020  14.614  0.00  0.00    +0.000 A 
ATOM     24  H   UNL     1      50.248   8.549  11.384  0.00  0.00    +0.000 HD
ENDBRANCH  11  14
ENDBRANCH   9  10
ENDBRANCH   3   9
BRANCH   6  25
ATOM     25  C   UNL     1      43.951   4.283   9.973  0.00  0.00    +0.000 C 
BRANCH  25  26
ATOM     26  N   UNL     1      44.713   3.508   9.015  0.00  0.00    +0.000 N 
ATOM     27  C   UNL     1      45.748   4.052   8.303  0.00  0.00    +0.000 C 
ATOM     28  O   UNL     1      46.059   5.238   8.378  0.00  0.00    +0.000 OA
ATOM     29  H   UNL     1      44.609   2.504   9.056  0.00  0.00    +0.000 HD
BRANCH  27  30
ATOM     30  C   UNL     1      46.455   3.133   7.448  0.00  0.00    +0.000 A 
ATOM     31  C   UNL     1      46.774   1.793   7.560  0.00  0.00    +0.000 A 
ATOM     32  N   UNL     1      47.457   1.344   6.459  0.00  0.00    +0.000 NA
ATOM     33  C   UNL     1      47.562   2.388   5.669  0.00  0.00    +0.000 A 
ATOM     34  N   UNL     1      46.974   3.488   6.223  0.00  0.00    +0.000 N 
ATOM     35  H   UNL     1      46.914   4.412   5.813  0.00  0.00    +0.000 HD
ENDBRANCH  27  30
ENDBRANCH  25  26
ENDBRANCH   6  25
TORSDOF 7
ENDMDL
MODEL 3
REMARK VINA RESULT:    -7.774      2.037      2.562
REMARK INTER + INTRA:         -12.244
REMARK INTER:                 -10.840
REMARK INTRA:                  -1.403
REMARK UNBOUND:                -1.289
REMARK  Name = 
REMARK  8 active torsions:
REMARK  status: ('A' for Active; 'I' for Inactive)
REMARK    1  A    between atoms: C_1  and  O_2
REMARK    2  A    between atoms: O_2  and  C_3
REMARK    3  A    between atoms: C_5  and  C_6
REMARK    4  A    between atoms: C_6  and  N_7
REMARK    5  A    between atoms: C_8  and  C_10
REMARK    6  A    between atoms: C_22  and  C_23
REMARK    7  A    between atoms: C_23  and  N_24
REMARK    8  A    between atoms: C_25  and  C_27
REMARK                            x       y       z     vdW  Elec       q    Type
REMARK                         _______ _______ _______ _____ _____    ______ ____
ROOT
ATOM      1  C   UNL     1      45.850   4.803  12.710  0.00  0.00    +0.000 A 
ATOM      2  C   UNL     1      46.386   6.019  13.150  0.00  0.00    +0.000 A 
ATOM      3  C   UNL     1      45.990   7.235  12.577  0.00  0.00    +0.000 A 
ATOM      4  C   UNL     1      45.030   7.226  11.560  0.00  0.00    +0.000 A 
ATOM      5  C   UNL     1      44.489   6.019  11.115  0.00  0.00    +0.000 A 
ATOM      6  C   UNL     1      44.899   4.795  11.675  0.00  0.00    +0.000 A 
ENDROOT
BRANCH   1   8
ATOM      7  C   UNL     1      47.150   3.581  14.286  0.00  0.00    +0.000 C 
ATOM      8  O   UNL     1      46.212   3.581  13.214  0.00  0.00    +0.000 OA
ENDBRANCH   1   8
BRANCH   3   9
ATOM      9  C   UNL     1      46.571   8.527  13.088  0.00  0.00    +0.000 C 
BRANCH   9  10
ATOM     10  N   UNL     1      47.071   8.382  14.433  0.00  0.00    +0.000 N 
ATOM     11  C   UNL     1      48.063   9.173  14.950  0.00  0.00    +0.000 C 
ATOM     12  O   UNL     1      48.607  10.057  14.293  0.00  0.00    +0.000 OA
ATOM     13  H   UNL     1      46.791   7.542  14.929  0.00  0.00    +0.000 HD
BRANCH  11  14
ATOM     14  C   UNL     1      48.392   8.962  16.368  0.00  0.00    +0.000 A 
ATOM     15  C   UNL     1      48.179   9.984  17.279  0.00  0.00    +0.000 A 
ATOM     16  S   UNL     1      48.565   9.564  18.887  0.00  0.00    +0.000 S 
ATOM     17  C   UNL     1      49.073   8.011  18.416  0.00  0.00    +0.000 A 
ATOM     18  N   UNL     1      49.555   7.127  19.331  0.00  0.00    +0.000 NA
ATOM     19  C   UNL     1      49.939   6.000  18.833  0.00  0.00    +0.000 A 
ATOM     20  N   UNL     1      49.876   5.672  17.503  0.00  0.00    +0.000 N 
ATOM     21  C   UNL     1      49.343   6.508  16.552  0.00  0.00    +0.000 A 
ATOM     22  O   UNL     1      49.208   6.144  15.389  0.00  0.00    +0.000 OA
ATOM     23  C   UNL     1      48.931   7.807  17.054  0.00  0.00    +0.000 A 
ATOM     24  H   UNL     1      50.174   4.763  17.183  0.00  0.00    +0.000 HD
ENDBRANCH  11  14
ENDBRANCH   9  10
ENDBRANCH   3   9
BRANCH   6  25
ATOM     25  C   UNL     1      44.243   3.517  11.208  0.00  0.00    +0.000 C 
BRANCH  25  26
ATOM     26  N   UNL     1      45.097   2.812  10.275  0.00  0.00    +0.000 N 
ATOM     27  C   UNL     1      45.093   3.093   8.936  0.00  0.00    +0.000 C 
ATOM     28  O   UNL     1      44.328   3.909   8.427  0.00  0.00    +0.000 OA
ATOM     29  H   UNL     1      45.854   2.273  10.670  0.00  0.00    +0.000 HD
BRANCH  27  30
ATOM     30  C   UNL     1      46.054   2.360   8.152  0.00  0.00    +0.000 A 
ATOM     31  C   UNL     1      46.309   1.012   7.988  0.00  0.00    +0.000 A 
ATOM     32  N   UNL     1      47.336   0.797   7.105  0.00  0.00    +0.000 NA
ATOM     33  C   UNL     1      47.716   1.993   6.720  0.00  0.00    +0.000 A 
ATOM     34  N   UNL     1      46.972   2.966   7.324  0.00  0.00    +0.000 N 
ATOM     35  H   UNL     1      47.064   3.966   7.191  0.00  0.00    +0.000 HD
ENDBRANCH  27  30
ENDBRANCH  25  26
ENDBRANCH   6  25
TORSDOF 7
ENDMDL
MODEL 4
REMARK VINA RESULT:    -7.719      2.176      2.537
REMARK INTER + INTRA:         -12.167
REMARK INTER:                 -11.310
REMARK INTRA:                  -0.857
REMARK UNBOUND:                -1.289
REMARK  Name = 
REMARK  8 active torsions:
REMARK  status: ('A' for Active; 'I' for Inactive)
REMARK    1  A    between atoms: C_1  and  O_2
REMARK    2  A    between atoms: O_2  and  C_3
REMARK    3  A    between atoms: C_5  and  C_6
REMARK    4  A    between atoms: C_6  and  N_7
REMARK    5  A    between atoms: C_8  and  C_10
REMARK    6  A    between atoms: C_22  and  C_23
REMARK    7  A    between atoms: C_23  and  N_24
REMARK    8  A    between atoms: C_25  and  C_27
REMARK                            x       y       z     vdW  Elec       q    Type
REMARK                         _______ _______ _______ _____ _____    ______ ____
ROOT
ATOM      1  C   UNL     1      45.451   4.794  12.494  0.00  0.00    +0.000 A 
ATOM      2  C   UNL     1      46.320   5.479  13.353  0.00  0.00    +0.000 A 
ATOM      3  C   UNL     1      47.044   6.596  12.912  0.00  0.00    +0.000 A 
ATOM      4  C   UNL     1      46.876   7.038  11.596  0.00  0.00    +0.000 A 
ATOM      5  C   UNL     1      46.011   6.362  10.732  0.00  0.00    +0.000 A 
ATOM      6  C   UNL     1      45.299   5.230  11.166  0.00  0.00    +0.000 A 
ENDROOT
BRANCH   1   8
ATOM      7  C   UNL     1      43.379   3.896  13.246  0.00  0.00    +0.000 C 
ATOM      8  O   UNL     1      44.734   3.685  12.857  0.00  0.00    +0.000 OA
ENDBRANCH   1   8
BRANCH   3   9
ATOM      9  C   UNL     1      47.954   7.321  13.867  0.00  0.00    +0.000 C 
BRANCH   9  10
ATOM     10  N   UNL     1      47.886   6.752  15.190  0.00  0.00    +0.000 N 
ATOM     11  C   UNL     1      48.998   6.382  15.901  0.00  0.00    +0.000 C 
ATOM     12  O   UNL     1      50.134   6.497  15.449  0.00  0.00    +0.000 OA
ATOM     13  H   UNL     1      46.969   6.458  15.508  0.00  0.00    +0.000 HD
BRANCH  11  14
ATOM     14  C   UNL     1      48.765   5.909  17.275  0.00  0.00    +0.000 A 
ATOM     15  C   UNL     1      49.011   4.582  17.592  0.00  0.00    +0.000 A 
ATOM     16  S   UNL     1      48.738   4.207  19.234  0.00  0.00    +0.000 S 
ATOM     17  C   UNL     1      48.237   5.797  19.570  0.00  0.00    +0.000 A 
ATOM     18  N   UNL     1      47.834   6.151  20.820  0.00  0.00    +0.000 NA
ATOM     19  C   UNL     1      47.445   7.377  20.928  0.00  0.00    +0.000 A 
ATOM     20  N   UNL     1      47.431   8.285  19.900  0.00  0.00    +0.000 N 
ATOM     21  C   UNL     1      47.883   7.989  18.636  0.00  0.00    +0.000 A 
ATOM     22  O   UNL     1      47.952   8.852  17.768  0.00  0.00    +0.000 OA
ATOM     23  C   UNL     1      48.297   6.609  18.452  0.00  0.00    +0.000 A 
ATOM     24  H   UNL     1      47.134   9.236  20.057  0.00  0.00    +0.000 HD
ENDBRANCH  11  14
ENDBRANCH   9  10
ENDBRANCH   3   9
BRANCH   6  25
ATOM     25  C   UNL     1      44.326   4.567  10.219  0.00  0.00    +0.000 C 
BRANCH  25  26
ATOM     26  N   UNL     1      44.955   3.459   9.529  0.00  0.00    +0.000 N 
ATOM     27  C   UNL     1      45.715   3.643   8.406  0.00  0.00    +0.000 C 
ATOM     28  O   UNL     1      45.864   4.741   7.873  0.00  0.00    +0.000 OA
ATOM     29  H   UNL     1      45.006   2.583  10.029  0.00  0.00    +0.000 HD
BRANCH  27  30
ATOM     30  C   UNL     1      46.335   2.453   7.882  0.00  0.00    +0.000 A 
ATOM     31  C   UNL     1      47.329   2.238   6.947  0.00  0.00    +0.000 A 
ATOM     32  N   UNL     1      47.596   0.902   6.793  0.00  0.00    +0.000 NA
ATOM     33  C   UNL     1      46.782   0.290   7.623  0.00  0.00    +0.000 A 
ATOM     34  N   UNL     1      46.004   1.184   8.301  0.00  0.00    +0.000 N 
ATOM     35  H   UNL     1      45.303   0.966   8.999  0.00  0.00    +0.000 HD
ENDBRANCH  27  30
ENDBRANCH  25  26
ENDBRANCH   6  25
TORSDOF 7
ENDMDL
MODEL 5
REMARK VINA RESULT:    -7.603      2.308      2.966
REMARK INTER + INTRA:         -12.003
REMARK INTER:                 -10.839
REMARK INTRA:                  -1.164
REMARK UNBOUND:                -1.289
REMARK  Name = 
REMARK  8 active torsions:
REMARK  status: ('A' for Active; 'I' for Inactive)
REMARK    1  A    between atoms: C_1  and  O_2
REMARK    2  A    between atoms: O_2  and  C_3
REMARK    3  A    between atoms: C_5  and  C_6
REMARK    4  A    between atoms: C_6  and  N_7
REMARK    5  A    between atoms: C_8  and  C_10
REMARK    6  A    between atoms: C_22  and  C_23
REMARK    7  A    between atoms: C_23  and  N_24
REMARK    8  A    between atoms: C_25  and  C_27
REMARK                            x       y       z     vdW  Elec       q    Type
REMARK                         _______ _______ _______ _____ _____    ______ ____
ROOT
ATOM      1  C   UNL     1      45.473   4.486  12.577  0.00  0.00    +0.000 A 
ATOM      2  C   UNL     1      45.854   5.726  13.107  0.00  0.00    +0.000 A 
ATOM      3  C   UNL     1      45.362   6.925  12.571  0.00  0.00    +0.000 A 
ATOM      4  C   UNL     1      44.462   6.872  11.502  0.00  0.00    +0.000 A 
ATOM      5  C   UNL     1      44.076   5.641  10.968  0.00  0.00    +0.000 A 
ATOM      6  C   UNL     1      44.583   4.438  11.490  0.00  0.00    +0.000 A 
ENDROOT
BRANCH   1   8
ATOM      7  C   UNL     1      47.040   3.323  13.939  0.00  0.00    +0.000 C 
ATOM      8  O   UNL     1      45.935   3.283  13.041  0.00  0.00    +0.000 OA
ENDBRANCH   1   8
BRANCH   3   9
ATOM      9  C   UNL     1      45.776   8.239  13.177  0.00  0.00    +0.000 C 
BRANCH   9  10
ATOM     10  N   UNL     1      47.130   8.186  13.671  0.00  0.00    +0.000 N 
ATOM     11  C   UNL     1      48.224   8.151  12.847  0.00  0.00    +0.000 C 
ATOM     12  O   UNL     1      48.124   8.148  11.623  0.00  0.00    +0.000 OA
ATOM     13  H   UNL     1      47.241   7.984  14.659  0.00  0.00    +0.000 HD
BRANCH  11  14
ATOM     14  C   UNL     1      49.538   8.197  13.507  0.00  0.00    +0.000 A 
ATOM     15  C   UNL     1      50.541   8.995  12.980  0.00  0.00    +0.000 A 
ATOM     16  S   UNL     1      51.984   8.975  13.889  0.00  0.00    +0.000 S 
ATOM     17  C   UNL     1      51.335   7.861  14.998  0.00  0.00    +0.000 A 
ATOM     18  N   UNL     1      52.078   7.398  16.038  0.00  0.00    +0.000 NA
ATOM     19  C   UNL     1      51.476   6.531  16.780  0.00  0.00    +0.000 A 
ATOM     20  N   UNL     1      50.192   6.092  16.583  0.00  0.00    +0.000 N 
ATOM     21  C   UNL     1      49.384   6.574  15.581  0.00  0.00    +0.000 A 
ATOM     22  O   UNL     1      48.209   6.235  15.495  0.00  0.00    +0.000 OA
ATOM     23  C   UNL     1      50.027   7.525  14.693  0.00  0.00    +0.000 A 
ATOM     24  H   UNL     1      49.772   5.427  17.215  0.00  0.00    +0.000 HD
ENDBRANCH  11  14
ENDBRANCH   9  10
ENDBRANCH   3   9
BRANCH   6  25
ATOM     25  C   UNL     1      44.090   3.127  10.925  0.00  0.00    +0.000 C 
BRANCH  25  26
ATOM     26  N   UNL     1      45.069   2.556  10.022  0.00  0.00    +0.000 N 
ATOM     27  C   UNL     1      45.144   2.929   8.707  0.00  0.00    +0.000 C 
ATOM     28  O   UNL     1      44.355   3.716   8.190  0.00  0.00    +0.000 OA
ATOM     29  H   UNL     1      45.836   2.052  10.443  0.00  0.00    +0.000 HD
BRANCH  27  30
ATOM     30  C   UNL     1      46.220   2.329   7.960  0.00  0.00    +0.000 A 
ATOM     31  C   UNL     1      46.643   1.024   7.794  0.00  0.00    +0.000 A 
ATOM     32  N   UNL     1      47.725   0.948   6.956  0.00  0.00    +0.000 NA
ATOM     33  C   UNL     1      47.974   2.187   6.600  0.00  0.00    +0.000 A 
ATOM     34  N   UNL     1      47.093   3.054   7.180  0.00  0.00    +0.000 N 
ATOM     35  H   UNL     1      47.069   4.060   7.061  0.00  0.00    +0.000 HD
ENDBRANCH  27  30
ENDBRANCH  25  26
ENDBRANCH   6  25
TORSDOF 7
ENDMDL
MODEL 6
REMARK VINA RESULT:    -7.586      3.470      4.740
REMARK INTER + INTRA:         -11.979
REMARK INTER:                 -10.700
REMARK INTRA:                  -1.279
REMARK UNBOUND:                -1.289
REMARK  Name = 
REMARK  8 active torsions:
REMARK  status: ('A' for Active; 'I' for Inactive)
REMARK    1  A    between atoms: C_1  and  O_2
REMARK    2  A    between atoms: O_2  and  C_3
REMARK    3  A    between atoms: C_5  and  C_6
REMARK    4  A    between atoms: C_6  and  N_7
REMARK    5  A    between atoms: C_8  and  C_10
REMARK    6  A    between atoms: C_22  and  C_23
REMARK    7  A    between atoms: C_23  and  N_24
REMARK    8  A    between atoms: C_25  and  C_27
REMARK                            x       y       z     vdW  Elec       q    Type
REMARK                         _______ _______ _______ _____ _____    ______ ____
ROOT
ATOM      1  C   UNL     1      45.433   4.615  12.406  0.00  0.00    +0.000 A 
ATOM      2  C   UNL     1      45.713   5.903  12.880  0.00  0.00    +0.000 A 
ATOM      3  C   UNL     1      45.010   7.018  12.406  0.00  0.00    +0.000 A 
ATOM      4  C   UNL     1      44.000   6.832  11.457  0.00  0.00    +0.000 A 
ATOM      5  C   UNL     1      43.712   5.552  10.978  0.00  0.00    +0.000 A 
ATOM      6  C   UNL     1      44.429   4.433  11.438  0.00  0.00    +0.000 A 
ENDROOT
BRANCH   1   8
ATOM      7  C   UNL     1      46.997   3.635  13.909  0.00  0.00    +0.000 C 
ATOM      8  O   UNL     1      46.099   3.488  12.813  0.00  0.00    +0.000 OA
ENDBRANCH   1   8
BRANCH   3   9
ATOM      9  C   UNL     1      45.323   8.386  12.951  0.00  0.00    +0.000 C 
BRANCH   9  10
ATOM     10  N   UNL     1      46.707   8.730  12.741  0.00  0.00    +0.000 N 
ATOM     11  C   UNL     1      47.104   9.915  12.179  0.00  0.00    +0.000 C 
ATOM     12  O   UNL     1      46.302  10.764  11.800  0.00  0.00    +0.000 OA
ATOM     13  H   UNL     1      47.380   7.979  12.852  0.00  0.00    +0.000 HD
BRANCH  11  14
ATOM     14  C   UNL     1      48.555  10.156  12.124  0.00  0.00    +0.000 A 
ATOM     15  C   UNL     1      49.052  11.416  12.417  0.00  0.00    +0.000 A 
ATOM     16  S   UNL     1      50.753  11.516  12.355  0.00  0.00    +0.000 S 
ATOM     17  C   UNL     1      50.886   9.886  11.889  0.00  0.00    +0.000 A 
ATOM     18  N   UNL     1      52.102   9.328  11.644  0.00  0.00    +0.000 NA
ATOM     19  C   UNL     1      52.056   8.096  11.263  0.00  0.00    +0.000 A 
ATOM     20  N   UNL     1      50.904   7.367  11.114  0.00  0.00    +0.000 N 
ATOM     21  C   UNL     1      49.659   7.870  11.405  0.00  0.00    +0.000 A 
ATOM     22  O   UNL     1      48.660   7.161  11.359  0.00  0.00    +0.000 OA
ATOM     23  C   UNL     1      49.651   9.267  11.802  0.00  0.00    +0.000 A 
ATOM     24  H   UNL     1      50.940   6.399  10.832  0.00  0.00    +0.000 HD
ENDBRANCH  11  14
ENDBRANCH   9  10
ENDBRANCH   3   9
BRANCH   6  25
ATOM     25  C   UNL     1      44.044   3.059  10.943  0.00  0.00    +0.000 C 
BRANCH  25  26
ATOM     26  N   UNL     1      45.046   2.540  10.034  0.00  0.00    +0.000 N 
ATOM     27  C   UNL     1      45.166   3.001   8.750  0.00  0.00    +0.000 C 
ATOM     28  O   UNL     1      44.401   3.830   8.264  0.00  0.00    +0.000 OA
ATOM     29  H   UNL     1      45.794   2.000  10.442  0.00  0.00    +0.000 HD
BRANCH  27  30
ATOM     30  C   UNL     1      46.259   2.441   7.997  0.00  0.00    +0.000 A 
ATOM     31  C   UNL     1      46.715   1.150   7.810  0.00  0.00    +0.000 A 
ATOM     32  N   UNL     1      47.802   1.116   6.976  0.00  0.00    +0.000 NA
ATOM     33  C   UNL     1      48.022   2.367   6.643  0.00  0.00    +0.000 A 
ATOM     34  N   UNL     1      47.117   3.201   7.234  0.00  0.00    +0.000 N 
ATOM     35  H   UNL     1      47.068   4.208   7.133  0.00  0.00    +0.000 HD
ENDBRANCH  27  30
ENDBRANCH  25  26
ENDBRANCH   6  25
TORSDOF 7
ENDMDL
MODEL 7
REMARK VINA RESULT:    -7.184      4.084      6.043
REMARK INTER + INTRA:         -11.413
REMARK INTER:                 -10.372
REMARK INTRA:                  -1.041
REMARK UNBOUND:                -1.289
REMARK  Name = 
REMARK  8 active torsions:
REMARK  status: ('A' for Active; 'I' for Inactive)
REMARK    1  A    between atoms: C_1  and  O_2
REMARK    2  A    between atoms: O_2  and  C_3
REMARK    3  A    between atoms: C_5  and  C_6
REMARK    4  A    between atoms: C_6  and  N_7
REMARK    5  A    between atoms: C_8  and  C_10
REMARK    6  A    between atoms: C_22  and  C_23
REMARK    7  A    between atoms: C_23  and  N_24
REMARK    8  A    between atoms: C_25  and  C_27
REMARK                            x       y       z     vdW  Elec       q    Type
REMARK                         _______ _______ _______ _____ _____    ______ ____
ROOT
ATOM      1  C   UNL     1      44.522   6.269  11.986  0.00  0.00    +0.000 A 
ATOM      2  C   UNL     1      44.902   5.184  12.787  0.00  0.00    +0.000 A 
ATOM      3  C   UNL     1      46.133   5.174  13.457  0.00  0.00    +0.000 A 
ATOM      4  C   UNL     1      46.983   6.278  13.333  0.00  0.00    +0.000 A 
ATOM      5  C   UNL     1      46.613   7.364  12.537  0.00  0.00    +0.000 A 
ATOM      6  C   UNL     1      45.387   7.369  11.849  0.00  0.00    +0.000 A 
ENDROOT
BRANCH   1   8
ATOM      7  C   UNL     1      42.280   5.505  11.756  0.00  0.00    +0.000 C 
ATOM      8  O   UNL     1      43.344   6.329  11.289  0.00  0.00    +0.000 OA
ENDBRANCH   1   8
BRANCH   3   9
ATOM      9  C   UNL     1      46.502   4.002  14.326  0.00  0.00    +0.000 C 
BRANCH   9  10
ATOM     10  N   UNL     1      47.502   4.365  15.300  0.00  0.00    +0.000 N 
ATOM     11  C   UNL     1      47.464   3.940  16.602  0.00  0.00    +0.000 C 
ATOM     12  O   UNL     1      46.561   3.228  17.034  0.00  0.00    +0.000 OA
ATOM     13  H   UNL     1      48.141   5.106  15.034  0.00  0.00    +0.000 HD
BRANCH  11  14
ATOM     14  C   UNL     1      48.610   4.317  17.444  0.00  0.00    +0.000 A 
ATOM     15  C   UNL     1      48.540   5.462  18.222  0.00  0.00    +0.000 A 
ATOM     16  S   UNL     1      49.929   5.732  19.174  0.00  0.00    +0.000 S 
ATOM     17  C   UNL     1      50.695   4.350  18.546  0.00  0.00    +0.000 A 
ATOM     18  N   UNL     1      51.952   4.010  18.937  0.00  0.00    +0.000 NA
ATOM     19  C   UNL     1      52.427   2.960  18.355  0.00  0.00    +0.000 A 
ATOM     20  N   UNL     1      51.754   2.213  17.423  0.00  0.00    +0.000 N 
ATOM     21  C   UNL     1      50.463   2.483  17.040  0.00  0.00    +0.000 A 
ATOM     22  O   UNL     1      49.855   1.736  16.281  0.00  0.00    +0.000 OA
ATOM     23  C   UNL     1      49.894   3.678  17.638  0.00  0.00    +0.000 A 
ATOM     24  H   UNL     1      52.177   1.389  17.021  0.00  0.00    +0.000 HD
ENDBRANCH  11  14
ENDBRANCH   9  10
ENDBRANCH   3   9
BRANCH   6  25
ATOM     25  C   UNL     1      44.997   8.591  11.050  0.00  0.00    +0.000 C 
BRANCH  25  26
ATOM     26  N   UNL     1      43.695   9.078  11.460  0.00  0.00    +0.000 N 
ATOM     27  C   UNL     1      43.103  10.155  10.857  0.00  0.00    +0.000 C 
ATOM     28  O   UNL     1      43.654  10.815   9.980  0.00  0.00    +0.000 OA
ATOM     29  H   UNL     1      43.143   8.465  12.041  0.00  0.00    +0.000 HD
BRANCH  27  30
ATOM     30  C   UNL     1      41.777  10.468  11.325  0.00  0.00    +0.000 A 
ATOM     31  C   UNL     1      41.257  11.515  12.060  0.00  0.00    +0.000 A 
ATOM     32  N   UNL     1      39.905  11.379  12.244  0.00  0.00    +0.000 NA
ATOM     33  C   UNL     1      39.584  10.263  11.631  0.00  0.00    +0.000 A 
ATOM     34  N   UNL     1      40.679   9.679  11.063  0.00  0.00    +0.000 N 
ATOM     35  H   UNL     1      40.696   8.817  10.530  0.00  0.00    +0.000 HD
ENDBRANCH  27  30
ENDBRANCH  25  26
ENDBRANCH   6  25
TORSDOF 7
ENDMDL
MODEL 8
REMARK VINA RESULT:    -7.132      2.582      3.229
REMARK INTER + INTRA:         -11.339
REMARK INTER:                 -10.403
REMARK INTRA:                  -0.936
REMARK UNBOUND:                -1.289
REMARK  Name = 
REMARK  8 active torsions:
REMARK  status: ('A' for Active; 'I' for Inactive)
REMARK    1  A    between atoms: C_1  and  O_2
REMARK    2  A    between atoms: O_2  and  C_3
REMARK    3  A    between atoms: C_5  and  C_6
REMARK    4  A    between atoms: C_6  and  N_7
REMARK    5  A    between atoms: C_8  and  C_10
REMARK    6  A    between atoms: C_22  and  C_23
REMARK    7  A    between atoms: C_23  and  N_24
REMARK    8  A    between atoms: C_25  and  C_27
REMARK                            x       y       z     vdW  Elec       q    Type
REMARK                         _______ _______ _______ _____ _____    ______ ____
ROOT
ATOM      1  C   UNL     1      46.028   5.755  11.966  0.00  0.00    +0.000 A 
ATOM      2  C   UNL     1      46.593   5.546  13.230  0.00  0.00    +0.000 A 
ATOM      3  C   UNL     1      46.554   4.286  13.843  0.00  0.00    +0.000 A 
ATOM      4  C   UNL     1      45.954   3.220  13.166  0.00  0.00    +0.000 A 
ATOM      5  C   UNL     1      45.388   3.417  11.904  0.00  0.00    +0.000 A 
ATOM      6  C   UNL     1      45.409   4.685  11.295  0.00  0.00    +0.000 A 
ENDROOT
BRANCH   1   8
ATOM      7  C   UNL     1      45.548   8.083  12.074  0.00  0.00    +0.000 C 
ATOM      8  O   UNL     1      46.014   6.965  11.324  0.00  0.00    +0.000 OA
ENDBRANCH   1   8
BRANCH   3   9
ATOM      9  C   UNL     1      47.189   4.092  15.194  0.00  0.00    +0.000 C 
BRANCH   9  10
ATOM     10  N   UNL     1      47.410   5.354  15.856  0.00  0.00    +0.000 N 
ATOM     11  C   UNL     1      48.530   5.621  16.598  0.00  0.00    +0.000 C 
ATOM     12  O   UNL     1      49.422   4.793  16.763  0.00  0.00    +0.000 OA
ATOM     13  H   UNL     1      46.613   5.980  15.910  0.00  0.00    +0.000 HD
BRANCH  11  14
ATOM     14  C   UNL     1      48.649   6.989  17.128  0.00  0.00    +0.000 A 
ATOM     15  C   UNL     1      49.165   7.992  16.322  0.00  0.00    +0.000 A 
ATOM     16  S   UNL     1      49.191   9.526  17.067  0.00  0.00    +0.000 S 
ATOM     17  C   UNL     1      48.555   8.896  18.512  0.00  0.00    +0.000 A 
ATOM     18  N   UNL     1      48.347   9.698  19.591  0.00  0.00    +0.000 NA
ATOM     19  C   UNL     1      47.895   9.084  20.633  0.00  0.00    +0.000 A 
ATOM     20  N   UNL     1      47.623   7.741  20.691  0.00  0.00    +0.000 N 
ATOM     21  C   UNL     1      47.763   6.904  19.611  0.00  0.00    +0.000 A 
ATOM     22  O   UNL     1      47.414   5.730  19.668  0.00  0.00    +0.000 OA
ATOM     23  C   UNL     1      48.305   7.538  18.422  0.00  0.00    +0.000 A 
ATOM     24  H   UNL     1      47.251   7.327  21.533  0.00  0.00    +0.000 HD
ENDBRANCH  11  14
ENDBRANCH   9  10
ENDBRANCH   3   9
BRANCH   6  25
ATOM     25  C   UNL     1      44.843   4.841   9.904  0.00  0.00    +0.000 C 
BRANCH  25  26
ATOM     26  N   UNL     1      45.738   4.271   8.918  0.00  0.00    +0.000 N 
ATOM     27  C   UNL     1      45.521   3.034   8.372  0.00  0.00    +0.000 C 
ATOM     28  O   UNL     1      44.598   2.302   8.723  0.00  0.00    +0.000 OA
ATOM     29  H   UNL     1      46.393   4.902   8.479  0.00  0.00    +0.000 HD
BRANCH  27  30
ATOM     30  C   UNL     1      46.457   2.641   7.350  0.00  0.00    +0.000 A 
ATOM     31  C   UNL     1      47.324   1.573   7.223  0.00  0.00    +0.000 A 
ATOM     32  N   UNL     1      48.012   1.622   6.038  0.00  0.00    +0.000 NA
ATOM     33  C   UNL     1      47.580   2.703   5.432  0.00  0.00    +0.000 A 
ATOM     34  N   UNL     1      46.642   3.350   6.184  0.00  0.00    +0.000 N 
ATOM     35  H   UNL     1      46.153   4.202   5.938  0.00  0.00    +0.000 HD
ENDBRANCH  27  30
ENDBRANCH  25  26
ENDBRANCH   6  25
TORSDOF 7
ENDMDL
MODEL 9
REMARK VINA RESULT:    -7.107      2.221      2.948
REMARK INTER + INTRA:         -11.304
REMARK INTER:                 -10.362
REMARK INTRA:                  -0.941
REMARK UNBOUND:                -1.289
REMARK  Name = 
REMARK  8 active torsions:
REMARK  status: ('A' for Active; 'I' for Inactive)
REMARK    1  A    between atoms: C_1  and  O_2
REMARK    2  A    between atoms: O_2  and  C_3
REMARK    3  A    between atoms: C_5  and  C_6
REMARK    4  A    between atoms: C_6  and  N_7
REMARK    5  A    between atoms: C_8  and  C_10
REMARK    6  A    between atoms: C_22  and  C_23
REMARK    7  A    between atoms: C_23  and  N_24
REMARK    8  A    between atoms: C_25  and  C_27
REMARK                            x       y       z     vdW  Elec       q    Type
REMARK                         _______ _______ _______ _____ _____    ______ ____
ROOT
ATOM      1  C   UNL     1      44.542   5.269  11.792  0.00  0.00    +0.000 A 
ATOM      2  C   UNL     1      45.274   6.190  12.552  0.00  0.00    +0.000 A 
ATOM      3  C   UNL     1      46.358   5.780  13.340  0.00  0.00    +0.000 A 
ATOM      4  C   UNL     1      46.720   4.429  13.348  0.00  0.00    +0.000 A 
ATOM      5  C   UNL     1      45.996   3.503  12.593  0.00  0.00    +0.000 A 
ATOM      6  C   UNL     1      44.896   3.909  11.817  0.00  0.00    +0.000 A 
ENDROOT
BRANCH   1   8
ATOM      7  C   UNL     1      42.225   5.807  11.701  0.00  0.00    +0.000 C 
ATOM      8  O   UNL     1      43.460   5.603  11.020  0.00  0.00    +0.000 OA
ENDBRANCH   1   8
BRANCH   3   9
ATOM      9  C   UNL     1      47.136   6.799  14.129  0.00  0.00    +0.000 C 
BRANCH   9  10
ATOM     10  N   UNL     1      48.131   6.168  14.962  0.00  0.00    +0.000 N 
ATOM     11  C   UNL     1      48.869   6.854  15.891  0.00  0.00    +0.000 C 
ATOM     12  O   UNL     1      48.743   8.063  16.068  0.00  0.00    +0.000 OA
ATOM     13  H   UNL     1      48.402   5.225  14.705  0.00  0.00    +0.000 HD
BRANCH  11  14
ATOM     14  C   UNL     1      49.772   6.048  16.728  0.00  0.00    +0.000 A 
ATOM     15  C   UNL     1      49.241   5.141  17.631  0.00  0.00    +0.000 A 
ATOM     16  S   UNL     1      50.420   4.254  18.488  0.00  0.00    +0.000 S 
ATOM     17  C   UNL     1      51.686   5.084  17.713  0.00  0.00    +0.000 A 
ATOM     18  N   UNL     1      52.984   4.814  18.015  0.00  0.00    +0.000 NA
ATOM     19  C   UNL     1      53.842   5.542  17.382  0.00  0.00    +0.000 A 
ATOM     20  N   UNL     1      53.519   6.509  16.465  0.00  0.00    +0.000 N 
ATOM     21  C   UNL     1      52.225   6.776  16.086  0.00  0.00    +0.000 A 
ATOM     22  O   UNL     1      51.978   7.576  15.190  0.00  0.00    +0.000 OA
ATOM     23  C   UNL     1      51.218   6.010  16.798  0.00  0.00    +0.000 A 
ATOM     24  H   UNL     1      54.240   7.029  15.989  0.00  0.00    +0.000 HD
ENDBRANCH  11  14
ENDBRANCH   9  10
ENDBRANCH   3   9
BRANCH   6  25
ATOM     25  C   UNL     1      44.181   2.886  10.965  0.00  0.00    +0.000 C 
BRANCH  25  26
ATOM     26  N   UNL     1      45.065   2.356   9.948  0.00  0.00    +0.000 N 
ATOM     27  C   UNL     1      45.222   2.969   8.734  0.00  0.00    +0.000 C 
ATOM     28  O   UNL     1      44.584   3.965   8.402  0.00  0.00    +0.000 OA
ATOM     29  H   UNL     1      45.730   1.656  10.244  0.00  0.00    +0.000 HD
BRANCH  27  30
ATOM     30  C   UNL     1      46.194   2.362   7.861  0.00  0.00    +0.000 A 
ATOM     31  C   UNL     1      46.684   1.075   7.741  0.00  0.00    +0.000 A 
ATOM     32  N   UNL     1      47.605   0.979   6.730  0.00  0.00    +0.000 NA
ATOM     33  C   UNL     1      47.689   2.188   6.224  0.00  0.00    +0.000 A 
ATOM     34  N   UNL     1      46.858   3.054   6.874  0.00  0.00    +0.000 N 
ATOM     35  H   UNL     1      46.734   4.039   6.670  0.00  0.00    +0.000 HD
ENDBRANCH  27  30
ENDBRANCH  25  26
ENDBRANCH   6  25
TORSDOF 7
ENDMDL
