MODEL 1
REMARK VINA RESULT:    -7.837      0.000      0.000
REMARK INTER + INTRA:         -11.763
REMARK INTER:                 -10.586
REMARK INTRA:                  -1.177
REMARK UNBOUND:                -1.177
REMARK  Name = 
REMARK  7 active torsions:
REMARK  status: ('A' for Active; 'I' for Inactive)
REMARK    1  A    between atoms: C_1  and  N_2
REMARK    2  A    between atoms: N_2  and  C_3
REMARK    3  A    between atoms: C_3  and  C_4
REMARK    4  A    between atoms: C_7  and  C_8
REMARK    5  A    between atoms: C_8  and  C_9
REMARK    6  A    between atoms: C_9  and  C_10
REMARK    7  A    between atoms: C_19  and  C_21
REMARK                            x       y       z     vdW  Elec       q    Type
REMARK                         _______ _______ _______ _____ _____    ______ ____
ROOT
ATOM      1  C   UNL     1      46.983   6.288  12.250  0.00  0.00    +0.000 C 
ENDROOT
BRANCH   1   2
ATOM      2  C   UNL     1      47.356   5.889  13.654  0.00  0.00    +0.000 A 
ATOM      3  C   UNL     1      48.270   6.649  14.397  0.00  0.00    +0.000 A 
ATOM      4  C   UNL     1      48.651   6.246  15.678  0.00  0.00    +0.000 A 
ATOM      5  C   UNL     1      48.112   5.083  16.244  0.00  0.00    +0.000 A 
ATOM      6  C   UNL     1      47.187   4.333  15.506  0.00  0.00    +0.000 A 
ATOM      7  C   UNL     1      46.814   4.731  14.220  0.00  0.00    +0.000 A 
BRANCH   5   8
ATOM      8  C   UNL     1      48.553   4.597  17.602  0.00  0.00    +0.000 C 
BRANCH   8   9
ATOM      9  C   UNL     1      50.055   4.338  17.687  0.00  0.00    +0.000 C 
BRANCH   9  10
ATOM     10  C   UNL     1      50.382   2.891  17.371  0.00  0.00    +0.000 C 
ATOM     11  O   UNL     1      49.591   2.154  16.785  0.00  0.00    +0.000 OA
ATOM     12  N   UNL     1      51.630   2.455  17.756  0.00  0.00    +0.000 N 
ATOM     13  C   UNL     1      52.642   3.186  18.495  0.00  0.00    +0.000 C 
ATOM     14  C   UNL     1      53.937   2.584  17.983  0.00  0.00    +0.000 C 
ATOM     15  C   UNL     1      53.582   1.116  17.770  0.00  0.00    +0.000 C 
ATOM     16  C   UNL     1      52.101   1.129  17.399  0.00  0.00    +0.000 C 
ENDBRANCH   9  10
ENDBRANCH   8   9
ENDBRANCH   5   8
ENDBRANCH   1   2
BRANCH   1  18
ATOM     17  C   UNL     1      45.917   8.585  12.207  0.00  0.00    +0.000 C 
ATOM     18  N   UNL     1      45.796   7.135  12.088  0.00  0.00    +0.000 N 
ATOM     19  C   UNL     1      44.571   6.663  11.585  0.00  0.00    +0.000 C 
ATOM     20  O   UNL     1      43.665   7.438  11.286  0.00  0.00    +0.000 OA
BRANCH  19  21
ATOM     21  C   UNL     1      44.351   5.216  11.458  0.00  0.00    +0.000 A 
ATOM     22  C   UNL     1      43.610   4.454  12.348  0.00  0.00    +0.000 A 
ATOM     23  S   UNL     1      43.464   2.816  11.889  0.00  0.00    +0.000 S 
ATOM     24  C   UNL     1      44.268   3.102  10.417  0.00  0.00    +0.000 A 
ATOM     25  N   UNL     1      44.392   2.121   9.484  0.00  0.00    +0.000 NA
ATOM     26  C   UNL     1      44.959   2.504   8.387  0.00  0.00    +0.000 A 
ATOM     27  N   UNL     1      45.451   3.766   8.160  0.00  0.00    +0.000 N 
ATOM     28  C   UNL     1      45.472   4.751   9.125  0.00  0.00    +0.000 A 
ATOM     29  O   UNL     1      46.131   5.771   8.972  0.00  0.00    +0.000 OA
ATOM     30  C   UNL     1      44.728   4.404  10.326  0.00  0.00    +0.000 A 
ATOM     31  H   UNL     1      45.947   3.979   7.308  0.00  0.00    +0.000 HD
ENDBRANCH  19  21
ENDBRANCH   1  18
TORSDOF 6
ENDMDL
MODEL 2
REMARK VINA RESULT:    -7.545      3.678      8.613
REMARK INTER + INTRA:         -11.369
REMARK INTER:                 -10.289
REMARK INTRA:                  -1.079
REMARK UNBOUND:                -1.177
REMARK  Name = 
REMARK  7 active torsions:
REMARK  status: ('A' for Active; 'I' for Inactive)
REMARK    1  A    between atoms: C_1  and  N_2
REMARK    2  A    between atoms: N_2  and  C_3
REMARK    3  A    between atoms: C_3  and  C_4
REMARK    4  A    between atoms: C_7  and  C_8
REMARK    5  A    between atoms: C_8  and  C_9
REMARK    6  A    between atoms: C_9  and  C_10
REMARK    7  A    between atoms: C_19  and  C_21
REMARK                            x       y       z     vdW  Elec       q    Type
REMARK                         _______ _______ _______ _____ _____    ______ ____
ROOT
ATOM      1  C   UNL     1      47.420   7.956  13.790  0.00  0.00    +0.000 C 
ENDROOT
BRANCH   1   2
ATOM      2  C   UNL     1      46.451   7.113  13.003  0.00  0.00    +0.000 A 
ATOM      3  C   UNL     1      46.484   5.714  13.087  0.00  0.00    +0.000 A 
ATOM      4  C   UNL     1      45.619   4.936  12.316  0.00  0.00    +0.000 A 
ATOM      5  C   UNL     1      44.694   5.546  11.459  0.00  0.00    +0.000 A 
ATOM      6  C   UNL     1      44.650   6.944  11.387  0.00  0.00    +0.000 A 
ATOM      7  C   UNL     1      45.524   7.722  12.151  0.00  0.00    +0.000 A 
BRANCH   5   8
ATOM      8  C   UNL     1      43.789   4.725  10.573  0.00  0.00    +0.000 C 
BRANCH   8   9
ATOM      9  C   UNL     1      44.412   4.402   9.216  0.00  0.00    +0.000 C 
BRANCH   9  10
ATOM     10  C   UNL     1      44.954   2.985   9.185  0.00  0.00    +0.000 C 
ATOM     11  O   UNL     1      44.554   2.115   9.955  0.00  0.00    +0.000 OA
ATOM     12  N   UNL     1      45.902   2.722   8.221  0.00  0.00    +0.000 N 
ATOM     13  C   UNL     1      46.504   3.652   7.284  0.00  0.00    +0.000 C 
ATOM     14  C   UNL     1      46.819   2.772   6.089  0.00  0.00    +0.000 C 
ATOM     15  C   UNL     1      47.219   1.445   6.726  0.00  0.00    +0.000 C 
ATOM     16  C   UNL     1      46.401   1.376   8.014  0.00  0.00    +0.000 C 
ENDBRANCH   9  10
ENDBRANCH   8   9
ENDBRANCH   5   8
ENDBRANCH   1   2
BRANCH   1  18
ATOM     17  C   UNL     1      49.401   7.340  12.336  0.00  0.00    +0.000 C 
ATOM     18  N   UNL     1      48.846   7.639  13.653  0.00  0.00    +0.000 N 
ATOM     19  C   UNL     1      49.784   7.834  14.682  0.00  0.00    +0.000 C 
ATOM     20  O   UNL     1      50.991   7.739  14.469  0.00  0.00    +0.000 OA
BRANCH  19  21
ATOM     21  C   UNL     1      49.314   8.111  16.046  0.00  0.00    +0.000 A 
ATOM     22  C   UNL     1      49.287   9.369  16.626  0.00  0.00    +0.000 A 
ATOM     23  S   UNL     1      48.610   9.385  18.193  0.00  0.00    +0.000 S 
ATOM     24  C   UNL     1      48.206   7.735  18.093  0.00  0.00    +0.000 A 
ATOM     25  N   UNL     1      47.496   7.126  19.079  0.00  0.00    +0.000 NA
ATOM     26  C   UNL     1      47.199   5.893  18.831  0.00  0.00    +0.000 A 
ATOM     27  N   UNL     1      47.586   5.206  17.708  0.00  0.00    +0.000 N 
ATOM     28  C   UNL     1      48.422   5.739  16.749  0.00  0.00    +0.000 A 
ATOM     29  O   UNL     1      48.940   5.029  15.898  0.00  0.00    +0.000 OA
ATOM     30  C   UNL     1      48.671   7.161  16.923  0.00  0.00    +0.000 A 
ATOM     31  H   UNL     1      47.381   4.223  17.610  0.00  0.00    +0.000 HD
ENDBRANCH  19  21
ENDBRANCH   1  18
TORSDOF 6
ENDMDL
MODEL 3
REMARK VINA RESULT:    -7.545      2.481      8.319
REMARK INTER + INTRA:         -11.368
REMARK INTER:                 -10.368
REMARK INTRA:                  -1.000
REMARK UNBOUND:                -1.177
REMARK  Name = 
REMARK  7 active torsions:
REMARK  status: ('A' for Active; 'I' for Inactive)
REMARK    1  A    between atoms: C_1  and  N_2
REMARK    2  A    between atoms: N_2  and  C_3
REMARK    3  A    between atoms: C_3  and  C_4
REMARK    4  A    between atoms: C_7  and  C_8
REMARK    5  A    between atoms: C_8  and  C_9
REMARK    6  A    between atoms: C_9  and  C_10
REMARK    7  A    between atoms: C_19  and  C_21
REMARK                            x       y       z     vdW  Elec       q    Type
REMARK                         _______ _______ _______ _____ _____    ______ ____
ROOT
ATOM      1  C   UNL     1      48.800   6.518  14.559  0.00  0.00    +0.000 C 
ENDROOT
BRANCH   1   2
ATOM      2  C   UNL     1      47.462   6.237  13.927  0.00  0.00    +0.000 A 
ATOM      3  C   UNL     1      46.748   7.253  13.276  0.00  0.00    +0.000 A 
ATOM      4  C   UNL     1      45.486   7.001  12.739  0.00  0.00    +0.000 A 
ATOM      5  C   UNL     1      44.921   5.721  12.829  0.00  0.00    +0.000 A 
ATOM      6  C   UNL     1      45.642   4.702  13.466  0.00  0.00    +0.000 A 
ATOM      7  C   UNL     1      46.901   4.959  14.013  0.00  0.00    +0.000 A 
BRANCH   5   8
ATOM      8  C   UNL     1      43.534   5.439  12.307  0.00  0.00    +0.000 C 
BRANCH   8   9
ATOM      9  C   UNL     1      43.508   5.128  10.813  0.00  0.00    +0.000 C 
BRANCH   9  10
ATOM     10  C   UNL     1      43.855   3.676  10.547  0.00  0.00    +0.000 C 
ATOM     11  O   UNL     1      43.299   2.751  11.137  0.00  0.00    +0.000 OA
ATOM     12  N   UNL     1      44.814   3.450   9.585  0.00  0.00    +0.000 N 
ATOM     13  C   UNL     1      45.587   4.431   8.848  0.00  0.00    +0.000 C 
ATOM     14  C   UNL     1      45.851   3.734   7.526  0.00  0.00    +0.000 C 
ATOM     15  C   UNL     1      46.032   2.274   7.931  0.00  0.00    +0.000 C 
ATOM     16  C   UNL     1      45.140   2.102   9.158  0.00  0.00    +0.000 C 
ENDBRANCH   9  10
ENDBRANCH   8   9
ENDBRANCH   5   8
ENDBRANCH   1   2
BRANCH   1  18
ATOM     17  C   UNL     1      48.847   8.815  15.627  0.00  0.00    +0.000 C 
ATOM     18  N   UNL     1      48.809   7.362  15.760  0.00  0.00    +0.000 N 
ATOM     19  C   UNL     1      48.540   6.872  17.050  0.00  0.00    +0.000 C 
ATOM     20  O   UNL     1      48.368   7.637  17.998  0.00  0.00    +0.000 OA
BRANCH  19  21
ATOM     21  C   UNL     1      48.511   5.422  17.283  0.00  0.00    +0.000 A 
ATOM     22  C   UNL     1      47.365   4.644  17.243  0.00  0.00    +0.000 A 
ATOM     23  S   UNL     1      47.661   2.978  17.471  0.00  0.00    +0.000 S 
ATOM     24  C   UNL     1      49.344   3.226  17.492  0.00  0.00    +0.000 A 
ATOM     25  N   UNL     1      50.207   2.177  17.553  0.00  0.00    +0.000 NA
ATOM     26  C   UNL     1      51.453   2.514  17.486  0.00  0.00    +0.000 A 
ATOM     27  N   UNL     1      51.911   3.805  17.408  0.00  0.00    +0.000 N 
ATOM     28  C   UNL     1      51.082   4.905  17.484  0.00  0.00    +0.000 A 
ATOM     29  O   UNL     1      51.536   6.028  17.658  0.00  0.00    +0.000 OA
ATOM     30  C   UNL     1      49.668   4.570  17.428  0.00  0.00    +0.000 A 
ATOM     31  H   UNL     1      52.900   4.003  17.431  0.00  0.00    +0.000 HD
ENDBRANCH  19  21
ENDBRANCH   1  18
TORSDOF 6
ENDMDL
MODEL 4
REMARK VINA RESULT:    -7.456      3.147      8.705
REMARK INTER + INTRA:         -11.247
REMARK INTER:                 -10.325
REMARK INTRA:                  -0.922
REMARK UNBOUND:                -1.177
REMARK  Name = 
REMARK  7 active torsions:
REMARK  status: ('A' for Active; 'I' for Inactive)
REMARK    1  A    between atoms: C_1  and  N_2
REMARK    2  A    between atoms: N_2  and  C_3
REMARK    3  A    between atoms: C_3  and  C_4
REMARK    4  A    between atoms: C_7  and  C_8
REMARK    5  A    between atoms: C_8  and  C_9
REMARK    6  A    between atoms: C_9  and  C_10
REMARK    7  A    between atoms: C_19  and  C_21
REMARK                            x       y       z     vdW  Elec       q    Type
REMARK                         _______ _______ _______ _____ _____    ______ ____
ROOT
ATOM      1  C   UNL     1      48.432   6.582  13.562  0.00  0.00    +0.000 C 
ENDROOT
BRANCH   1   2
ATOM      2  C   UNL     1      47.241   6.056  12.805  0.00  0.00    +0.000 A 
ATOM      3  C   UNL     1      46.446   5.031  13.339  0.00  0.00    +0.000 A 
ATOM      4  C   UNL     1      45.376   4.512  12.611  0.00  0.00    +0.000 A 
ATOM      5  C   UNL     1      45.071   5.020  11.341  0.00  0.00    +0.000 A 
ATOM      6  C   UNL     1      45.856   6.054  10.814  0.00  0.00    +0.000 A 
ATOM      7  C   UNL     1      46.934   6.566  11.539  0.00  0.00    +0.000 A 
BRANCH   5   8
ATOM      8  C   UNL     1      43.955   4.434  10.511  0.00  0.00    +0.000 C 
BRANCH   8   9
ATOM      9  C   UNL     1      44.368   4.146   9.069  0.00  0.00    +0.000 C 
BRANCH   9  10
ATOM     10  C   UNL     1      44.999   2.772   8.943  0.00  0.00    +0.000 C 
ATOM     11  O   UNL     1      44.606   1.809   9.599  0.00  0.00    +0.000 OA
ATOM     12  N   UNL     1      46.023   2.659   8.030  0.00  0.00    +0.000 N 
ATOM     13  C   UNL     1      46.625   3.708   7.229  0.00  0.00    +0.000 C 
ATOM     14  C   UNL     1      47.073   2.968   5.982  0.00  0.00    +0.000 C 
ATOM     15  C   UNL     1      47.513   1.610   6.519  0.00  0.00    +0.000 C 
ATOM     16  C   UNL     1      46.619   1.369   7.733  0.00  0.00    +0.000 C 
ENDBRANCH   9  10
ENDBRANCH   8   9
ENDBRANCH   5   8
ENDBRANCH   1   2
BRANCH   1  18
ATOM     17  C   UNL     1      47.102   8.682  14.049  0.00  0.00    +0.000 C 
ATOM     18  N   UNL     1      48.242   7.816  14.333  0.00  0.00    +0.000 N 
ATOM     19  C   UNL     1      48.959   8.113  15.506  0.00  0.00    +0.000 C 
ATOM     20  O   UNL     1      48.639   9.058  16.224  0.00  0.00    +0.000 OA
BRANCH  19  21
ATOM     21  C   UNL     1      50.139   7.311  15.856  0.00  0.00    +0.000 A 
ATOM     22  C   UNL     1      51.448   7.701  15.626  0.00  0.00    +0.000 A 
ATOM     23  S   UNL     1      52.605   6.594  16.218  0.00  0.00    +0.000 S 
ATOM     24  C   UNL     1      51.396   5.626  16.923  0.00  0.00    +0.000 A 
ATOM     25  N   UNL     1      51.717   4.550  17.688  0.00  0.00    +0.000 NA
ATOM     26  C   UNL     1      50.699   3.955  18.218  0.00  0.00    +0.000 A 
ATOM     27  N   UNL     1      49.390   4.315  18.014  0.00  0.00    +0.000 N 
ATOM     28  C   UNL     1      49.010   5.311  17.137  0.00  0.00    +0.000 A 
ATOM     29  O   UNL     1      47.843   5.439  16.795  0.00  0.00    +0.000 OA
ATOM     30  C   UNL     1      50.127   6.088  16.623  0.00  0.00    +0.000 A 
ATOM     31  H   UNL     1      48.638   3.764  18.399  0.00  0.00    +0.000 HD
ENDBRANCH  19  21
ENDBRANCH   1  18
TORSDOF 6
ENDMDL
MODEL 5
REMARK VINA RESULT:    -7.430      3.386      8.856
REMARK INTER + INTRA:         -11.213
REMARK INTER:                 -10.070
REMARK INTRA:                  -1.144
REMARK UNBOUND:                -1.177
REMARK  Name = 
REMARK  7 active torsions:
REMARK  status: ('A' for Active; 'I' for Inactive)
REMARK    1  A    between atoms: C_1  and  N_2
REMARK    2  A    between atoms: N_2  and  C_3
REMARK    3  A    between atoms: C_3  and  C_4
REMARK    4  A    between atoms: C_7  and  C_8
REMARK    5  A    between atoms: C_8  and  C_9
REMARK    6  A    between atoms: C_9  and  C_10
REMARK    7  A    between atoms: C_19  and  C_21
REMARK                            x       y       z     vdW  Elec       q    Type
REMARK                         _______ _______ _______ _____ _____    ______ ____
ROOT
ATOM      1  C   UNL     1      47.389   7.281  14.006  0.00  0.00    +0.000 C 
ENDROOT
BRANCH   1   2
ATOM      2  C   UNL     1      46.617   6.320  13.142  0.00  0.00    +0.000 A 
ATOM      3  C   UNL     1      46.117   6.719  11.893  0.00  0.00    +0.000 A 
ATOM      4  C   UNL     1      45.358   5.841  11.120  0.00  0.00    +0.000 A 
ATOM      5  C   UNL     1      45.097   4.541  11.574  0.00  0.00    +0.000 A 
ATOM      6  C   UNL     1      45.610   4.138  12.814  0.00  0.00    +0.000 A 
ATOM      7  C   UNL     1      46.361   5.021  13.593  0.00  0.00    +0.000 A 
BRANCH   5   8
ATOM      8  C   UNL     1      44.230   3.595  10.782  0.00  0.00    +0.000 C 
BRANCH   8   9
ATOM      9  C   UNL     1      45.027   2.705   9.831  0.00  0.00    +0.000 C 
BRANCH   9  10
ATOM     10  C   UNL     1      45.167   3.347   8.464  0.00  0.00    +0.000 C 
ATOM     11  O   UNL     1      44.582   4.387   8.168  0.00  0.00    +0.000 OA
ATOM     12  N   UNL     1      46.010   2.712   7.581  0.00  0.00    +0.000 N 
ATOM     13  C   UNL     1      46.722   1.462   7.769  0.00  0.00    +0.000 C 
ATOM     14  C   UNL     1      47.964   1.647   6.917  0.00  0.00    +0.000 C 
ATOM     15  C   UNL     1      47.455   2.451   5.725  0.00  0.00    +0.000 C 
ATOM     16  C   UNL     1      46.319   3.299   6.290  0.00  0.00    +0.000 C 
ENDBRANCH   9  10
ENDBRANCH   8   9
ENDBRANCH   5   8
ENDBRANCH   1   2
BRANCH   1  18
ATOM     17  C   UNL     1      49.677   7.520  12.945  0.00  0.00    +0.000 C 
ATOM     18  N   UNL     1      48.845   7.102  14.069  0.00  0.00    +0.000 N 
ATOM     19  C   UNL     1      49.533   6.768  15.249  0.00  0.00    +0.000 C 
ATOM     20  O   UNL     1      50.760   6.815  15.305  0.00  0.00    +0.000 OA
BRANCH  19  21
ATOM     21  C   UNL     1      48.777   6.309  16.422  0.00  0.00    +0.000 A 
ATOM     22  C   UNL     1      48.387   4.998  16.640  0.00  0.00    +0.000 A 
ATOM     23  S   UNL     1      47.595   4.759  18.133  0.00  0.00    +0.000 S 
ATOM     24  C   UNL     1      47.870   6.373  18.597  0.00  0.00    +0.000 A 
ATOM     25  N   UNL     1      47.528   6.814  19.837  0.00  0.00    +0.000 NA
ATOM     26  C   UNL     1      47.865   8.039  20.073  0.00  0.00    +0.000 A 
ATOM     27  N   UNL     1      48.471   8.872  19.166  0.00  0.00    +0.000 N 
ATOM     28  C   UNL     1      48.709   8.513  17.855  0.00  0.00    +0.000 A 
ATOM     29  O   UNL     1      49.020   9.350  17.018  0.00  0.00    +0.000 OA
ATOM     30  C   UNL     1      48.466   7.105  17.586  0.00  0.00    +0.000 A 
ATOM     31  H   UNL     1      48.641   9.841  19.391  0.00  0.00    +0.000 HD
ENDBRANCH  19  21
ENDBRANCH   1  18
TORSDOF 6
ENDMDL
MODEL 6
REMARK VINA RESULT:    -7.201      2.480      3.562
REMARK INTER + INTRA:         -10.904
REMARK INTER:                  -9.445
REMARK INTRA:                  -1.459
REMARK UNBOUND:                -1.177
REMARK  Name = 
REMARK  7 active torsions:
REMARK  status: ('A' for Active; 'I' for Inactive)
REMARK    1  A    between atoms: C_1  and  N_2
REMARK    2  A    between atoms: N_2  and  C_3
REMARK    3  A    between atoms: C_3  and  C_4
REMARK    4  A    between atoms: C_7  and  C_8
REMARK    5  A    between atoms: C_8  and  C_9
REMARK    6  A    between atoms: C_9  and  C_10
REMARK    7  A    between atoms: C_19  and  C_21
REMARK                            x       y       z     vdW  Elec       q    Type
REMARK                         _______ _______ _______ _____ _____    ______ ____
ROOT
ATOM      1  C   UNL     1      47.104   6.206  12.389  0.00  0.00    +0.000 C 
ENDROOT
BRANCH   1   2
ATOM      2  C   UNL     1      47.402   5.765  13.798  0.00  0.00    +0.000 A 
ATOM      3  C   UNL     1      48.263   6.510  14.617  0.00  0.00    +0.000 A 
ATOM      4  C   UNL     1      48.576   6.068  15.903  0.00  0.00    +0.000 A 
ATOM      5  C   UNL     1      48.021   4.881  16.399  0.00  0.00    +0.000 A 
ATOM      6  C   UNL     1      47.149   4.145  15.585  0.00  0.00    +0.000 A 
ATOM      7  C   UNL     1      46.844   4.582  14.294  0.00  0.00    +0.000 A 
BRANCH   5   8
ATOM      8  C   UNL     1      48.391   4.354  17.763  0.00  0.00    +0.000 C 
BRANCH   8   9
ATOM      9  C   UNL     1      47.868   5.224  18.904  0.00  0.00    +0.000 C 
BRANCH   9  10
ATOM     10  C   UNL     1      48.947   6.152  19.426  0.00  0.00    +0.000 C 
ATOM     11  O   UNL     1      50.005   5.731  19.891  0.00  0.00    +0.000 OA
ATOM     12  N   UNL     1      48.686   7.501  19.324  0.00  0.00    +0.000 N 
ATOM     13  C   UNL     1      47.473   8.141  18.850  0.00  0.00    +0.000 C 
ATOM     14  C   UNL     1      47.985   9.444  18.263  0.00  0.00    +0.000 C 
ATOM     15  C   UNL     1      49.132   9.821  19.195  0.00  0.00    +0.000 C 
ATOM     16  C   UNL     1      49.692   8.485  19.675  0.00  0.00    +0.000 C 
ENDBRANCH   9  10
ENDBRANCH   8   9
ENDBRANCH   5   8
ENDBRANCH   1   2
BRANCH   1  18
ATOM     17  C   UNL     1      46.123   8.541  12.330  0.00  0.00    +0.000 C 
ATOM     18  N   UNL     1      45.953   7.098  12.197  0.00  0.00    +0.000 N 
ATOM     19  C   UNL     1      44.729   6.673  11.653  0.00  0.00    +0.000 C 
ATOM     20  O   UNL     1      43.860   7.482  11.331  0.00  0.00    +0.000 OA
BRANCH  19  21
ATOM     21  C   UNL     1      44.460   5.236  11.508  0.00  0.00    +0.000 A 
ATOM     22  C   UNL     1      43.710   4.485  12.399  0.00  0.00    +0.000 A 
ATOM     23  S   UNL     1      43.505   2.859  11.918  0.00  0.00    +0.000 S 
ATOM     24  C   UNL     1      44.293   3.142  10.438  0.00  0.00    +0.000 A 
ATOM     25  N   UNL     1      44.371   2.172   9.488  0.00  0.00    +0.000 NA
ATOM     26  C   UNL     1      44.932   2.553   8.388  0.00  0.00    +0.000 A 
ATOM     27  N   UNL     1      45.459   3.802   8.171  0.00  0.00    +0.000 N 
ATOM     28  C   UNL     1      45.528   4.771   9.150  0.00  0.00    +0.000 A 
ATOM     29  O   UNL     1      46.216   5.772   9.001  0.00  0.00    +0.000 OA
ATOM     30  C   UNL     1      44.793   4.429  10.358  0.00  0.00    +0.000 A 
ATOM     31  H   UNL     1      45.948   4.012   7.314  0.00  0.00    +0.000 HD
ENDBRANCH  19  21
ENDBRANCH   1  18
TORSDOF 6
ENDMDL
MODEL 7
REMARK VINA RESULT:    -7.144      3.636      8.337
REMARK INTER + INTRA:         -10.827
REMARK INTER:                  -9.670
REMARK INTRA:                  -1.157
REMARK UNBOUND:                -1.177
REMARK  Name = 
REMARK  7 active torsions:
REMARK  status: ('A' for Active; 'I' for Inactive)
REMARK    1  A    between atoms: C_1  and  N_2
REMARK    2  A    between atoms: N_2  and  C_3
REMARK    3  A    between atoms: C_3  and  C_4
REMARK    4  A    between atoms: C_7  and  C_8
REMARK    5  A    between atoms: C_8  and  C_9
REMARK    6  A    between atoms: C_9  and  C_10
REMARK    7  A    between atoms: C_19  and  C_21
REMARK                            x       y       z     vdW  Elec       q    Type
REMARK                         _______ _______ _______ _____ _____    ______ ____
ROOT
ATOM      1  C   UNL     1      48.838   7.207  12.551  0.00  0.00    +0.000 C 
ENDROOT
BRANCH   1   2
ATOM      2  C   UNL     1      47.440   6.666  12.707  0.00  0.00    +0.000 A 
ATOM      3  C   UNL     1      47.219   5.405  13.281  0.00  0.00    +0.000 A 
ATOM      4  C   UNL     1      45.927   4.887  13.375  0.00  0.00    +0.000 A 
ATOM      5  C   UNL     1      44.831   5.627  12.912  0.00  0.00    +0.000 A 
ATOM      6  C   UNL     1      45.052   6.893  12.353  0.00  0.00    +0.000 A 
ATOM      7  C   UNL     1      46.347   7.407  12.249  0.00  0.00    +0.000 A 
BRANCH   5   8
ATOM      8  C   UNL     1      43.433   5.063  12.950  0.00  0.00    +0.000 C 
BRANCH   8   9
ATOM      9  C   UNL     1      42.899   4.692  11.568  0.00  0.00    +0.000 C 
BRANCH   9  10
ATOM     10  C   UNL     1      43.404   3.330  11.132  0.00  0.00    +0.000 C 
ATOM     11  O   UNL     1      42.988   2.286  11.632  0.00  0.00    +0.000 OA
ATOM     12  N   UNL     1      44.339   3.327  10.121  0.00  0.00    +0.000 N 
ATOM     13  C   UNL     1      44.957   4.469   9.475  0.00  0.00    +0.000 C 
ATOM     14  C   UNL     1      45.243   3.954   8.076  0.00  0.00    +0.000 C 
ATOM     15  C   UNL     1      45.613   2.493   8.309  0.00  0.00    +0.000 C 
ATOM     16  C   UNL     1      44.803   2.083   9.536  0.00  0.00    +0.000 C 
ENDBRANCH   9  10
ENDBRANCH   8   9
ENDBRANCH   5   8
ENDBRANCH   1   2
BRANCH   1  18
ATOM     17  C   UNL     1      48.707   9.575  11.660  0.00  0.00    +0.000 C 
ATOM     18  N   UNL     1      49.021   8.650  12.745  0.00  0.00    +0.000 N 
ATOM     19  C   UNL     1      49.257   9.238  14.000  0.00  0.00    +0.000 C 
ATOM     20  O   UNL     1      49.214  10.458  14.150  0.00  0.00    +0.000 OA
BRANCH  19  21
ATOM     21  C   UNL     1      49.608   8.385  15.144  0.00  0.00    +0.000 A 
ATOM     22  C   UNL     1      48.693   7.867  16.046  0.00  0.00    +0.000 A 
ATOM     23  S   UNL     1      49.393   6.844  17.220  0.00  0.00    +0.000 S 
ATOM     24  C   UNL     1      50.920   6.950  16.477  0.00  0.00    +0.000 A 
ATOM     25  N   UNL     1      51.970   6.213  16.926  0.00  0.00    +0.000 NA
ATOM     26  C   UNL     1      53.045   6.339  16.219  0.00  0.00    +0.000 A 
ATOM     27  N   UNL     1      53.173   7.169  15.132  0.00  0.00    +0.000 N 
ATOM     28  C   UNL     1      52.181   8.037  14.726  0.00  0.00    +0.000 A 
ATOM     29  O   UNL     1      52.412   8.926  13.919  0.00  0.00    +0.000 OA
ATOM     30  C   UNL     1      50.915   7.832  15.411  0.00  0.00    +0.000 A 
ATOM     31  H   UNL     1      54.062   7.275  14.668  0.00  0.00    +0.000 HD
ENDBRANCH  19  21
ENDBRANCH   1  18
TORSDOF 6
ENDMDL
MODEL 8
REMARK VINA RESULT:    -6.600      3.057      8.329
REMARK INTER + INTRA:         -10.092
REMARK INTER:                  -8.930
REMARK INTRA:                  -1.162
REMARK UNBOUND:                -1.177
REMARK  Name = 
REMARK  7 active torsions:
REMARK  status: ('A' for Active; 'I' for Inactive)
REMARK    1  A    between atoms: C_1  and  N_2
REMARK    2  A    between atoms: N_2  and  C_3
REMARK    3  A    between atoms: C_3  and  C_4
REMARK    4  A    between atoms: C_7  and  C_8
REMARK    5  A    between atoms: C_8  and  C_9
REMARK    6  A    between atoms: C_9  and  C_10
REMARK    7  A    between atoms: C_19  and  C_21
REMARK                            x       y       z     vdW  Elec       q    Type
REMARK                         _______ _______ _______ _____ _____    ______ ____
ROOT
ATOM      1  C   UNL     1      49.471   8.297  16.169  0.00  0.00    +0.000 C 
ENDROOT
BRANCH   1   2
ATOM      2  C   UNL     1      48.655   7.922  14.959  0.00  0.00    +0.000 A 
ATOM      3  C   UNL     1      48.709   6.624  14.431  0.00  0.00    +0.000 A 
ATOM      4  C   UNL     1      47.993   6.297  13.280  0.00  0.00    +0.000 A 
ATOM      5  C   UNL     1      47.196   7.259  12.644  0.00  0.00    +0.000 A 
ATOM      6  C   UNL     1      47.131   8.552  13.182  0.00  0.00    +0.000 A 
ATOM      7  C   UNL     1      47.857   8.881  14.328  0.00  0.00    +0.000 A 
BRANCH   5   8
ATOM      8  C   UNL     1      46.459   6.946  11.366  0.00  0.00    +0.000 C 
BRANCH   8   9
ATOM      9  C   UNL     1      45.000   6.558  11.595  0.00  0.00    +0.000 C 
BRANCH   9  10
ATOM     10  C   UNL     1      44.849   5.058  11.759  0.00  0.00    +0.000 C 
ATOM     11  O   UNL     1      44.588   4.541  12.843  0.00  0.00    +0.000 OA
ATOM     12  N   UNL     1      44.995   4.307  10.613  0.00  0.00    +0.000 N 
ATOM     13  C   UNL     1      45.352   4.767   9.285  0.00  0.00    +0.000 C 
ATOM     14  C   UNL     1      44.653   3.768   8.381  0.00  0.00    +0.000 C 
ATOM     15  C   UNL     1      44.764   2.459   9.154  0.00  0.00    +0.000 C 
ATOM     16  C   UNL     1      44.752   2.877  10.622  0.00  0.00    +0.000 C 
ENDBRANCH   9  10
ENDBRANCH   8   9
ENDBRANCH   5   8
ENDBRANCH   1   2
BRANCH   1  18
ATOM     17  C   UNL     1      47.841   9.208  17.882  0.00  0.00    +0.000 C 
ATOM     18  N   UNL     1      48.812   8.195  17.477  0.00  0.00    +0.000 N 
ATOM     19  C   UNL     1      48.871   7.047  18.286  0.00  0.00    +0.000 C 
ATOM     20  O   UNL     1      48.154   6.930  19.278  0.00  0.00    +0.000 OA
BRANCH  19  21
ATOM     21  C   UNL     1      49.839   5.989  17.969  0.00  0.00    +0.000 A 
ATOM     22  C   UNL     1      51.195   6.057  18.246  0.00  0.00    +0.000 A 
ATOM     23  S   UNL     1      52.049   4.637  17.836  0.00  0.00    +0.000 S 
ATOM     24  C   UNL     1      50.613   3.834  17.405  0.00  0.00    +0.000 A 
ATOM     25  N   UNL     1      50.622   2.521  17.054  0.00  0.00    +0.000 NA
ATOM     26  C   UNL     1      49.449   2.027  16.825  0.00  0.00    +0.000 A 
ATOM     27  N   UNL     1      48.278   2.740  16.872  0.00  0.00    +0.000 N 
ATOM     28  C   UNL     1      48.233   4.103  17.086  0.00  0.00    +0.000 A 
ATOM     29  O   UNL     1      47.210   4.741  16.879  0.00  0.00    +0.000 OA
ATOM     30  C   UNL     1      49.513   4.671  17.476  0.00  0.00    +0.000 A 
ATOM     31  H   UNL     1      47.403   2.311  16.612  0.00  0.00    +0.000 HD
ENDBRANCH  19  21
ENDBRANCH   1  18
TORSDOF 6
ENDMDL
MODEL 9
REMARK VINA RESULT:    -6.568      1.925      2.669
REMARK INTER + INTRA:         -10.048
REMARK INTER:                  -8.966
REMARK INTRA:                  -1.083
REMARK UNBOUND:                -1.177
REMARK  Name = 
REMARK  7 active torsions:
REMARK  status: ('A' for Active; 'I' for Inactive)
REMARK    1  A    between atoms: C_1  and  N_2
REMARK    2  A    between atoms: N_2  and  C_3
REMARK    3  A    between atoms: C_3  and  C_4
REMARK    4  A    between atoms: C_7  and  C_8
REMARK    5  A    between atoms: C_8  and  C_9
REMARK    6  A    between atoms: C_9  and  C_10
REMARK    7  A    between atoms: C_19  and  C_21
REMARK                            x       y       z     vdW  Elec       q    Type
REMARK                         _______ _______ _______ _____ _____    ______ ____
ROOT
ATOM      1  C   UNL     1      47.247   6.367  12.068  0.00  0.00    +0.000 C 
ENDROOT
BRANCH   1   2
ATOM      2  C   UNL     1      48.197   6.650  13.203  0.00  0.00    +0.000 A 
ATOM      3  C   UNL     1      47.871   6.288  14.518  0.00  0.00    +0.000 A 
ATOM      4  C   UNL     1      48.731   6.599  15.572  0.00  0.00    +0.000 A 
ATOM      5  C   UNL     1      49.940   7.264  15.327  0.00  0.00    +0.000 A 
ATOM      6  C   UNL     1      50.271   7.611  14.010  0.00  0.00    +0.000 A 
ATOM      7  C   UNL     1      49.405   7.309  12.957  0.00  0.00    +0.000 A 
BRANCH   5   8
ATOM      8  C   UNL     1      50.857   7.662  16.456  0.00  0.00    +0.000 C 
BRANCH   8   9
ATOM      9  C   UNL     1      51.402   6.468  17.236  0.00  0.00    +0.000 C 
BRANCH   9  10
ATOM     10  C   UNL     1      50.502   6.118  18.405  0.00  0.00    +0.000 C 
ATOM     11  O   UNL     1      50.271   6.914  19.314  0.00  0.00    +0.000 OA
ATOM     12  N   UNL     1      49.934   4.864  18.377  0.00  0.00    +0.000 N 
ATOM     13  C   UNL     1      50.152   3.807  17.408  0.00  0.00    +0.000 C 
ATOM     14  C   UNL     1      48.829   3.064  17.412  0.00  0.00    +0.000 C 
ATOM     15  C   UNL     1      48.389   3.140  18.870  0.00  0.00    +0.000 C 
ATOM     16  C   UNL     1      48.960   4.463  19.376  0.00  0.00    +0.000 C 
ENDBRANCH   9  10
ENDBRANCH   8   9
ENDBRANCH   5   8
ENDBRANCH   1   2
BRANCH   1  18
ATOM     17  C   UNL     1      46.251   8.694  11.961  0.00  0.00    +0.000 C 
ATOM     18  N   UNL     1      46.077   7.245  11.941  0.00  0.00    +0.000 N 
ATOM     19  C   UNL     1      44.805   6.786  11.559  0.00  0.00    +0.000 C 
ATOM     20  O   UNL     1      43.902   7.573  11.279  0.00  0.00    +0.000 OA
BRANCH  19  21
ATOM     21  C   UNL     1      44.531   5.343  11.539  0.00  0.00    +0.000 A 
ATOM     22  C   UNL     1      43.842   4.661  12.529  0.00  0.00    +0.000 A 
ATOM     23  S   UNL     1      43.610   3.005  12.184  0.00  0.00    +0.000 S 
ATOM     24  C   UNL     1      44.301   3.176  10.639  0.00  0.00    +0.000 A 
ATOM     25  N   UNL     1      44.320   2.139   9.761  0.00  0.00    +0.000 NA
ATOM     26  C   UNL     1      44.807   2.436   8.601  0.00  0.00    +0.000 A 
ATOM     27  N   UNL     1      45.316   3.664   8.259  0.00  0.00    +0.000 N 
ATOM     28  C   UNL     1      45.446   4.703   9.158  0.00  0.00    +0.000 A 
ATOM     29  O   UNL     1      46.120   5.688   8.891  0.00  0.00    +0.000 OA
ATOM     30  C   UNL     1      44.791   4.453  10.432  0.00  0.00    +0.000 A 
ATOM     31  H   UNL     1      45.749   3.810   7.359  0.00  0.00    +0.000 HD
ENDBRANCH  19  21
ENDBRANCH   1  18
TORSDOF 6
ENDMDL
