MODEL 1
REMARK VINA RESULT:    -8.543      0.000      0.000
REMARK INTER + INTRA:         -13.442
REMARK INTER:                 -12.039
REMARK INTRA:                  -1.403
REMARK UNBOUND:                -1.403
REMARK  Name = 
REMARK  8 active torsions:
REMARK  status: ('A' for Active; 'I' for Inactive)
REMARK    1  A    between atoms: C_1  and  O_2
REMARK    2  A    between atoms: O_2  and  C_3
REMARK    3  A    between atoms: C_10  and  C_11
REMARK    4  A    between atoms: N_13  and  C_14
REMARK    5  A    between atoms: C_14  and  C_15
REMARK    6  A    between atoms: C_18  and  N_19
REMARK    7  A    between atoms: N_19  and  C_20
REMARK    8  A    between atoms: C_20  and  C_21
REMARK                            x       y       z     vdW  Elec       q    Type
REMARK                         _______ _______ _______ _____ _____    ______ ____
ROOT
ATOM      1  C   UNL     1      46.686   7.939  13.196  0.00  0.00    +0.000 C 
ENDROOT
BRANCH   1   2
ATOM      2  C   UNL     1      46.033   6.950  12.264  0.00  0.00    +0.000 A 
ATOM      3  C   UNL     1      46.597   6.651  11.017  0.00  0.00    +0.000 A 
ATOM      4  C   UNL     1      46.014   5.692  10.177  0.00  0.00    +0.000 A 
ATOM      5  C   UNL     1      44.860   5.007  10.566  0.00  0.00    +0.000 A 
ATOM      6  C   UNL     1      44.248   5.384  11.767  0.00  0.00    +0.000 A 
ATOM      7  C   UNL     1      44.830   6.331  12.615  0.00  0.00    +0.000 A 
BRANCH   5   8
ATOM      8  N   UNL     1      44.236   4.022   9.803  0.00  0.00    +0.000 N 
ATOM      9  H   UNL     1      43.270   3.884  10.096  0.00  0.00    +0.000 HD
BRANCH   8  10
ATOM     10  C   UNL     1      44.363   4.043   8.349  0.00  0.00    +0.000 C 
BRANCH  10  11
ATOM     11  C   UNL     1      45.483   3.114   7.948  0.00  0.00    +0.000 A 
ATOM     12  C   UNL     1      46.552   3.586   7.168  0.00  0.00    +0.000 A 
ATOM     13  C   UNL     1      47.594   2.732   6.793  0.00  0.00    +0.000 A 
ATOM     14  C   UNL     1      47.576   1.396   7.186  0.00  0.00    +0.000 A 
ATOM     15  C   UNL     1      46.512   0.911   7.945  0.00  0.00    +0.000 A 
ATOM     16  C   UNL     1      45.475   1.768   8.315  0.00  0.00    +0.000 A 
ATOM     17  F   UNL     1      44.460   1.275   9.038  0.00  0.00    +0.000 F 
ENDBRANCH  10  11
ENDBRANCH   8  10
ENDBRANCH   5   8
ENDBRANCH   1   2
BRANCH   1  20
ATOM     18  C   UNL     1      48.509   6.958  14.522  0.00  0.00    +0.000 C 
ATOM     19  O   UNL     1      49.328   7.199  13.639  0.00  0.00    +0.000 OA
ATOM     20  N   UNL     1      47.191   7.291  14.379  0.00  0.00    +0.000 N 
ATOM     21  H   UNL     1      46.520   7.033  15.089  0.00  0.00    +0.000 HD
BRANCH  18  29
ATOM     22  C   UNL     1      47.296   4.236  16.244  0.00  0.00    +0.000 A 
ATOM     23  N   UNL     1      47.046   3.218  17.093  0.00  0.00    +0.000 NA
ATOM     24  C   UNL     1      47.830   3.089  18.165  0.00  0.00    +0.000 A 
ATOM     25  N   UNL     1      48.852   3.871  18.511  0.00  0.00    +0.000 NA
ATOM     26  C   UNL     1      49.071   4.865  17.637  0.00  0.00    +0.000 A 
ATOM     27  S   UNL     1      50.335   5.965  17.918  0.00  0.00    +0.000 S 
ATOM     28  C   UNL     1      49.978   6.817  16.493  0.00  0.00    +0.000 A 
ATOM     29  C   UNL     1      48.908   6.294  15.776  0.00  0.00    +0.000 A 
ATOM     30  C   UNL     1      48.360   5.129  16.469  0.00  0.00    +0.000 A 
BRANCH  22  32
ATOM     31  C   UNL     1      47.013   3.626  14.002  0.00  0.00    +0.000 C 
ATOM     32  O   UNL     1      46.510   4.353  15.120  0.00  0.00    +0.000 OA
ENDBRANCH  22  32
ENDBRANCH  18  29
ENDBRANCH   1  20
TORSDOF 7
ENDMDL
MODEL 2
REMARK VINA RESULT:    -8.099      1.849      3.338
REMARK INTER + INTRA:         -12.817
REMARK INTER:                 -11.510
REMARK INTRA:                  -1.306
REMARK UNBOUND:                -1.403
REMARK  Name = 
REMARK  8 active torsions:
REMARK  status: ('A' for Active; 'I' for Inactive)
REMARK    1  A    between atoms: C_1  and  O_2
REMARK    2  A    between atoms: O_2  and  C_3
REMARK    3  A    between atoms: C_10  and  C_11
REMARK    4  A    between atoms: N_13  and  C_14
REMARK    5  A    between atoms: C_14  and  C_15
REMARK    6  A    between atoms: C_18  and  N_19
REMARK    7  A    between atoms: N_19  and  C_20
REMARK    8  A    between atoms: C_20  and  C_21
REMARK                            x       y       z     vdW  Elec       q    Type
REMARK                         _______ _______ _______ _____ _____    ______ ____
ROOT
ATOM      1  C   UNL     1      46.691   4.409  14.849  0.00  0.00    +0.000 C 
ENDROOT
BRANCH   1   2
ATOM      2  C   UNL     1      46.240   4.646  13.430  0.00  0.00    +0.000 A 
ATOM      3  C   UNL     1      46.435   5.886  12.808  0.00  0.00    +0.000 A 
ATOM      4  C   UNL     1      46.062   6.084  11.471  0.00  0.00    +0.000 A 
ATOM      5  C   UNL     1      45.492   5.049  10.726  0.00  0.00    +0.000 A 
ATOM      6  C   UNL     1      45.209   3.847  11.385  0.00  0.00    +0.000 A 
ATOM      7  C   UNL     1      45.589   3.637  12.714  0.00  0.00    +0.000 A 
BRANCH   5   8
ATOM      8  N   UNL     1      45.120   5.156   9.387  0.00  0.00    +0.000 N 
ATOM      9  H   UNL     1      45.868   5.561   8.827  0.00  0.00    +0.000 HD
BRANCH   8  10
ATOM     10  C   UNL     1      44.497   4.018   8.717  0.00  0.00    +0.000 C 
BRANCH  10  11
ATOM     11  C   UNL     1      45.582   3.145   8.138  0.00  0.00    +0.000 A 
ATOM     12  C   UNL     1      46.575   3.699   7.311  0.00  0.00    +0.000 A 
ATOM     13  C   UNL     1      47.585   2.898   6.771  0.00  0.00    +0.000 A 
ATOM     14  C   UNL     1      47.611   1.532   7.044  0.00  0.00    +0.000 A 
ATOM     15  C   UNL     1      46.622   0.966   7.846  0.00  0.00    +0.000 A 
ATOM     16  C   UNL     1      45.617   1.771   8.382  0.00  0.00    +0.000 A 
ATOM     17  F   UNL     1      44.673   1.201   9.144  0.00  0.00    +0.000 F 
ENDBRANCH  10  11
ENDBRANCH   8  10
ENDBRANCH   5   8
ENDBRANCH   1   2
BRANCH   1  20
ATOM     18  C   UNL     1      48.531   5.280  16.229  0.00  0.00    +0.000 C 
ATOM     19  O   UNL     1      48.759   4.165  16.688  0.00  0.00    +0.000 OA
ATOM     20  N   UNL     1      47.529   5.481  15.319  0.00  0.00    +0.000 N 
ATOM     21  H   UNL     1      47.315   6.414  14.995  0.00  0.00    +0.000 HD
BRANCH  18  29
ATOM     22  C   UNL     1      50.168   7.754  14.482  0.00  0.00    +0.000 A 
ATOM     23  N   UNL     1      50.860   8.831  14.061  0.00  0.00    +0.000 NA
ATOM     24  C   UNL     1      51.394   9.634  14.984  0.00  0.00    +0.000 A 
ATOM     25  N   UNL     1      51.331   9.489  16.307  0.00  0.00    +0.000 NA
ATOM     26  C   UNL     1      50.627   8.410  16.684  0.00  0.00    +0.000 A 
ATOM     27  S   UNL     1      50.442   8.065  18.337  0.00  0.00    +0.000 S 
ATOM     28  C   UNL     1      49.514   6.684  17.996  0.00  0.00    +0.000 A 
ATOM     29  C   UNL     1      49.320   6.455  16.638  0.00  0.00    +0.000 A 
ATOM     30  C   UNL     1      49.997   7.486  15.854  0.00  0.00    +0.000 A 
BRANCH  22  32
ATOM     31  C   UNL     1      49.700   7.454  12.209  0.00  0.00    +0.000 C 
ATOM     32  O   UNL     1      49.589   6.942  13.534  0.00  0.00    +0.000 OA
ENDBRANCH  22  32
ENDBRANCH  18  29
ENDBRANCH   1  20
TORSDOF 7
ENDMDL
MODEL 3
REMARK VINA RESULT:    -7.990      2.059      2.713
REMARK INTER + INTRA:         -12.663
REMARK INTER:                 -11.671
REMARK INTRA:                  -0.992
REMARK UNBOUND:                -1.403
REMARK  Name = 
REMARK  8 active torsions:
REMARK  status: ('A' for Active; 'I' for Inactive)
REMARK    1  A    between atoms: C_1  and  O_2
REMARK    2  A    between atoms: O_2  and  C_3
REMARK    3  A    between atoms: C_10  and  C_11
REMARK    4  A    between atoms: N_13  and  C_14
REMARK    5  A    between atoms: C_14  and  C_15
REMARK    6  A    between atoms: C_18  and  N_19
REMARK    7  A    between atoms: N_19  and  C_20
REMARK    8  A    between atoms: C_20  and  C_21
REMARK                            x       y       z     vdW  Elec       q    Type
REMARK                         _______ _______ _______ _____ _____    ______ ____
ROOT
ATOM      1  C   UNL     1      47.931   6.896  13.627  0.00  0.00    +0.000 C 
ENDROOT
BRANCH   1   2
ATOM      2  C   UNL     1      46.971   6.155  12.732  0.00  0.00    +0.000 A 
ATOM      3  C   UNL     1      46.628   6.656  11.469  0.00  0.00    +0.000 A 
ATOM      4  C   UNL     1      45.776   5.936  10.619  0.00  0.00    +0.000 A 
ATOM      5  C   UNL     1      45.253   4.700  11.009  0.00  0.00    +0.000 A 
ATOM      6  C   UNL     1      45.519   4.258  12.310  0.00  0.00    +0.000 A 
ATOM      7  C   UNL     1      46.377   4.963  13.158  0.00  0.00    +0.000 A 
BRANCH   5   8
ATOM      8  N   UNL     1      44.424   3.911  10.214  0.00  0.00    +0.000 N 
ATOM      9  H   UNL     1      43.472   3.894  10.576  0.00  0.00    +0.000 HD
BRANCH   8  10
ATOM     10  C   UNL     1      44.448   4.070   8.763  0.00  0.00    +0.000 C 
BRANCH  10  11
ATOM     11  C   UNL     1      45.521   3.172   8.197  0.00  0.00    +0.000 A 
ATOM     12  C   UNL     1      46.547   3.708   7.399  0.00  0.00    +0.000 A 
ATOM     13  C   UNL     1      47.546   2.884   6.872  0.00  0.00    +0.000 A 
ATOM     14  C   UNL     1      47.527   1.515   7.128  0.00  0.00    +0.000 A 
ATOM     15  C   UNL     1      46.504   0.968   7.901  0.00  0.00    +0.000 A 
ATOM     16  C   UNL     1      45.511   1.796   8.424  0.00  0.00    +0.000 A 
ATOM     17  F   UNL     1      44.534   1.244   9.158  0.00  0.00    +0.000 F 
ENDBRANCH  10  11
ENDBRANCH   8  10
ENDBRANCH   5   8
ENDBRANCH   1   2
BRANCH   1  20
ATOM     18  C   UNL     1      48.923   6.325  15.803  0.00  0.00    +0.000 C 
ATOM     19  O   UNL     1      50.050   6.596  15.399  0.00  0.00    +0.000 OA
ATOM     20  N   UNL     1      47.829   6.446  14.991  0.00  0.00    +0.000 N 
ATOM     21  H   UNL     1      46.917   6.163  15.320  0.00  0.00    +0.000 HD
BRANCH  18  29
ATOM     22  C   UNL     1      47.937   7.885  18.709  0.00  0.00    +0.000 A 
ATOM     23  N   UNL     1      47.557   8.229  19.956  0.00  0.00    +0.000 NA
ATOM     24  C   UNL     1      47.519   7.272  20.886  0.00  0.00    +0.000 A 
ATOM     25  N   UNL     1      47.829   5.986  20.727  0.00  0.00    +0.000 NA
ATOM     26  C   UNL     1      48.193   5.685  19.471  0.00  0.00    +0.000 A 
ATOM     27  S   UNL     1      48.625   4.088  19.084  0.00  0.00    +0.000 S 
ATOM     28  C   UNL     1      48.919   4.508  17.464  0.00  0.00    +0.000 A 
ATOM     29  C   UNL     1      48.696   5.850  17.180  0.00  0.00    +0.000 A 
ATOM     30  C   UNL     1      48.270   6.556  18.387  0.00  0.00    +0.000 A 
BRANCH  22  32
ATOM     31  C   UNL     1      49.184   9.563  17.655  0.00  0.00    +0.000 C 
ATOM     32  O   UNL     1      47.945   8.862  17.739  0.00  0.00    +0.000 OA
ENDBRANCH  22  32
ENDBRANCH  18  29
ENDBRANCH   1  20
TORSDOF 7
ENDMDL
MODEL 4
REMARK VINA RESULT:    -7.937      2.245      3.094
REMARK INTER + INTRA:         -12.588
REMARK INTER:                 -11.529
REMARK INTRA:                  -1.059
REMARK UNBOUND:                -1.403
REMARK  Name = 
REMARK  8 active torsions:
REMARK  status: ('A' for Active; 'I' for Inactive)
REMARK    1  A    between atoms: C_1  and  O_2
REMARK    2  A    between atoms: O_2  and  C_3
REMARK    3  A    between atoms: C_10  and  C_11
REMARK    4  A    between atoms: N_13  and  C_14
REMARK    5  A    between atoms: C_14  and  C_15
REMARK    6  A    between atoms: C_18  and  N_19
REMARK    7  A    between atoms: N_19  and  C_20
REMARK    8  A    between atoms: C_20  and  C_21
REMARK                            x       y       z     vdW  Elec       q    Type
REMARK                         _______ _______ _______ _____ _____    ______ ____
ROOT
ATOM      1  C   UNL     1      46.783   4.424  14.677  0.00  0.00    +0.000 C 
ENDROOT
BRANCH   1   2
ATOM      2  C   UNL     1      46.289   4.668  13.274  0.00  0.00    +0.000 A 
ATOM      3  C   UNL     1      46.628   5.839  12.582  0.00  0.00    +0.000 A 
ATOM      4  C   UNL     1      46.209   6.037  11.259  0.00  0.00    +0.000 A 
ATOM      5  C   UNL     1      45.449   5.070  10.597  0.00  0.00    +0.000 A 
ATOM      6  C   UNL     1      45.031   3.952  11.327  0.00  0.00    +0.000 A 
ATOM      7  C   UNL     1      45.454   3.741  12.643  0.00  0.00    +0.000 A 
BRANCH   5   8
ATOM      8  N   UNL     1      45.018   5.178   9.276  0.00  0.00    +0.000 N 
ATOM      9  H   UNL     1      45.717   5.637   8.695  0.00  0.00    +0.000 HD
BRANCH   8  10
ATOM     10  C   UNL     1      44.436   4.017   8.608  0.00  0.00    +0.000 C 
BRANCH  10  11
ATOM     11  C   UNL     1      45.554   3.163   8.063  0.00  0.00    +0.000 A 
ATOM     12  C   UNL     1      46.541   3.727   7.236  0.00  0.00    +0.000 A 
ATOM     13  C   UNL     1      47.581   2.944   6.728  0.00  0.00    +0.000 A 
ATOM     14  C   UNL     1      47.644   1.586   7.032  0.00  0.00    +0.000 A 
ATOM     15  C   UNL     1      46.662   1.010   7.836  0.00  0.00    +0.000 A 
ATOM     16  C   UNL     1      45.626   1.797   8.340  0.00  0.00    +0.000 A 
ATOM     17  F   UNL     1      44.689   1.217   9.103  0.00  0.00    +0.000 F 
ENDBRANCH  10  11
ENDBRANCH   8  10
ENDBRANCH   5   8
ENDBRANCH   1   2
BRANCH   1  20
ATOM     18  C   UNL     1      48.479   5.468  16.119  0.00  0.00    +0.000 C 
ATOM     19  O   UNL     1      48.837   4.374  16.547  0.00  0.00    +0.000 OA
ATOM     20  N   UNL     1      47.475   5.575  15.197  0.00  0.00    +0.000 N 
ATOM     21  H   UNL     1      47.152   6.484  14.899  0.00  0.00    +0.000 HD
BRANCH  18  29
ATOM     22  C   UNL     1      48.565   7.090  19.154  0.00  0.00    +0.000 A 
ATOM     23  N   UNL     1      48.776   7.907  20.205  0.00  0.00    +0.000 NA
ATOM     24  C   UNL     1      49.521   8.998  20.012  0.00  0.00    +0.000 A 
ATOM     25  N   UNL     1      50.086   9.392  18.872  0.00  0.00    +0.000 NA
ATOM     26  C   UNL     1      49.859   8.547  17.854  0.00  0.00    +0.000 A 
ATOM     27  S   UNL     1      50.503   8.890  16.320  0.00  0.00    +0.000 S 
ATOM     28  C   UNL     1      49.829   7.476  15.665  0.00  0.00    +0.000 A 
ATOM     29  C   UNL     1      49.111   6.716  16.582  0.00  0.00    +0.000 A 
ATOM     30  C   UNL     1      49.122   7.366  17.891  0.00  0.00    +0.000 A 
BRANCH  22  32
ATOM     31  C   UNL     1      48.548   4.920  20.032  0.00  0.00    +0.000 C 
ATOM     32  O   UNL     1      47.825   5.946  19.357  0.00  0.00    +0.000 OA
ENDBRANCH  22  32
ENDBRANCH  18  29
ENDBRANCH   1  20
TORSDOF 7
ENDMDL
MODEL 5
REMARK VINA RESULT:    -7.803      1.546      1.881
REMARK INTER + INTRA:         -12.400
REMARK INTER:                 -11.374
REMARK INTRA:                  -1.026
REMARK UNBOUND:                -1.403
REMARK  Name = 
REMARK  8 active torsions:
REMARK  status: ('A' for Active; 'I' for Inactive)
REMARK    1  A    between atoms: C_1  and  O_2
REMARK    2  A    between atoms: O_2  and  C_3
REMARK    3  A    between atoms: C_10  and  C_11
REMARK    4  A    between atoms: N_13  and  C_14
REMARK    5  A    between atoms: C_14  and  C_15
REMARK    6  A    between atoms: C_18  and  N_19
REMARK    7  A    between atoms: N_19  and  C_20
REMARK    8  A    between atoms: C_20  and  C_21
REMARK                            x       y       z     vdW  Elec       q    Type
REMARK                         _______ _______ _______ _____ _____    ______ ____
ROOT
ATOM      1  C   UNL     1      48.042   7.701  13.425  0.00  0.00    +0.000 C 
ENDROOT
BRANCH   1   2
ATOM      2  C   UNL     1      47.155   6.694  12.739  0.00  0.00    +0.000 A 
ATOM      3  C   UNL     1      46.716   5.543  13.409  0.00  0.00    +0.000 A 
ATOM      4  C   UNL     1      45.849   4.636  12.782  0.00  0.00    +0.000 A 
ATOM      5  C   UNL     1      45.397   4.861  11.480  0.00  0.00    +0.000 A 
ATOM      6  C   UNL     1      45.920   5.958  10.785  0.00  0.00    +0.000 A 
ATOM      7  C   UNL     1      46.776   6.873  11.406  0.00  0.00    +0.000 A 
BRANCH   5   8
ATOM      8  N   UNL     1      44.514   4.025  10.799  0.00  0.00    +0.000 N 
ATOM      9  H   UNL     1      43.632   3.932  11.300  0.00  0.00    +0.000 HD
BRANCH   8  10
ATOM     10  C   UNL     1      44.305   4.208   9.365  0.00  0.00    +0.000 C 
BRANCH  10  11
ATOM     11  C   UNL     1      45.301   3.354   8.619  0.00  0.00    +0.000 A 
ATOM     12  C   UNL     1      46.253   3.949   7.773  0.00  0.00    +0.000 A 
ATOM     13  C   UNL     1      47.181   3.166   7.080  0.00  0.00    +0.000 A 
ATOM     14  C   UNL     1      47.163   1.780   7.216  0.00  0.00    +0.000 A 
ATOM     15  C   UNL     1      46.212   1.176   8.037  0.00  0.00    +0.000 A 
ATOM     16  C   UNL     1      45.289   1.963   8.726  0.00  0.00    +0.000 A 
ATOM     17  F   UNL     1      44.380   1.358   9.503  0.00  0.00    +0.000 F 
ENDBRANCH  10  11
ENDBRANCH   8  10
ENDBRANCH   5   8
ENDBRANCH   1   2
BRANCH   1  20
ATOM     18  C   UNL     1      48.949   7.105  15.632  0.00  0.00    +0.000 C 
ATOM     19  O   UNL     1      50.001   6.716  15.132  0.00  0.00    +0.000 OA
ATOM     20  N   UNL     1      47.937   7.603  14.858  0.00  0.00    +0.000 N 
ATOM     21  H   UNL     1      47.056   7.863  15.278  0.00  0.00    +0.000 HD
BRANCH  18  29
ATOM     22  C   UNL     1      48.806   4.523  17.904  0.00  0.00    +0.000 A 
ATOM     23  N   UNL     1      48.723   3.725  18.988  0.00  0.00    +0.000 NA
ATOM     24  C   UNL     1      48.498   4.297  20.173  0.00  0.00    +0.000 A 
ATOM     25  N   UNL     1      48.333   5.597  20.418  0.00  0.00    +0.000 NA
ATOM     26  C   UNL     1      48.432   6.356  19.315  0.00  0.00    +0.000 A 
ATOM     27  S   UNL     1      48.247   8.040  19.438  0.00  0.00    +0.000 S 
ATOM     28  C   UNL     1      48.494   8.239  17.770  0.00  0.00    +0.000 A 
ATOM     29  C   UNL     1      48.724   7.049  17.088  0.00  0.00    +0.000 A 
ATOM     30  C   UNL     1      48.676   5.921  18.015  0.00  0.00    +0.000 A 
BRANCH  22  32
ATOM     31  C   UNL     1      47.947   3.260  16.131  0.00  0.00    +0.000 C 
ATOM     32  O   UNL     1      49.070   3.940  16.686  0.00  0.00    +0.000 OA
ENDBRANCH  22  32
ENDBRANCH  18  29
ENDBRANCH   1  20
TORSDOF 7
ENDMDL
MODEL 6
REMARK VINA RESULT:    -7.200      1.686      2.152
REMARK INTER + INTRA:         -11.550
REMARK INTER:                 -10.504
REMARK INTRA:                  -1.046
REMARK UNBOUND:                -1.403
REMARK  Name = 
REMARK  8 active torsions:
REMARK  status: ('A' for Active; 'I' for Inactive)
REMARK    1  A    between atoms: C_1  and  O_2
REMARK    2  A    between atoms: O_2  and  C_3
REMARK    3  A    between atoms: C_10  and  C_11
REMARK    4  A    between atoms: N_13  and  C_14
REMARK    5  A    between atoms: C_14  and  C_15
REMARK    6  A    between atoms: C_18  and  N_19
REMARK    7  A    between atoms: N_19  and  C_20
REMARK    8  A    between atoms: C_20  and  C_21
REMARK                            x       y       z     vdW  Elec       q    Type
REMARK                         _______ _______ _______ _____ _____    ______ ____
ROOT
ATOM      1  C   UNL     1      46.771   7.745  13.298  0.00  0.00    +0.000 C 
ENDROOT
BRANCH   1   2
ATOM      2  C   UNL     1      46.184   6.584  12.537  0.00  0.00    +0.000 A 
ATOM      3  C   UNL     1      45.763   6.730  11.209  0.00  0.00    +0.000 A 
ATOM      4  C   UNL     1      45.266   5.634  10.489  0.00  0.00    +0.000 A 
ATOM      5  C   UNL     1      45.185   4.369  11.077  0.00  0.00    +0.000 A 
ATOM      6  C   UNL     1      45.512   4.255  12.433  0.00  0.00    +0.000 A 
ATOM      7  C   UNL     1      46.019   5.340  13.154  0.00  0.00    +0.000 A 
BRANCH   5   8
ATOM      8  N   UNL     1      44.730   3.226  10.423  0.00  0.00    +0.000 N 
ATOM      9  H   UNL     1      43.994   2.764  10.954  0.00  0.00    +0.000 HD
BRANCH   8  10
ATOM     10  C   UNL     1      44.415   3.284   8.998  0.00  0.00    +0.000 C 
BRANCH  10  11
ATOM     11  C   UNL     1      45.619   2.818   8.217  0.00  0.00    +0.000 A 
ATOM     12  C   UNL     1      46.427   3.745   7.537  0.00  0.00    +0.000 A 
ATOM     13  C   UNL     1      47.546   3.321   6.813  0.00  0.00    +0.000 A 
ATOM     14  C   UNL     1      47.865   1.967   6.752  0.00  0.00    +0.000 A 
ATOM     15  C   UNL     1      47.061   1.036   7.407  0.00  0.00    +0.000 A 
ATOM     16  C   UNL     1      45.947   1.464   8.128  0.00  0.00    +0.000 A 
ATOM     17  F   UNL     1      45.185   0.548   8.742  0.00  0.00    +0.000 F 
ENDBRANCH  10  11
ENDBRANCH   8  10
ENDBRANCH   5   8
ENDBRANCH   1   2
BRANCH   1  20
ATOM     18  C   UNL     1      48.560   8.042  14.959  0.00  0.00    +0.000 C 
ATOM     19  O   UNL     1      47.932   8.932  15.527  0.00  0.00    +0.000 OA
ATOM     20  N   UNL     1      48.056   7.410  13.856  0.00  0.00    +0.000 N 
ATOM     21  H   UNL     1      48.610   6.722  13.366  0.00  0.00    +0.000 HD
BRANCH  18  29
ATOM     22  C   UNL     1      49.638   5.448  16.949  0.00  0.00    +0.000 A 
ATOM     23  N   UNL     1      50.324   4.534  17.664  0.00  0.00    +0.000 NA
ATOM     24  C   UNL     1      51.651   4.660  17.737  0.00  0.00    +0.000 A 
ATOM     25  N   UNL     1      52.398   5.612  17.178  0.00  0.00    +0.000 NA
ATOM     26  C   UNL     1      51.678   6.495  16.469  0.00  0.00    +0.000 A 
ATOM     27  S   UNL     1      52.466   7.781  15.687  0.00  0.00    +0.000 S 
ATOM     28  C   UNL     1      50.997   8.372  15.072  0.00  0.00    +0.000 A 
ATOM     29  C   UNL     1      49.888   7.617  15.436  0.00  0.00    +0.000 A 
ATOM     30  C   UNL     1      50.298   6.498  16.282  0.00  0.00    +0.000 A 
BRANCH  22  32
ATOM     31  C   UNL     1      47.751   4.271  17.678  0.00  0.00    +0.000 C 
ATOM     32  O   UNL     1      48.273   5.302  16.844  0.00  0.00    +0.000 OA
ENDBRANCH  22  32
ENDBRANCH  18  29
ENDBRANCH   1  20
TORSDOF 7
ENDMDL
MODEL 7
REMARK VINA RESULT:    -6.516      3.945      7.796
REMARK INTER + INTRA:         -10.586
REMARK INTER:                  -9.079
REMARK INTRA:                  -1.508
REMARK UNBOUND:                -1.403
REMARK  Name = 
REMARK  8 active torsions:
REMARK  status: ('A' for Active; 'I' for Inactive)
REMARK    1  A    between atoms: C_1  and  O_2
REMARK    2  A    between atoms: O_2  and  C_3
REMARK    3  A    between atoms: C_10  and  C_11
REMARK    4  A    between atoms: N_13  and  C_14
REMARK    5  A    between atoms: C_14  and  C_15
REMARK    6  A    between atoms: C_18  and  N_19
REMARK    7  A    between atoms: N_19  and  C_20
REMARK    8  A    between atoms: C_20  and  C_21
REMARK                            x       y       z     vdW  Elec       q    Type
REMARK                         _______ _______ _______ _____ _____    ______ ____
ROOT
ATOM      1  C   UNL     1      47.995   8.914  13.972  0.00  0.00    +0.000 C 
ENDROOT
BRANCH   1   2
ATOM      2  C   UNL     1      48.565   8.331  15.240  0.00  0.00    +0.000 A 
ATOM      3  C   UNL     1      48.302   8.916  16.486  0.00  0.00    +0.000 A 
ATOM      4  C   UNL     1      48.792   8.340  17.667  0.00  0.00    +0.000 A 
ATOM      5  C   UNL     1      49.547   7.165  17.629  0.00  0.00    +0.000 A 
ATOM      6  C   UNL     1      49.889   6.646  16.376  0.00  0.00    +0.000 A 
ATOM      7  C   UNL     1      49.395   7.208  15.195  0.00  0.00    +0.000 A 
BRANCH   5   8
ATOM      8  N   UNL     1      50.045   6.515  18.757  0.00  0.00    +0.000 N 
ATOM      9  H   UNL     1      50.250   7.175  19.504  0.00  0.00    +0.000 HD
BRANCH   8  10
ATOM     10  C   UNL     1      49.373   5.320  19.259  0.00  0.00    +0.000 C 
BRANCH  10  11
ATOM     11  C   UNL     1      49.885   4.122  18.497  0.00  0.00    +0.000 A 
ATOM     12  C   UNL     1      51.264   3.858  18.433  0.00  0.00    +0.000 A 
ATOM     13  C   UNL     1      51.747   2.749  17.732  0.00  0.00    +0.000 A 
ATOM     14  C   UNL     1      50.860   1.897  17.079  0.00  0.00    +0.000 A 
ATOM     15  C   UNL     1      49.491   2.158  17.119  0.00  0.00    +0.000 A 
ATOM     16  C   UNL     1      49.016   3.265  17.821  0.00  0.00    +0.000 A 
ATOM     17  F   UNL     1      47.696   3.499  17.837  0.00  0.00    +0.000 F 
ENDBRANCH  10  11
ENDBRANCH   8  10
ENDBRANCH   5   8
ENDBRANCH   1   2
BRANCH   1  20
ATOM     18  C   UNL     1      46.825   7.368  12.459  0.00  0.00    +0.000 C 
ATOM     19  O   UNL     1      47.842   7.199  11.791  0.00  0.00    +0.000 OA
ATOM     20  N   UNL     1      46.820   8.198  13.547  0.00  0.00    +0.000 N 
ATOM     21  H   UNL     1      45.962   8.372  14.050  0.00  0.00    +0.000 HD
BRANCH  18  29
ATOM     22  C   UNL     1      45.703   4.135  12.823  0.00  0.00    +0.000 A 
ATOM     23  N   UNL     1      45.016   2.975  12.860  0.00  0.00    +0.000 NA
ATOM     24  C   UNL     1      43.775   2.965  12.369  0.00  0.00    +0.000 A 
ATOM     25  N   UNL     1      43.119   3.989  11.824  0.00  0.00    +0.000 NA
ATOM     26  C   UNL     1      43.835   5.125  11.814  0.00  0.00    +0.000 A 
ATOM     27  S   UNL     1      43.157   6.535  11.154  0.00  0.00    +0.000 S 
ATOM     28  C   UNL     1      44.560   7.430  11.498  0.00  0.00    +0.000 A 
ATOM     29  C   UNL     1      45.562   6.691  12.117  0.00  0.00    +0.000 A 
ATOM     30  C   UNL     1      45.128   5.307  12.297  0.00  0.00    +0.000 A 
BRANCH  22  32
ATOM     31  C   UNL     1      46.986   4.398  14.762  0.00  0.00    +0.000 C 
ATOM     32  O   UNL     1      46.971   4.157  13.358  0.00  0.00    +0.000 OA
ENDBRANCH  22  32
ENDBRANCH  18  29
ENDBRANCH   1  20
TORSDOF 7
ENDMDL
MODEL 8
REMARK VINA RESULT:    -5.999      3.014      4.784
REMARK INTER + INTRA:          -9.858
REMARK INTER:                  -8.605
REMARK INTRA:                  -1.253
REMARK UNBOUND:                -1.403
REMARK  Name = 
REMARK  8 active torsions:
REMARK  status: ('A' for Active; 'I' for Inactive)
REMARK    1  A    between atoms: C_1  and  O_2
REMARK    2  A    between atoms: O_2  and  C_3
REMARK    3  A    between atoms: C_10  and  C_11
REMARK    4  A    between atoms: N_13  and  C_14
REMARK    5  A    between atoms: C_14  and  C_15
REMARK    6  A    between atoms: C_18  and  N_19
REMARK    7  A    between atoms: N_19  and  C_20
REMARK    8  A    between atoms: C_20  and  C_21
REMARK                            x       y       z     vdW  Elec       q    Type
REMARK                         _______ _______ _______ _____ _____    ______ ____
ROOT
ATOM      1  C   UNL     1      48.079   4.596  17.294  0.00  0.00    +0.000 C 
ENDROOT
BRANCH   1   2
ATOM      2  C   UNL     1      47.726   5.036  15.897  0.00  0.00    +0.000 A 
ATOM      3  C   UNL     1      48.254   6.216  15.356  0.00  0.00    +0.000 A 
ATOM      4  C   UNL     1      47.964   6.593  14.036  0.00  0.00    +0.000 A 
ATOM      5  C   UNL     1      47.147   5.799  13.229  0.00  0.00    +0.000 A 
ATOM      6  C   UNL     1      46.544   4.677  13.809  0.00  0.00    +0.000 A 
ATOM      7  C   UNL     1      46.837   4.288  15.119  0.00  0.00    +0.000 A 
BRANCH   5   8
ATOM      8  N   UNL     1      46.834   6.088  11.902  0.00  0.00    +0.000 N 
ATOM      9  H   UNL     1      47.415   5.552  11.260  0.00  0.00    +0.000 HD
BRANCH   8  10
ATOM     10  C   UNL     1      45.437   6.111  11.477  0.00  0.00    +0.000 C 
BRANCH  10  11
ATOM     11  C   UNL     1      45.212   4.986  10.496  0.00  0.00    +0.000 A 
ATOM     12  C   UNL     1      45.724   5.069   9.190  0.00  0.00    +0.000 A 
ATOM     13  C   UNL     1      45.521   4.031   8.276  0.00  0.00    +0.000 A 
ATOM     14  C   UNL     1      44.798   2.902   8.653  0.00  0.00    +0.000 A 
ATOM     15  C   UNL     1      44.268   2.816   9.939  0.00  0.00    +0.000 A 
ATOM     16  C   UNL     1      44.474   3.855  10.846  0.00  0.00    +0.000 A 
ATOM     17  F   UNL     1      43.947   3.751  12.075  0.00  0.00    +0.000 F 
ENDBRANCH  10  11
ENDBRANCH   8  10
ENDBRANCH   5   8
ENDBRANCH   1   2
BRANCH   1  20
ATOM     18  C   UNL     1      50.286   3.511  17.308  0.00  0.00    +0.000 C 
ATOM     19  O   UNL     1      49.802   2.445  16.937  0.00  0.00    +0.000 OA
ATOM     20  N   UNL     1      49.503   4.615  17.506  0.00  0.00    +0.000 N 
ATOM     21  H   UNL     1      49.908   5.468  17.868  0.00  0.00    +0.000 HD
BRANCH  18  29
ATOM     22  C   UNL     1      52.538   6.066  16.807  0.00  0.00    +0.000 A 
ATOM     23  N   UNL     1      53.606   6.887  16.741  0.00  0.00    +0.000 NA
ATOM     24  C   UNL     1      54.780   6.425  17.178  0.00  0.00    +0.000 A 
ATOM     25  N   UNL     1      55.031   5.215  17.676  0.00  0.00    +0.000 NA
ATOM     26  C   UNL     1      53.942   4.434  17.732  0.00  0.00    +0.000 A 
ATOM     27  S   UNL     1      54.075   2.853  18.339  0.00  0.00    +0.000 S 
ATOM     28  C   UNL     1      52.418   2.567  18.098  0.00  0.00    +0.000 A 
ATOM     29  C   UNL     1      51.731   3.651  17.561  0.00  0.00    +0.000 A 
ATOM     30  C   UNL     1      52.649   4.765  17.334  0.00  0.00    +0.000 A 
BRANCH  22  32
ATOM     31  C   UNL     1      51.357   7.923  16.013  0.00  0.00    +0.000 C 
ATOM     32  O   UNL     1      51.319   6.549  16.388  0.00  0.00    +0.000 OA
ENDBRANCH  22  32
ENDBRANCH  18  29
ENDBRANCH   1  20
TORSDOF 7
ENDMDL
MODEL 9
REMARK VINA RESULT:    -5.639      3.664      8.261
REMARK INTER + INTRA:          -9.349
REMARK INTER:                  -7.915
REMARK INTRA:                  -1.434
REMARK UNBOUND:                -1.403
REMARK  Name = 
REMARK  8 active torsions:
REMARK  status: ('A' for Active; 'I' for Inactive)
REMARK    1  A    between atoms: C_1  and  O_2
REMARK    2  A    between atoms: O_2  and  C_3
REMARK    3  A    between atoms: C_10  and  C_11
REMARK    4  A    between atoms: N_13  and  C_14
REMARK    5  A    between atoms: C_14  and  C_15
REMARK    6  A    between atoms: C_18  and  N_19
REMARK    7  A    between atoms: N_19  and  C_20
REMARK    8  A    between atoms: C_20  and  C_21
REMARK                            x       y       z     vdW  Elec       q    Type
REMARK                         _______ _______ _______ _____ _____    ______ ____
ROOT
ATOM      1  C   UNL     1      48.024   7.832  11.553  0.00  0.00    +0.000 C 
ENDROOT
BRANCH   1   2
ATOM      2  C   UNL     1      48.665   8.079  12.895  0.00  0.00    +0.000 A 
ATOM      3  C   UNL     1      50.035   7.858  13.092  0.00  0.00    +0.000 A 
ATOM      4  C   UNL     1      50.636   8.140  14.328  0.00  0.00    +0.000 A 
ATOM      5  C   UNL     1      49.885   8.654  15.388  0.00  0.00    +0.000 A 
ATOM      6  C   UNL     1      48.503   8.776  15.213  0.00  0.00    +0.000 A 
ATOM      7  C   UNL     1      47.897   8.508  13.981  0.00  0.00    +0.000 A 
BRANCH   5   8
ATOM      8  N   UNL     1      50.412   8.986  16.635  0.00  0.00    +0.000 N 
ATOM      9  H   UNL     1      50.425   9.995  16.774  0.00  0.00    +0.000 HD
BRANCH   8  10
ATOM     10  C   UNL     1      49.948   8.281  17.827  0.00  0.00    +0.000 C 
BRANCH  10  11
ATOM     11  C   UNL     1      50.331   6.826  17.707  0.00  0.00    +0.000 A 
ATOM     12  C   UNL     1      51.684   6.451  17.650  0.00  0.00    +0.000 A 
ATOM     13  C   UNL     1      52.047   5.105  17.541  0.00  0.00    +0.000 A 
ATOM     14  C   UNL     1      51.064   4.120  17.479  0.00  0.00    +0.000 A 
ATOM     15  C   UNL     1      49.719   4.481  17.515  0.00  0.00    +0.000 A 
ATOM     16  C   UNL     1      49.362   5.825  17.624  0.00  0.00    +0.000 A 
ATOM     17  F   UNL     1      48.061   6.146  17.649  0.00  0.00    +0.000 F 
ENDBRANCH  10  11
ENDBRANCH   8  10
ENDBRANCH   5   8
ENDBRANCH   1   2
BRANCH   1  20
ATOM     18  C   UNL     1      45.806   6.771  11.619  0.00  0.00    +0.000 C 
ATOM     19  O   UNL     1      45.246   7.864  11.622  0.00  0.00    +0.000 OA
ATOM     20  N   UNL     1      47.170   6.673  11.586  0.00  0.00    +0.000 N 
ATOM     21  H   UNL     1      47.616   5.768  11.644  0.00  0.00    +0.000 HD
BRANCH  18  29
ATOM     22  C   UNL     1      45.325   4.227   9.351  0.00  0.00    +0.000 A 
ATOM     23  N   UNL     1      44.989   3.108   8.679  0.00  0.00    +0.000 NA
ATOM     24  C   UNL     1      44.193   2.225   9.287  0.00  0.00    +0.000 A 
ATOM     25  N   UNL     1      43.669   2.326  10.508  0.00  0.00    +0.000 NA
ATOM     26  C   UNL     1      44.035   3.450  11.145  0.00  0.00    +0.000 A 
ATOM     27  S   UNL     1      43.459   3.748  12.715  0.00  0.00    +0.000 S 
ATOM     28  C   UNL     1      44.304   5.219  12.799  0.00  0.00    +0.000 A 
ATOM     29  C   UNL     1      45.036   5.515  11.655  0.00  0.00    +0.000 A 
ATOM     30  C   UNL     1      44.865   4.457  10.661  0.00  0.00    +0.000 A 
BRANCH  22  32
ATOM     31  C   UNL     1      46.820   4.591   7.587  0.00  0.00    +0.000 C 
ATOM     32  O   UNL     1      46.173   5.123   8.739  0.00  0.00    +0.000 OA
ENDBRANCH  22  32
ENDBRANCH  18  29
ENDBRANCH   1  20
TORSDOF 7
ENDMDL
