MODEL 1
REMARK VINA RESULT:    -7.084      0.000      0.000
REMARK INTER + INTRA:          -9.516
REMARK INTER:                  -8.947
REMARK INTRA:                  -0.568
REMARK UNBOUND:                -0.568
REMARK  Name = 
REMARK  5 active torsions:
REMARK  status: ('A' for Active; 'I' for Inactive)
REMARK    1  A    between atoms: N_1  and  C_2
REMARK    2  A    between atoms: C_2  and  C_3
REMARK    3  A    between atoms: C_6  and  O_7
REMARK    4  A    between atoms: O_7  and  C_8
REMARK    5  A    between atoms: C_8  and  C_9
REMARK                            x       y       z     vdW  Elec       q    Type
REMARK                         _______ _______ _______ _____ _____    ______ ____
ROOT
ATOM      1  C   UNL     1      46.540   2.311   7.628  0.00  0.00    +0.000 A 
ATOM      2  C   UNL     1      45.733   1.572   8.500  0.00  0.00    +0.000 A 
ATOM      3  C   UNL     1      44.767   2.200   9.290  0.00  0.00    +0.000 A 
ATOM      4  C   UNL     1      44.591   3.582   9.221  0.00  0.00    +0.000 A 
ATOM      5  C   UNL     1      45.387   4.325   8.347  0.00  0.00    +0.000 A 
ATOM      6  C   UNL     1      46.355   3.697   7.556  0.00  0.00    +0.000 A 
ENDROOT
BRANCH   1   7
ATOM      7  C   UNL     1      47.598   1.621   6.806  0.00  0.00    +0.000 C 
BRANCH   7   8
ATOM      8  N   UNL     1      48.628   2.554   6.365  0.00  0.00    +0.000 NA
ATOM      9  H   UNL     1      49.540   2.206   6.653  0.00  0.00    +0.000 HD
ATOM     10  H   UNL     1      48.491   3.442   6.848  0.00  0.00    +0.000 HD
ENDBRANCH   7   8
ENDBRANCH   1   7
BRANCH   4  11
ATOM     11  O   UNL     1      43.691   4.307   9.954  0.00  0.00    +0.000 OA
BRANCH  11  12
ATOM     12  C   UNL     1      43.397   3.802  11.258  0.00  0.00    +0.000 C 
BRANCH  12  13
ATOM     13  C   UNL     1      44.143   4.621  12.315  0.00  0.00    +0.000 C 
ATOM     14  C   UNL     1      44.384   6.046  11.800  0.00  0.00    +0.000 C 
ATOM     15  C   UNL     1      45.238   6.839  12.776  0.00  0.00    +0.000 C 
ATOM     16  O   UNL     1      46.471   6.166  13.026  0.00  0.00    +0.000 OA
ATOM     17  C   UNL     1      46.272   4.888  13.629  0.00  0.00    +0.000 C 
ATOM     18  C   UNL     1      45.477   3.972  12.706  0.00  0.00    +0.000 C 
ENDBRANCH  12  13
ENDBRANCH  11  12
ENDBRANCH   4  11
TORSDOF 5
ENDMDL
MODEL 2
REMARK VINA RESULT:    -6.335      2.958      6.016
REMARK INTER + INTRA:          -8.570
REMARK INTER:                  -8.148
REMARK INTRA:                  -0.422
REMARK UNBOUND:                -0.568
REMARK  Name = 
REMARK  5 active torsions:
REMARK  status: ('A' for Active; 'I' for Inactive)
REMARK    1  A    between atoms: N_1  and  C_2
REMARK    2  A    between atoms: C_2  and  C_3
REMARK    3  A    between atoms: C_6  and  O_7
REMARK    4  A    between atoms: O_7  and  C_8
REMARK    5  A    between atoms: C_8  and  C_9
REMARK                            x       y       z     vdW  Elec       q    Type
REMARK                         _______ _______ _______ _____ _____    ______ ____
ROOT
ATOM      1  C   UNL     1      46.450   5.574  12.751  0.00  0.00    +0.000 A 
ATOM      2  C   UNL     1      46.304   6.163  11.489  0.00  0.00    +0.000 A 
ATOM      3  C   UNL     1      45.678   5.477  10.445  0.00  0.00    +0.000 A 
ATOM      4  C   UNL     1      45.188   4.187  10.645  0.00  0.00    +0.000 A 
ATOM      5  C   UNL     1      45.324   3.597  11.903  0.00  0.00    +0.000 A 
ATOM      6  C   UNL     1      45.950   4.282  12.949  0.00  0.00    +0.000 A 
ENDROOT
BRANCH   1   7
ATOM      7  C   UNL     1      47.155   6.317  13.856  0.00  0.00    +0.000 C 
BRANCH   7   8
ATOM      8  N   UNL     1      47.579   5.417  14.922  0.00  0.00    +0.000 NA
ATOM      9  H   UNL     1      48.385   4.882  14.606  0.00  0.00    +0.000 HD
ATOM     10  H   UNL     1      46.833   4.744  15.095  0.00  0.00    +0.000 HD
ENDBRANCH   7   8
ENDBRANCH   1   7
BRANCH   4  11
ATOM     11  O   UNL     1      44.573   3.413   9.698  0.00  0.00    +0.000 OA
BRANCH  11  12
ATOM     12  C   UNL     1      44.703   3.860   8.347  0.00  0.00    +0.000 C 
BRANCH  12  13
ATOM     13  C   UNL     1      45.478   2.823   7.528  0.00  0.00    +0.000 C 
ATOM     14  C   UNL     1      45.902   1.655   8.428  0.00  0.00    +0.000 C 
ATOM     15  C   UNL     1      46.785   0.678   7.668  0.00  0.00    +0.000 C 
ATOM     16  O   UNL     1      47.921   1.348   7.123  0.00  0.00    +0.000 OA
ATOM     17  C   UNL     1      47.550   2.354   6.182  0.00  0.00    +0.000 C 
ATOM     18  C   UNL     1      46.709   3.435   6.848  0.00  0.00    +0.000 C 
ENDBRANCH  12  13
ENDBRANCH  11  12
ENDBRANCH   4  11
TORSDOF 5
ENDMDL
MODEL 3
REMARK VINA RESULT:    -5.573      3.241      6.329
REMARK INTER + INTRA:          -7.607
REMARK INTER:                  -7.121
REMARK INTRA:                  -0.487
REMARK UNBOUND:                -0.568
REMARK  Name = 
REMARK  5 active torsions:
REMARK  status: ('A' for Active; 'I' for Inactive)
REMARK    1  A    between atoms: N_1  and  C_2
REMARK    2  A    between atoms: C_2  and  C_3
REMARK    3  A    between atoms: C_6  and  O_7
REMARK    4  A    between atoms: O_7  and  C_8
REMARK    5  A    between atoms: C_8  and  C_9
REMARK                            x       y       z     vdW  Elec       q    Type
REMARK                         _______ _______ _______ _____ _____    ______ ____
ROOT
ATOM      1  C   UNL     1      44.338   5.608  11.874  0.00  0.00    +0.000 A 
ATOM      2  C   UNL     1      45.541   6.150  11.405  0.00  0.00    +0.000 A 
ATOM      3  C   UNL     1      46.009   5.855  10.122  0.00  0.00    +0.000 A 
ATOM      4  C   UNL     1      45.281   5.012   9.284  0.00  0.00    +0.000 A 
ATOM      5  C   UNL     1      44.076   4.473   9.742  0.00  0.00    +0.000 A 
ATOM      6  C   UNL     1      43.607   4.767  11.026  0.00  0.00    +0.000 A 
ENDROOT
BRANCH   1   7
ATOM      7  C   UNL     1      43.864   5.912  13.272  0.00  0.00    +0.000 C 
BRANCH   7   8
ATOM      8  N   UNL     1      42.637   5.192  13.590  0.00  0.00    +0.000 NA
ATOM      9  H   UNL     1      42.151   5.676  14.341  0.00  0.00    +0.000 HD
ATOM     10  H   UNL     1      42.883   4.270  13.950  0.00  0.00    +0.000 HD
ENDBRANCH   7   8
ENDBRANCH   1   7
BRANCH   4  11
ATOM     11  O   UNL     1      45.644   4.640   8.018  0.00  0.00    +0.000 OA
BRANCH  11  12
ATOM     12  C   UNL     1      44.864   3.600   7.425  0.00  0.00    +0.000 C 
BRANCH  12  13
ATOM     13  C   UNL     1      45.786   2.556   6.787  0.00  0.00    +0.000 C 
ATOM     14  C   UNL     1      46.391   1.657   7.873  0.00  0.00    +0.000 C 
ATOM     15  C   UNL     1      47.411   0.699   7.279  0.00  0.00    +0.000 C 
ATOM     16  O   UNL     1      48.426   1.418   6.580  0.00  0.00    +0.000 OA
ATOM     17  C   UNL     1      47.899   2.159   5.481  0.00  0.00    +0.000 C 
ATOM     18  C   UNL     1      46.904   3.208   5.962  0.00  0.00    +0.000 C 
ENDBRANCH  12  13
ENDBRANCH  11  12
ENDBRANCH   4  11
TORSDOF 5
ENDMDL
MODEL 4
REMARK VINA RESULT:    -5.405      1.204      2.377
REMARK INTER + INTRA:          -7.395
REMARK INTER:                  -6.887
REMARK INTRA:                  -0.508
REMARK UNBOUND:                -0.568
REMARK  Name = 
REMARK  5 active torsions:
REMARK  status: ('A' for Active; 'I' for Inactive)
REMARK    1  A    between atoms: N_1  and  C_2
REMARK    2  A    between atoms: C_2  and  C_3
REMARK    3  A    between atoms: C_6  and  O_7
REMARK    4  A    between atoms: O_7  and  C_8
REMARK    5  A    between atoms: C_8  and  C_9
REMARK                            x       y       z     vdW  Elec       q    Type
REMARK                         _______ _______ _______ _____ _____    ______ ____
ROOT
ATOM      1  C   UNL     1      45.520   2.419   8.749  0.00  0.00    +0.000 A 
ATOM      2  C   UNL     1      45.752   3.753   8.394  0.00  0.00    +0.000 A 
ATOM      3  C   UNL     1      45.107   4.797   9.063  0.00  0.00    +0.000 A 
ATOM      4  C   UNL     1      44.218   4.523  10.101  0.00  0.00    +0.000 A 
ATOM      5  C   UNL     1      43.987   3.195  10.466  0.00  0.00    +0.000 A 
ATOM      6  C   UNL     1      44.632   2.150   9.797  0.00  0.00    +0.000 A 
ENDROOT
BRANCH   1   7
ATOM      7  C   UNL     1      46.201   1.305   7.996  0.00  0.00    +0.000 C 
BRANCH   7   8
ATOM      8  N   UNL     1      47.367   1.787   7.265  0.00  0.00    +0.000 NA
ATOM      9  H   UNL     1      47.445   2.794   7.387  0.00  0.00    +0.000 HD
ATOM     10  H   UNL     1      47.217   1.626   6.269  0.00  0.00    +0.000 HD
ENDBRANCH   7   8
ENDBRANCH   1   7
BRANCH   4  11
ATOM     11  O   UNL     1      43.518   5.457  10.817  0.00  0.00    +0.000 OA
BRANCH  11  12
ATOM     12  C   UNL     1      43.917   5.626  12.179  0.00  0.00    +0.000 C 
BRANCH  12  13
ATOM     13  C   UNL     1      45.356   6.146  12.239  0.00  0.00    +0.000 C 
ATOM     14  C   UNL     1      46.185   5.285  13.201  0.00  0.00    +0.000 C 
ATOM     15  C   UNL     1      47.581   5.860  13.380  0.00  0.00    +0.000 C 
ATOM     16  O   UNL     1      47.512   7.213  13.828  0.00  0.00    +0.000 OA
ATOM     17  C   UNL     1      46.857   8.059  12.884  0.00  0.00    +0.000 C 
ATOM     18  C   UNL     1      45.415   7.618  12.670  0.00  0.00    +0.000 C 
ENDBRANCH  12  13
ENDBRANCH  11  12
ENDBRANCH   4  11
TORSDOF 5
ENDMDL
MODEL 5
REMARK VINA RESULT:    -5.269      4.879      8.059
REMARK INTER + INTRA:          -7.223
REMARK INTER:                  -6.887
REMARK INTRA:                  -0.336
REMARK UNBOUND:                -0.568
REMARK  Name = 
REMARK  5 active torsions:
REMARK  status: ('A' for Active; 'I' for Inactive)
REMARK    1  A    between atoms: N_1  and  C_2
REMARK    2  A    between atoms: C_2  and  C_3
REMARK    3  A    between atoms: C_6  and  O_7
REMARK    4  A    between atoms: O_7  and  C_8
REMARK    5  A    between atoms: C_8  and  C_9
REMARK                            x       y       z     vdW  Elec       q    Type
REMARK                         _______ _______ _______ _____ _____    ______ ____
ROOT
ATOM      1  C   UNL     1      48.560   4.410  18.391  0.00  0.00    +0.000 A 
ATOM      2  C   UNL     1      48.339   5.449  17.480  0.00  0.00    +0.000 A 
ATOM      3  C   UNL     1      47.890   5.183  16.183  0.00  0.00    +0.000 A 
ATOM      4  C   UNL     1      47.654   3.871  15.776  0.00  0.00    +0.000 A 
ATOM      5  C   UNL     1      47.864   2.830  16.683  0.00  0.00    +0.000 A 
ATOM      6  C   UNL     1      48.314   3.095  17.980  0.00  0.00    +0.000 A 
ENDROOT
BRANCH   1   7
ATOM      7  C   UNL     1      49.074   4.713  19.775  0.00  0.00    +0.000 C 
BRANCH   7   8
ATOM      8  N   UNL     1      48.442   3.865  20.779  0.00  0.00    +0.000 NA
ATOM      9  H   UNL     1      47.644   4.356  21.176  0.00  0.00    +0.000 HD
ATOM     10  H   UNL     1      49.101   3.718  21.543  0.00  0.00    +0.000 HD
ENDBRANCH   7   8
ENDBRANCH   1   7
BRANCH   4  11
ATOM     11  O   UNL     1      47.229   3.488  14.532  0.00  0.00    +0.000 OA
BRANCH  11  12
ATOM     12  C   UNL     1      46.697   4.527  13.707  0.00  0.00    +0.000 C 
BRANCH  12  13
ATOM     13  C   UNL     1      45.218   4.256  13.419  0.00  0.00    +0.000 C 
ATOM     14  C   UNL     1      45.083   3.210  12.304  0.00  0.00    +0.000 C 
ATOM     15  C   UNL     1      43.628   3.022  11.909  0.00  0.00    +0.000 C 
ATOM     16  O   UNL     1      43.049   4.267  11.520  0.00  0.00    +0.000 OA
ATOM     17  C   UNL     1      43.046   5.215  12.586  0.00  0.00    +0.000 C 
ATOM     18  C   UNL     1      44.468   5.537  13.029  0.00  0.00    +0.000 C 
ENDBRANCH  12  13
ENDBRANCH  11  12
ENDBRANCH   4  11
TORSDOF 5
ENDMDL
MODEL 6
REMARK VINA RESULT:    -4.978      4.595      6.576
REMARK INTER + INTRA:          -6.856
REMARK INTER:                  -6.422
REMARK INTRA:                  -0.434
REMARK UNBOUND:                -0.568
REMARK  Name = 
REMARK  5 active torsions:
REMARK  status: ('A' for Active; 'I' for Inactive)
REMARK    1  A    between atoms: N_1  and  C_2
REMARK    2  A    between atoms: C_2  and  C_3
REMARK    3  A    between atoms: C_6  and  O_7
REMARK    4  A    between atoms: O_7  and  C_8
REMARK    5  A    between atoms: C_8  and  C_9
REMARK                            x       y       z     vdW  Elec       q    Type
REMARK                         _______ _______ _______ _____ _____    ______ ____
ROOT
ATOM      1  C   UNL     1      45.563   6.430  12.284  0.00  0.00    +0.000 A 
ATOM      2  C   UNL     1      46.845   6.690  12.782  0.00  0.00    +0.000 A 
ATOM      3  C   UNL     1      47.481   5.783  13.633  0.00  0.00    +0.000 A 
ATOM      4  C   UNL     1      46.845   4.598  14.002  0.00  0.00    +0.000 A 
ATOM      5  C   UNL     1      45.569   4.329  13.503  0.00  0.00    +0.000 A 
ATOM      6  C   UNL     1      44.931   5.235  12.651  0.00  0.00    +0.000 A 
ENDROOT
BRANCH   1   7
ATOM      7  C   UNL     1      44.878   7.433  11.392  0.00  0.00    +0.000 C 
BRANCH   7   8
ATOM      8  N   UNL     1      43.453   7.153  11.264  0.00  0.00    +0.000 NA
ATOM      9  H   UNL     1      43.081   7.667  10.469  0.00  0.00    +0.000 HD
ATOM     10  H   UNL     1      42.975   7.511  12.091  0.00  0.00    +0.000 HD
ENDBRANCH   7   8
ENDBRANCH   1   7
BRANCH   4  11
ATOM     11  O   UNL     1      47.361   3.645  14.838  0.00  0.00    +0.000 OA
BRANCH  11  12
ATOM     12  C   UNL     1      47.100   3.830  16.231  0.00  0.00    +0.000 C 
BRANCH  12  13
ATOM     13  C   UNL     1      48.355   3.497  17.044  0.00  0.00    +0.000 C 
ATOM     14  C   UNL     1      49.314   4.695  17.043  0.00  0.00    +0.000 C 
ATOM     15  C   UNL     1      50.623   4.343  17.732  0.00  0.00    +0.000 C 
ATOM     16  O   UNL     1      51.221   3.203  17.118  0.00  0.00    +0.000 OA
ATOM     17  C   UNL     1      50.399   2.042  17.225  0.00  0.00    +0.000 C 
ATOM     18  C   UNL     1      49.071   2.251  16.507  0.00  0.00    +0.000 C 
ENDBRANCH  12  13
ENDBRANCH  11  12
ENDBRANCH   4  11
TORSDOF 5
ENDMDL
MODEL 7
REMARK VINA RESULT:    -4.974      3.228      4.990
REMARK INTER + INTRA:          -6.851
REMARK INTER:                  -6.601
REMARK INTRA:                  -0.251
REMARK UNBOUND:                -0.568
REMARK  Name = 
REMARK  5 active torsions:
REMARK  status: ('A' for Active; 'I' for Inactive)
REMARK    1  A    between atoms: N_1  and  C_2
REMARK    2  A    between atoms: C_2  and  C_3
REMARK    3  A    between atoms: C_6  and  O_7
REMARK    4  A    between atoms: O_7  and  C_8
REMARK    5  A    between atoms: C_8  and  C_9
REMARK                            x       y       z     vdW  Elec       q    Type
REMARK                         _______ _______ _______ _____ _____    ______ ____
ROOT
ATOM      1  C   UNL     1      44.915   4.368  10.302  0.00  0.00    +0.000 A 
ATOM      2  C   UNL     1      45.463   5.534  10.848  0.00  0.00    +0.000 A 
ATOM      3  C   UNL     1      45.824   5.594  12.197  0.00  0.00    +0.000 A 
ATOM      4  C   UNL     1      45.643   4.486  13.024  0.00  0.00    +0.000 A 
ATOM      5  C   UNL     1      45.104   3.317  12.484  0.00  0.00    +0.000 A 
ATOM      6  C   UNL     1      44.742   3.255  11.135  0.00  0.00    +0.000 A 
ENDROOT
BRANCH   1   7
ATOM      7  C   UNL     1      44.502   4.331   8.853  0.00  0.00    +0.000 C 
BRANCH   7   8
ATOM      8  N   UNL     1      45.654   4.433   7.965  0.00  0.00    +0.000 NA
ATOM      9  H   UNL     1      45.358   4.838   7.080  0.00  0.00    +0.000 HD
ATOM     10  H   UNL     1      45.989   3.493   7.757  0.00  0.00    +0.000 HD
ENDBRANCH   7   8
ENDBRANCH   1   7
BRANCH   4  11
ATOM     11  O   UNL     1      45.944   4.431  14.358  0.00  0.00    +0.000 OA
BRANCH  11  12
ATOM     12  C   UNL     1      47.291   4.757  14.708  0.00  0.00    +0.000 C 
BRANCH  12  13
ATOM     13  C   UNL     1      47.501   4.559  16.212  0.00  0.00    +0.000 C 
ATOM     14  C   UNL     1      48.551   5.550  16.730  0.00  0.00    +0.000 C 
ATOM     15  C   UNL     1      48.873   5.285  18.192  0.00  0.00    +0.000 C 
ATOM     16  O   UNL     1      49.302   3.937  18.374  0.00  0.00    +0.000 OA
ATOM     17  C   UNL     1      48.288   2.998  18.021  0.00  0.00    +0.000 C 
ATOM     18  C   UNL     1      47.924   3.123  16.546  0.00  0.00    +0.000 C 
ENDBRANCH  12  13
ENDBRANCH  11  12
ENDBRANCH   4  11
TORSDOF 5
ENDMDL
MODEL 8
REMARK VINA RESULT:    -4.657      2.773      4.164
REMARK INTER + INTRA:          -6.450
REMARK INTER:                  -5.935
REMARK INTRA:                  -0.515
REMARK UNBOUND:                -0.568
REMARK  Name = 
REMARK  5 active torsions:
REMARK  status: ('A' for Active; 'I' for Inactive)
REMARK    1  A    between atoms: N_1  and  C_2
REMARK    2  A    between atoms: C_2  and  C_3
REMARK    3  A    between atoms: C_6  and  O_7
REMARK    4  A    between atoms: O_7  and  C_8
REMARK    5  A    between atoms: C_8  and  C_9
REMARK                            x       y       z     vdW  Elec       q    Type
REMARK                         _______ _______ _______ _____ _____    ______ ____
ROOT
ATOM      1  C   UNL     1      44.874   3.469  10.172  0.00  0.00    +0.000 A 
ATOM      2  C   UNL     1      44.830   3.214  11.548  0.00  0.00    +0.000 A 
ATOM      3  C   UNL     1      45.173   4.204  12.472  0.00  0.00    +0.000 A 
ATOM      4  C   UNL     1      45.569   5.468  12.035  0.00  0.00    +0.000 A 
ATOM      5  C   UNL     1      45.608   5.731  10.665  0.00  0.00    +0.000 A 
ATOM      6  C   UNL     1      45.265   4.741   9.738  0.00  0.00    +0.000 A 
ENDROOT
BRANCH   1   7
ATOM      7  C   UNL     1      44.530   2.380   9.189  0.00  0.00    +0.000 C 
BRANCH   7   8
ATOM      8  N   UNL     1      45.715   1.638   8.774  0.00  0.00    +0.000 NA
ATOM      9  H   UNL     1      45.704   1.531   7.763  0.00  0.00    +0.000 HD
ATOM     10  H   UNL     1      45.664   0.698   9.166  0.00  0.00    +0.000 HD
ENDBRANCH   7   8
ENDBRANCH   1   7
BRANCH   4  11
ATOM     11  O   UNL     1      45.942   6.509  12.843  0.00  0.00    +0.000 OA
BRANCH  11  12
ATOM     12  C   UNL     1      47.246   6.414  13.420  0.00  0.00    +0.000 C 
BRANCH  12  13
ATOM     13  C   UNL     1      48.036   7.695  13.133  0.00  0.00    +0.000 C 
ATOM     14  C   UNL     1      47.081   8.893  13.049  0.00  0.00    +0.000 C 
ATOM     15  C   UNL     1      47.825  10.152  12.635  0.00  0.00    +0.000 C 
ATOM     16  O   UNL     1      48.507   9.948  11.399  0.00  0.00    +0.000 OA
ATOM     17  C   UNL     1      49.495   8.923  11.493  0.00  0.00    +0.000 C 
ATOM     18  C   UNL     1      48.855   7.585  11.841  0.00  0.00    +0.000 C 
ENDBRANCH  12  13
ENDBRANCH  11  12
ENDBRANCH   4  11
TORSDOF 5
ENDMDL
MODEL 9
REMARK VINA RESULT:    -4.654      2.749      4.207
REMARK INTER + INTRA:          -6.446
REMARK INTER:                  -5.940
REMARK INTRA:                  -0.507
REMARK UNBOUND:                -0.568
REMARK  Name = 
REMARK  5 active torsions:
REMARK  status: ('A' for Active; 'I' for Inactive)
REMARK    1  A    between atoms: N_1  and  C_2
REMARK    2  A    between atoms: C_2  and  C_3
REMARK    3  A    between atoms: C_6  and  O_7
REMARK    4  A    between atoms: O_7  and  C_8
REMARK    5  A    between atoms: C_8  and  C_9
REMARK                            x       y       z     vdW  Elec       q    Type
REMARK                         _______ _______ _______ _____ _____    ______ ____
ROOT
ATOM      1  C   UNL     1      44.904   3.436  10.077  0.00  0.00    +0.000 A 
ATOM      2  C   UNL     1      45.293   4.700   9.617  0.00  0.00    +0.000 A 
ATOM      3  C   UNL     1      45.646   5.712  10.513  0.00  0.00    +0.000 A 
ATOM      4  C   UNL     1      45.617   5.477  11.887  0.00  0.00    +0.000 A 
ATOM      5  C   UNL     1      45.238   4.216  12.353  0.00  0.00    +0.000 A 
ATOM      6  C   UNL     1      44.883   3.202  11.457  0.00  0.00    +0.000 A 
ENDROOT
BRANCH   1   7
ATOM      7  C   UNL     1      44.497   2.366   9.097  0.00  0.00    +0.000 C 
BRANCH   7   8
ATOM      8  N   UNL     1      45.571   1.404   8.875  0.00  0.00    +0.000 NA
ATOM      9  H   UNL     1      46.458   1.900   8.833  0.00  0.00    +0.000 HD
ATOM     10  H   UNL     1      45.436   0.970   7.962  0.00  0.00    +0.000 HD
ENDBRANCH   7   8
ENDBRANCH   1   7
BRANCH   4  11
ATOM     11  O   UNL     1      45.925   6.391  12.858  0.00  0.00    +0.000 OA
BRANCH  11  12
ATOM     12  C   UNL     1      46.098   7.738  12.414  0.00  0.00    +0.000 C 
BRANCH  12  13
ATOM     13  C   UNL     1      47.498   8.234  12.787  0.00  0.00    +0.000 C 
ATOM     14  C   UNL     1      48.489   7.902  11.663  0.00  0.00    +0.000 C 
ATOM     15  C   UNL     1      49.909   8.266  12.066  0.00  0.00    +0.000 C 
ATOM     16  O   UNL     1      50.269   7.610  13.281  0.00  0.00    +0.000 OA
ATOM     17  C   UNL     1      49.439   8.006  14.372  0.00  0.00    +0.000 C 
ATOM     18  C   UNL     1      47.985   7.631  14.111  0.00  0.00    +0.000 C 
ENDBRANCH  12  13
ENDBRANCH  11  12
ENDBRANCH   4  11
TORSDOF 5
ENDMDL
