MODEL 1
REMARK VINA RESULT:    -8.678      0.000      0.000
REMARK INTER + INTRA:         -11.325
REMARK INTER:                 -10.708
REMARK INTRA:                  -0.617
REMARK UNBOUND:                -0.617
REMARK  Name = 
REMARK  4 active torsions:
REMARK  status: ('A' for Active; 'I' for Inactive)
REMARK    1  A    between atoms: C_2  and  C_4
REMARK    2  A    between atoms: N_8  and  C_9
REMARK    3  A    between atoms: C_9  and  C_10
REMARK    4  A    between atoms: C_14  and  C_15
REMARK                            x       y       z     vdW  Elec       q    Type
REMARK                         _______ _______ _______ _____ _____    ______ ____
ROOT
ATOM      1  C   UNL     1      43.579   3.887  11.195  0.00  0.00    +0.000 C 
ENDROOT
BRANCH   1   6
ATOM      2  C   UNL     1      46.605   2.523   7.247  0.00  0.00    +0.000 A 
ATOM      3  C   UNL     1      46.084   3.762   7.598  0.00  0.00    +0.000 A 
ATOM      4  C   UNL     1      45.272   3.863   8.727  0.00  0.00    +0.000 A 
ATOM      5  C   UNL     1      44.990   2.728   9.480  0.00  0.00    +0.000 A 
ATOM      6  N   UNL     1      44.249   2.745  10.626  0.00  0.00    +0.000 N 
ATOM      7  N   UNL     1      45.461   1.517   9.124  0.00  0.00    +0.000 NA
ATOM      8  C   UNL     1      46.249   1.432   8.022  0.00  0.00    +0.000 A 
ATOM      9  H   UNL     1      44.045   1.825  10.992  0.00  0.00    +0.000 HD
BRANCH   2  11
ATOM     10  N   UNL     1      47.420   3.257   5.086  0.00  0.00    +0.000 N 
ATOM     11  C   UNL     1      47.502   2.333   6.091  0.00  0.00    +0.000 C 
ATOM     12  O   UNL     1      48.308   1.412   6.048  0.00  0.00    +0.000 OA
ATOM     13  H   UNL     1      48.107   3.181   4.348  0.00  0.00    +0.000 HD
ATOM     14  H   UNL     1      46.964   4.150   5.206  0.00  0.00    +0.000 HD
ENDBRANCH   2  11
ENDBRANCH   1   6
BRANCH   1  15
ATOM     15  C   UNL     1      44.510   4.963  11.708  0.00  0.00    +0.000 A 
ATOM     16  C   UNL     1      44.468   6.295  11.280  0.00  0.00    +0.000 A 
ATOM     17  C   UNL     1      45.317   7.246  11.840  0.00  0.00    +0.000 A 
ATOM     18  C   UNL     1      46.212   6.881  12.847  0.00  0.00    +0.000 A 
ATOM     19  C   UNL     1      46.284   5.558  13.302  0.00  0.00    +0.000 A 
ATOM     20  C   UNL     1      45.433   4.610  12.712  0.00  0.00    +0.000 A 
BRANCH  19  21
ATOM     21  C   UNL     1      47.155   5.196  14.442  0.00  0.00    +0.000 C 
ATOM     22  C   UNL     1      47.012   4.053  15.142  0.00  0.00    +0.000 C 
ATOM     23  C   UNL     1      47.854   3.700  16.335  0.00  0.00    +0.000 C 
ATOM     24  N   UNL     1      49.028   4.556  16.526  0.00  0.00    +0.000 NA
ATOM     25  C   UNL     1      48.682   5.962  16.296  0.00  0.00    +0.000 C 
ATOM     26  C   UNL     1      48.215   6.192  14.853  0.00  0.00    +0.000 C 
ATOM     27  H   UNL     1      49.732   4.279  15.843  0.00  0.00    +0.000 HD
ENDBRANCH  19  21
ENDBRANCH   1  15
TORSDOF 4
ENDMDL
MODEL 2
REMARK VINA RESULT:    -8.670      2.146      3.607
REMARK INTER + INTRA:         -11.315
REMARK INTER:                 -10.610
REMARK INTRA:                  -0.705
REMARK UNBOUND:                -0.617
REMARK  Name = 
REMARK  4 active torsions:
REMARK  status: ('A' for Active; 'I' for Inactive)
REMARK    1  A    between atoms: C_2  and  C_4
REMARK    2  A    between atoms: N_8  and  C_9
REMARK    3  A    between atoms: C_9  and  C_10
REMARK    4  A    between atoms: C_14  and  C_15
REMARK                            x       y       z     vdW  Elec       q    Type
REMARK                         _______ _______ _______ _____ _____    ______ ____
ROOT
ATOM      1  C   UNL     1      43.596   3.598  11.188  0.00  0.00    +0.000 C 
ENDROOT
BRANCH   1   6
ATOM      2  C   UNL     1      46.676   2.452   7.212  0.00  0.00    +0.000 A 
ATOM      3  C   UNL     1      46.228   3.680   7.681  0.00  0.00    +0.000 A 
ATOM      4  C   UNL     1      45.380   3.717   8.787  0.00  0.00    +0.000 A 
ATOM      5  C   UNL     1      44.992   2.532   9.402  0.00  0.00    +0.000 A 
ATOM      6  N   UNL     1      44.209   2.479  10.518  0.00  0.00    +0.000 N 
ATOM      7  N   UNL     1      45.393   1.335   8.930  0.00  0.00    +0.000 NA
ATOM      8  C   UNL     1      46.216   1.312   7.851  0.00  0.00    +0.000 A 
ATOM      9  H   UNL     1      43.928   1.541  10.775  0.00  0.00    +0.000 HD
BRANCH   2  11
ATOM     10  N   UNL     1      47.516   3.274   5.093  0.00  0.00    +0.000 N 
ATOM     11  C   UNL     1      47.603   2.323   6.073  0.00  0.00    +0.000 C 
ATOM     12  O   UNL     1      48.437   1.427   6.020  0.00  0.00    +0.000 OA
ATOM     13  H   UNL     1      48.221   3.240   4.369  0.00  0.00    +0.000 HD
ATOM     14  H   UNL     1      47.032   4.149   5.229  0.00  0.00    +0.000 HD
ENDBRANCH   2  11
ENDBRANCH   1   6
BRANCH   1  15
ATOM     15  C   UNL     1      44.559   4.446  11.990  0.00  0.00    +0.000 A 
ATOM     16  C   UNL     1      45.575   3.917  12.794  0.00  0.00    +0.000 A 
ATOM     17  C   UNL     1      46.464   4.759  13.457  0.00  0.00    +0.000 A 
ATOM     18  C   UNL     1      46.358   6.144  13.314  0.00  0.00    +0.000 A 
ATOM     19  C   UNL     1      45.355   6.710  12.518  0.00  0.00    +0.000 A 
ATOM     20  C   UNL     1      44.457   5.846  11.871  0.00  0.00    +0.000 A 
BRANCH  19  21
ATOM     21  C   UNL     1      45.311   8.170  12.281  0.00  0.00    +0.000 C 
ATOM     22  C   UNL     1      44.386   8.760  11.498  0.00  0.00    +0.000 C 
ATOM     23  C   UNL     1      44.364  10.234  11.206  0.00  0.00    +0.000 C 
ATOM     24  N   UNL     1      45.256  11.035  12.048  0.00  0.00    +0.000 NA
ATOM     25  C   UNL     1      46.551  10.365  12.209  0.00  0.00    +0.000 C 
ATOM     26  C   UNL     1      46.394   9.012  12.916  0.00  0.00    +0.000 C 
ATOM     27  H   UNL     1      44.822  11.125  12.966  0.00  0.00    +0.000 HD
ENDBRANCH  19  21
ENDBRANCH   1  15
TORSDOF 4
ENDMDL
MODEL 3
REMARK VINA RESULT:    -7.396      2.441      3.396
REMARK INTER + INTRA:          -9.743
REMARK INTER:                  -9.027
REMARK INTRA:                  -0.716
REMARK UNBOUND:                -0.617
REMARK  Name = 
REMARK  4 active torsions:
REMARK  status: ('A' for Active; 'I' for Inactive)
REMARK    1  A    between atoms: C_2  and  C_4
REMARK    2  A    between atoms: N_8  and  C_9
REMARK    3  A    between atoms: C_9  and  C_10
REMARK    4  A    between atoms: C_14  and  C_15
REMARK                            x       y       z     vdW  Elec       q    Type
REMARK                         _______ _______ _______ _____ _____    ______ ____
ROOT
ATOM      1  C   UNL     1      43.962   5.425  11.016  0.00  0.00    +0.000 C 
ENDROOT
BRANCH   1   6
ATOM      2  C   UNL     1      46.516   2.906   7.309  0.00  0.00    +0.000 A 
ATOM      3  C   UNL     1      46.659   4.206   7.780  0.00  0.00    +0.000 A 
ATOM      4  C   UNL     1      45.823   4.654   8.801  0.00  0.00    +0.000 A 
ATOM      5  C   UNL     1      44.859   3.803   9.331  0.00  0.00    +0.000 A 
ATOM      6  N   UNL     1      44.036   4.142  10.365  0.00  0.00    +0.000 N 
ATOM      7  N   UNL     1      44.690   2.554   8.854  0.00  0.00    +0.000 NA
ATOM      8  C   UNL     1      45.509   2.129   7.858  0.00  0.00    +0.000 A 
ATOM      9  H   UNL     1      43.320   3.453  10.558  0.00  0.00    +0.000 HD
BRANCH   2  11
ATOM     10  N   UNL     1      47.373   2.968   5.043  0.00  0.00    +0.000 N 
ATOM     11  C   UNL     1      47.381   2.339   6.258  0.00  0.00    +0.000 C 
ATOM     12  O   UNL     1      48.101   1.371   6.471  0.00  0.00    +0.000 OA
ATOM     13  H   UNL     1      48.044   2.638   4.362  0.00  0.00    +0.000 HD
ATOM     14  H   UNL     1      47.001   3.897   4.917  0.00  0.00    +0.000 HD
ENDBRANCH   2  11
ENDBRANCH   1   6
BRANCH   1  15
ATOM     15  C   UNL     1      45.083   5.690  11.997  0.00  0.00    +0.000 A 
ATOM     16  C   UNL     1      45.354   4.878  13.104  0.00  0.00    +0.000 A 
ATOM     17  C   UNL     1      46.441   5.148  13.932  0.00  0.00    +0.000 A 
ATOM     18  C   UNL     1      47.282   6.227  13.655  0.00  0.00    +0.000 A 
ATOM     19  C   UNL     1      47.044   7.062  12.556  0.00  0.00    +0.000 A 
ATOM     20  C   UNL     1      45.933   6.785  11.744  0.00  0.00    +0.000 A 
BRANCH  19  21
ATOM     21  C   UNL     1      47.997   8.138  12.202  0.00  0.00    +0.000 C 
ATOM     22  C   UNL     1      47.606   9.381  11.857  0.00  0.00    +0.000 C 
ATOM     23  C   UNL     1      48.561  10.465  11.442  0.00  0.00    +0.000 C 
ATOM     24  N   UNL     1      49.971  10.165  11.701  0.00  0.00    +0.000 NA
ATOM     25  C   UNL     1      50.277   8.778  11.338  0.00  0.00    +0.000 C 
ATOM     26  C   UNL     1      49.467   7.789  12.187  0.00  0.00    +0.000 C 
ATOM     27  H   UNL     1      50.139  10.284  12.699  0.00  0.00    +0.000 HD
ENDBRANCH  19  21
ENDBRANCH   1  15
TORSDOF 4
ENDMDL
MODEL 4
REMARK VINA RESULT:    -7.019      3.188      8.190
REMARK INTER + INTRA:          -9.278
REMARK INTER:                  -8.812
REMARK INTRA:                  -0.466
REMARK UNBOUND:                -0.617
REMARK  Name = 
REMARK  4 active torsions:
REMARK  status: ('A' for Active; 'I' for Inactive)
REMARK    1  A    between atoms: C_2  and  C_4
REMARK    2  A    between atoms: N_8  and  C_9
REMARK    3  A    between atoms: C_9  and  C_10
REMARK    4  A    between atoms: C_14  and  C_15
REMARK                            x       y       z     vdW  Elec       q    Type
REMARK                         _______ _______ _______ _____ _____    ______ ____
ROOT
ATOM      1  C   UNL     1      46.003   5.498  13.807  0.00  0.00    +0.000 C 
ENDROOT
BRANCH   1   6
ATOM      2  C   UNL     1      49.262   4.324  17.629  0.00  0.00    +0.000 A 
ATOM      3  C   UNL     1      49.127   5.489  16.886  0.00  0.00    +0.000 A 
ATOM      4  C   UNL     1      48.157   5.548  15.886  0.00  0.00    +0.000 A 
ATOM      5  C   UNL     1      47.345   4.446  15.643  0.00  0.00    +0.000 A 
ATOM      6  N   UNL     1      46.339   4.435  14.721  0.00  0.00    +0.000 N 
ATOM      7  N   UNL     1      47.496   3.300  16.335  0.00  0.00    +0.000 NA
ATOM      8  C   UNL     1      48.444   3.253  17.305  0.00  0.00    +0.000 A 
ATOM      9  H   UNL     1      45.916   3.525  14.590  0.00  0.00    +0.000 HD
BRANCH   2  11
ATOM     10  N   UNL     1      49.764   4.378  19.999  0.00  0.00    +0.000 N 
ATOM     11  C   UNL     1      50.235   4.188  18.729  0.00  0.00    +0.000 C 
ATOM     12  O   UNL     1      51.403   3.884  18.521  0.00  0.00    +0.000 OA
ATOM     13  H   UNL     1      50.409   4.182  20.753  0.00  0.00    +0.000 HD
ATOM     14  H   UNL     1      48.778   4.372  20.219  0.00  0.00    +0.000 HD
ENDBRANCH   2  11
ENDBRANCH   1   6
BRANCH   1  15
ATOM     15  C   UNL     1      45.031   5.098  12.719  0.00  0.00    +0.000 A 
ATOM     16  C   UNL     1      43.668   5.415  12.739  0.00  0.00    +0.000 A 
ATOM     17  C   UNL     1      42.844   5.067  11.673  0.00  0.00    +0.000 A 
ATOM     18  C   UNL     1      43.373   4.408  10.562  0.00  0.00    +0.000 A 
ATOM     19  C   UNL     1      44.732   4.073  10.505  0.00  0.00    +0.000 A 
ATOM     20  C   UNL     1      45.545   4.417  11.597  0.00  0.00    +0.000 A 
BRANCH  19  21
ATOM     21  C   UNL     1      45.313   3.473   9.283  0.00  0.00    +0.000 C 
ATOM     22  C   UNL     1      45.513   2.147   9.140  0.00  0.00    +0.000 C 
ATOM     23  C   UNL     1      46.152   1.531   7.928  0.00  0.00    +0.000 C 
ATOM     24  N   UNL     1      46.298   2.441   6.788  0.00  0.00    +0.000 NA
ATOM     25  C   UNL     1      46.758   3.758   7.237  0.00  0.00    +0.000 C 
ATOM     26  C   UNL     1      45.739   4.413   8.179  0.00  0.00    +0.000 C 
ATOM     27  H   UNL     1      45.382   2.547   6.354  0.00  0.00    +0.000 HD
ENDBRANCH  19  21
ENDBRANCH   1  15
TORSDOF 4
ENDMDL
MODEL 5
REMARK VINA RESULT:    -6.958      3.746      8.391
REMARK INTER + INTRA:          -9.203
REMARK INTER:                  -8.494
REMARK INTRA:                  -0.708
REMARK UNBOUND:                -0.617
REMARK  Name = 
REMARK  4 active torsions:
REMARK  status: ('A' for Active; 'I' for Inactive)
REMARK    1  A    between atoms: C_2  and  C_4
REMARK    2  A    between atoms: N_8  and  C_9
REMARK    3  A    between atoms: C_9  and  C_10
REMARK    4  A    between atoms: C_14  and  C_15
REMARK                            x       y       z     vdW  Elec       q    Type
REMARK                         _______ _______ _______ _____ _____    ______ ____
ROOT
ATOM      1  C   UNL     1      47.153   4.157  16.318  0.00  0.00    +0.000 C 
ENDROOT
BRANCH   1   6
ATOM      2  C   UNL     1      51.811   2.545  17.839  0.00  0.00    +0.000 A 
ATOM      3  C   UNL     1      51.173   3.765  18.026  0.00  0.00    +0.000 A 
ATOM      4  C   UNL     1      49.897   3.952  17.497  0.00  0.00    +0.000 A 
ATOM      5  C   UNL     1      49.283   2.925  16.789  0.00  0.00    +0.000 A 
ATOM      6  N   UNL     1      48.018   3.005  16.283  0.00  0.00    +0.000 N 
ATOM      7  N   UNL     1      49.911   1.753  16.572  0.00  0.00    +0.000 NA
ATOM      8  C   UNL     1      51.154   1.583  17.090  0.00  0.00    +0.000 A 
ATOM      9  H   UNL     1      47.762   2.217  15.703  0.00  0.00    +0.000 HD
BRANCH   2  11
ATOM     10  N   UNL     1      53.406   2.712  19.655  0.00  0.00    +0.000 N 
ATOM     11  C   UNL     1      53.145   2.248  18.395  0.00  0.00    +0.000 C 
ATOM     12  O   UNL     1      53.969   1.588  17.774  0.00  0.00    +0.000 OA
ATOM     13  H   UNL     1      54.280   2.417  20.071  0.00  0.00    +0.000 HD
ATOM     14  H   UNL     1      52.678   3.025  20.280  0.00  0.00    +0.000 HD
ENDBRANCH   2  11
ENDBRANCH   1   6
BRANCH   1  15
ATOM     15  C   UNL     1      47.217   5.020  15.077  0.00  0.00    +0.000 A 
ATOM     16  C   UNL     1      48.128   6.070  14.908  0.00  0.00    +0.000 A 
ATOM     17  C   UNL     1      48.171   6.784  13.713  0.00  0.00    +0.000 A 
ATOM     18  C   UNL     1      47.313   6.450  12.664  0.00  0.00    +0.000 A 
ATOM     19  C   UNL     1      46.388   5.406  12.796  0.00  0.00    +0.000 A 
ATOM     20  C   UNL     1      46.347   4.708  14.014  0.00  0.00    +0.000 A 
BRANCH  19  21
ATOM     21  C   UNL     1      45.556   4.983  11.648  0.00  0.00    +0.000 C 
ATOM     22  C   UNL     1      44.619   4.018  11.736  0.00  0.00    +0.000 C 
ATOM     23  C   UNL     1      43.806   3.542  10.565  0.00  0.00    +0.000 C 
ATOM     24  N   UNL     1      43.907   4.386   9.371  0.00  0.00    +0.000 NA
ATOM     25  C   UNL     1      45.296   4.796   9.146  0.00  0.00    +0.000 C 
ATOM     26  C   UNL     1      45.822   5.642  10.314  0.00  0.00    +0.000 C 
ATOM     27  H   UNL     1      43.343   5.220   9.529  0.00  0.00    +0.000 HD
ENDBRANCH  19  21
ENDBRANCH   1  15
TORSDOF 4
ENDMDL
MODEL 6
REMARK VINA RESULT:    -6.822      2.820      7.630
REMARK INTER + INTRA:          -9.035
REMARK INTER:                  -8.658
REMARK INTRA:                  -0.377
REMARK UNBOUND:                -0.617
REMARK  Name = 
REMARK  4 active torsions:
REMARK  status: ('A' for Active; 'I' for Inactive)
REMARK    1  A    between atoms: C_2  and  C_4
REMARK    2  A    between atoms: N_8  and  C_9
REMARK    3  A    between atoms: C_9  and  C_10
REMARK    4  A    between atoms: C_14  and  C_15
REMARK                            x       y       z     vdW  Elec       q    Type
REMARK                         _______ _______ _______ _____ _____    ______ ____
ROOT
ATOM      1  C   UNL     1      44.530   6.286  11.008  0.00  0.00    +0.000 C 
ENDROOT
BRANCH   1   6
ATOM      2  C   UNL     1      47.571   5.180  15.026  0.00  0.00    +0.000 A 
ATOM      3  C   UNL     1      46.400   4.574  14.587  0.00  0.00    +0.000 A 
ATOM      4  C   UNL     1      45.755   5.080  13.460  0.00  0.00    +0.000 A 
ATOM      5  C   UNL     1      46.283   6.182  12.795  0.00  0.00    +0.000 A 
ATOM      6  N   UNL     1      45.745   6.708  11.656  0.00  0.00    +0.000 N 
ATOM      7  N   UNL     1      47.397   6.797  13.237  0.00  0.00    +0.000 NA
ATOM      8  C   UNL     1      48.016   6.296  14.336  0.00  0.00    +0.000 A 
ATOM      9  H   UNL     1      46.183   7.571  11.361  0.00  0.00    +0.000 HD
BRANCH   2  11
ATOM     10  N   UNL     1      47.861   3.570  16.813  0.00  0.00    +0.000 N 
ATOM     11  C   UNL     1      48.338   4.688  16.185  0.00  0.00    +0.000 C 
ATOM     12  O   UNL     1      49.373   5.232  16.550  0.00  0.00    +0.000 OA
ATOM     13  H   UNL     1      48.445   3.178  17.539  0.00  0.00    +0.000 HD
ATOM     14  H   UNL     1      47.175   2.962  16.390  0.00  0.00    +0.000 HD
ENDBRANCH   2  11
ENDBRANCH   1   6
BRANCH   1  15
ATOM     15  C   UNL     1      44.515   4.829  10.603  0.00  0.00    +0.000 A 
ATOM     16  C   UNL     1      43.652   3.876  11.158  0.00  0.00    +0.000 A 
ATOM     17  C   UNL     1      43.652   2.564  10.693  0.00  0.00    +0.000 A 
ATOM     18  C   UNL     1      44.507   2.187   9.656  0.00  0.00    +0.000 A 
ATOM     19  C   UNL     1      45.385   3.111   9.075  0.00  0.00    +0.000 A 
ATOM     20  C   UNL     1      45.383   4.426   9.569  0.00  0.00    +0.000 A 
BRANCH  19  21
ATOM     21  C   UNL     1      46.212   2.738   7.906  0.00  0.00    +0.000 C 
ATOM     22  C   UNL     1      46.411   3.559   6.855  0.00  0.00    +0.000 C 
ATOM     23  C   UNL     1      47.202   3.171   5.638  0.00  0.00    +0.000 C 
ATOM     24  N   UNL     1      47.976   1.935   5.784  0.00  0.00    +0.000 NA
ATOM     25  C   UNL     1      47.183   0.909   6.467  0.00  0.00    +0.000 C 
ATOM     26  C   UNL     1      46.809   1.350   7.889  0.00  0.00    +0.000 C 
ATOM     27  H   UNL     1      48.795   2.144   6.352  0.00  0.00    +0.000 HD
ENDBRANCH  19  21
ENDBRANCH   1  15
TORSDOF 4
ENDMDL
MODEL 7
REMARK VINA RESULT:    -6.753      3.559      7.211
REMARK INTER + INTRA:          -8.949
REMARK INTER:                  -8.226
REMARK INTRA:                  -0.723
REMARK UNBOUND:                -0.617
REMARK  Name = 
REMARK  4 active torsions:
REMARK  status: ('A' for Active; 'I' for Inactive)
REMARK    1  A    between atoms: C_2  and  C_4
REMARK    2  A    between atoms: N_8  and  C_9
REMARK    3  A    between atoms: C_9  and  C_10
REMARK    4  A    between atoms: C_14  and  C_15
REMARK                            x       y       z     vdW  Elec       q    Type
REMARK                         _______ _______ _______ _____ _____    ______ ____
ROOT
ATOM      1  C   UNL     1      45.113   7.457  12.246  0.00  0.00    +0.000 C 
ENDROOT
BRANCH   1   6
ATOM      2  C   UNL     1      50.184   8.106  12.933  0.00  0.00    +0.000 A 
ATOM      3  C   UNL     1      49.410   8.202  11.783  0.00  0.00    +0.000 A 
ATOM      4  C   UNL     1      48.038   7.966  11.866  0.00  0.00    +0.000 A 
ATOM      5  C   UNL     1      47.465   7.635  13.089  0.00  0.00    +0.000 A 
ATOM      6  N   UNL     1      46.126   7.439  13.270  0.00  0.00    +0.000 N 
ATOM      7  N   UNL     1      48.215   7.504  14.200  0.00  0.00    +0.000 NA
ATOM      8  C   UNL     1      49.550   7.734  14.107  0.00  0.00    +0.000 A 
ATOM      9  H   UNL     1      45.886   7.099  14.192  0.00  0.00    +0.000 HD
BRANCH   2  11
ATOM     10  N   UNL     1      52.355   7.922  11.872  0.00  0.00    +0.000 N 
ATOM     11  C   UNL     1      51.634   8.375  12.943  0.00  0.00    +0.000 C 
ATOM     12  O   UNL     1      52.165   9.005  13.850  0.00  0.00    +0.000 OA
ATOM     13  H   UNL     1      53.326   8.200  11.834  0.00  0.00    +0.000 HD
ATOM     14  H   UNL     1      51.919   7.637  11.007  0.00  0.00    +0.000 HD
ENDBRANCH   2  11
ENDBRANCH   1   6
BRANCH   1  15
ATOM     15  C   UNL     1      44.577   6.091  11.878  0.00  0.00    +0.000 A 
ATOM     16  C   UNL     1      43.447   5.514  12.471  0.00  0.00    +0.000 A 
ATOM     17  C   UNL     1      42.975   4.277  12.040  0.00  0.00    +0.000 A 
ATOM     18  C   UNL     1      43.617   3.605  10.999  0.00  0.00    +0.000 A 
ATOM     19  C   UNL     1      44.750   4.150  10.380  0.00  0.00    +0.000 A 
ATOM     20  C   UNL     1      45.222   5.390  10.841  0.00  0.00    +0.000 A 
BRANCH  19  21
ATOM     21  C   UNL     1      45.364   3.489   9.207  0.00  0.00    +0.000 C 
ATOM     22  C   UNL     1      45.558   2.157   9.133  0.00  0.00    +0.000 C 
ATOM     23  C   UNL     1      46.230   1.481   7.971  0.00  0.00    +0.000 C 
ATOM     24  N   UNL     1      46.419   2.335   6.796  0.00  0.00    +0.000 NA
ATOM     25  C   UNL     1      46.875   3.669   7.197  0.00  0.00    +0.000 C 
ATOM     26  C   UNL     1      45.832   4.374   8.075  0.00  0.00    +0.000 C 
ATOM     27  H   UNL     1      45.518   2.427   6.328  0.00  0.00    +0.000 HD
ENDBRANCH  19  21
ENDBRANCH   1  15
TORSDOF 4
ENDMDL
MODEL 8
REMARK VINA RESULT:    -6.673      2.995      5.112
REMARK INTER + INTRA:          -8.850
REMARK INTER:                  -8.143
REMARK INTRA:                  -0.708
REMARK UNBOUND:                -0.617
REMARK  Name = 
REMARK  4 active torsions:
REMARK  status: ('A' for Active; 'I' for Inactive)
REMARK    1  A    between atoms: C_2  and  C_4
REMARK    2  A    between atoms: N_8  and  C_9
REMARK    3  A    between atoms: C_9  and  C_10
REMARK    4  A    between atoms: C_14  and  C_15
REMARK                            x       y       z     vdW  Elec       q    Type
REMARK                         _______ _______ _______ _____ _____    ______ ____
ROOT
ATOM      1  C   UNL     1      47.727   8.556  13.490  0.00  0.00    +0.000 C 
ENDROOT
BRANCH   1   6
ATOM      2  C   UNL     1      44.695   5.236  10.962  0.00  0.00    +0.000 A 
ATOM      3  C   UNL     1      45.962   5.715  10.654  0.00  0.00    +0.000 A 
ATOM      4  C   UNL     1      46.570   6.628  11.513  0.00  0.00    +0.000 A 
ATOM      5  C   UNL     1      45.905   7.051  12.658  0.00  0.00    +0.000 A 
ATOM      6  N   UNL     1      46.447   7.901  13.578  0.00  0.00    +0.000 N 
ATOM      7  N   UNL     1      44.661   6.620  12.944  0.00  0.00    +0.000 NA
ATOM      8  C   UNL     1      44.078   5.732  12.099  0.00  0.00    +0.000 A 
ATOM      9  H   UNL     1      45.795   8.195  14.294  0.00  0.00    +0.000 HD
BRANCH   2  11
ATOM     10  N   UNL     1      44.094   4.387   8.773  0.00  0.00    +0.000 N 
ATOM     11  C   UNL     1      43.993   4.241  10.130  0.00  0.00    +0.000 C 
ATOM     12  O   UNL     1      43.378   3.305  10.627  0.00  0.00    +0.000 OA
ATOM     13  H   UNL     1      43.700   3.645   8.210  0.00  0.00    +0.000 HD
ATOM     14  H   UNL     1      44.790   4.978   8.342  0.00  0.00    +0.000 HD
ENDBRANCH   2  11
ENDBRANCH   1   6
BRANCH   1  15
ATOM     15  C   UNL     1      48.806   7.930  14.345  0.00  0.00    +0.000 A 
ATOM     16  C   UNL     1      50.124   8.400  14.401  0.00  0.00    +0.000 A 
ATOM     17  C   UNL     1      51.050   7.812  15.257  0.00  0.00    +0.000 A 
ATOM     18  C   UNL     1      50.669   6.752  16.082  0.00  0.00    +0.000 A 
ATOM     19  C   UNL     1      49.360   6.254  16.055  0.00  0.00    +0.000 A 
ATOM     20  C   UNL     1      48.445   6.848  15.172  0.00  0.00    +0.000 A 
BRANCH  19  21
ATOM     21  C   UNL     1      48.930   5.204  17.006  0.00  0.00    +0.000 C 
ATOM     22  C   UNL     1      48.002   4.275  16.703  0.00  0.00    +0.000 C 
ATOM     23  C   UNL     1      47.518   3.239  17.678  0.00  0.00    +0.000 C 
ATOM     24  N   UNL     1      48.319   3.131  18.900  0.00  0.00    +0.000 NA
ATOM     25  C   UNL     1      48.673   4.463  19.402  0.00  0.00    +0.000 C 
ATOM     26  C   UNL     1      49.537   5.227  18.390  0.00  0.00    +0.000 C 
ATOM     27  H   UNL     1      49.177   2.633  18.669  0.00  0.00    +0.000 HD
ENDBRANCH  19  21
ENDBRANCH   1  15
TORSDOF 4
ENDMDL
MODEL 9
REMARK VINA RESULT:    -6.510      3.976      8.593
REMARK INTER + INTRA:          -8.650
REMARK INTER:                  -7.944
REMARK INTRA:                  -0.706
REMARK UNBOUND:                -0.617
REMARK  Name = 
REMARK  4 active torsions:
REMARK  status: ('A' for Active; 'I' for Inactive)
REMARK    1  A    between atoms: C_2  and  C_4
REMARK    2  A    between atoms: N_8  and  C_9
REMARK    3  A    between atoms: C_9  and  C_10
REMARK    4  A    between atoms: C_14  and  C_15
REMARK                            x       y       z     vdW  Elec       q    Type
REMARK                         _______ _______ _______ _____ _____    ______ ____
ROOT
ATOM      1  C   UNL     1      48.756   7.176  13.899  0.00  0.00    +0.000 C 
ENDROOT
BRANCH   1   6
ATOM      2  C   UNL     1      48.680   5.097  18.620  0.00  0.00    +0.000 A 
ATOM      3  C   UNL     1      48.610   4.497  17.369  0.00  0.00    +0.000 A 
ATOM      4  C   UNL     1      48.642   5.298  16.228  0.00  0.00    +0.000 A 
ATOM      5  C   UNL     1      48.739   6.680  16.355  0.00  0.00    +0.000 A 
ATOM      6  N   UNL     1      48.828   7.533  15.293  0.00  0.00    +0.000 N 
ATOM      7  N   UNL     1      48.770   7.271  17.565  0.00  0.00    +0.000 NA
ATOM      8  C   UNL     1      48.736   6.481  18.668  0.00  0.00    +0.000 A 
ATOM      9  H   UNL     1      48.781   8.510  15.551  0.00  0.00    +0.000 HD
BRANCH   2  11
ATOM     10  N   UNL     1      48.346   3.003  19.792  0.00  0.00    +0.000 N 
ATOM     11  C   UNL     1      48.691   4.325  19.876  0.00  0.00    +0.000 C 
ATOM     12  O   UNL     1      49.026   4.831  20.940  0.00  0.00    +0.000 OA
ATOM     13  H   UNL     1      48.455   2.456  20.635  0.00  0.00    +0.000 HD
ATOM     14  H   UNL     1      48.319   2.504  18.915  0.00  0.00    +0.000 HD
ENDBRANCH   2  11
ENDBRANCH   1   6
BRANCH   1  15
ATOM     15  C   UNL     1      47.371   7.283  13.300  0.00  0.00    +0.000 A 
ATOM     16  C   UNL     1      46.677   8.491  13.163  0.00  0.00    +0.000 A 
ATOM     17  C   UNL     1      45.429   8.524  12.546  0.00  0.00    +0.000 A 
ATOM     18  C   UNL     1      44.863   7.351  12.045  0.00  0.00    +0.000 A 
ATOM     19  C   UNL     1      45.527   6.124  12.163  0.00  0.00    +0.000 A 
ATOM     20  C   UNL     1      46.777   6.107  12.803  0.00  0.00    +0.000 A 
BRANCH  19  21
ATOM     21  C   UNL     1      44.977   4.902  11.536  0.00  0.00    +0.000 C 
ATOM     22  C   UNL     1      44.967   4.700  10.203  0.00  0.00    +0.000 C 
ATOM     23  C   UNL     1      44.361   3.489   9.552  0.00  0.00    +0.000 C 
ATOM     24  N   UNL     1      44.021   2.406  10.478  0.00  0.00    +0.000 NA
ATOM     25  C   UNL     1      43.396   2.943  11.690  0.00  0.00    +0.000 C 
ATOM     26  C   UNL     1      44.357   3.869  12.449  0.00  0.00    +0.000 C 
ATOM     27  H   UNL     1      44.886   1.935  10.740  0.00  0.00    +0.000 HD
ENDBRANCH  19  21
ENDBRANCH   1  15
TORSDOF 4
ENDMDL
