MODEL 1
REMARK VINA RESULT:    -7.501      0.000      0.000
REMARK INTER + INTRA:          -9.617
REMARK INTER:                  -9.036
REMARK INTRA:                  -0.581
REMARK UNBOUND:                -0.581
REMARK  Name = 
REMARK  5 active torsions:
REMARK  status: ('A' for Active; 'I' for Inactive)
REMARK    1  A    between atoms: C_1  and  C_2
REMARK    2  A    between atoms: N_8  and  C_9
REMARK    3  A    between atoms: C_9  and  C_10
REMARK    4  A    between atoms: C_17  and  C_18
REMARK    5  A    between atoms: C_18  and  N_19
REMARK                            x       y       z     vdW  Elec       q    Type
REMARK                         _______ _______ _______ _____ _____    ______ ____
ROOT
ATOM      1  C   UNL     1      47.983   7.390  11.576  0.00  0.00    +0.000 C 
ATOM      2  C   UNL     1      46.961   6.360  11.982  0.00  0.00    +0.000 A 
ATOM      3  C   UNL     1      46.118   5.835  10.980  0.00  0.00    +0.000 A 
ATOM      4  C   UNL     1      45.199   4.827  11.315  0.00  0.00    +0.000 A 
ATOM      5  C   UNL     1      45.067   4.369  12.627  0.00  0.00    +0.000 A 
ATOM      6  C   UNL     1      44.057   3.371  12.632  0.00  0.00    +0.000 A 
ATOM      7  C   UNL     1      43.618   3.215  11.337  0.00  0.00    +0.000 A 
ATOM      8  N   UNL     1      44.316   4.094  10.544  0.00  0.00    +0.000 N 
ATOM      9  C   UNL     1      45.898   4.914  13.624  0.00  0.00    +0.000 A 
ATOM     10  C   UNL     1      46.861   5.898  13.309  0.00  0.00    +0.000 A 
ENDROOT
BRANCH   8  11
ATOM     11  C   UNL     1      44.223   4.124   9.088  0.00  0.00    +0.000 C 
BRANCH  11  12
ATOM     12  C   UNL     1      45.321   3.329   8.435  0.00  0.00    +0.000 A 
ATOM     13  C   UNL     1      46.241   3.942   7.579  0.00  0.00    +0.000 A 
ATOM     14  C   UNL     1      47.221   3.163   6.985  0.00  0.00    +0.000 A 
ATOM     15  N   UNL     1      47.349   1.835   7.187  0.00  0.00    +0.000 NA
ATOM     16  C   UNL     1      46.457   1.259   8.017  0.00  0.00    +0.000 A 
ATOM     17  C   UNL     1      45.439   1.951   8.656  0.00  0.00    +0.000 A 
ENDBRANCH  11  12
ENDBRANCH   8  11
BRANCH  10  18
ATOM     18  C   UNL     1      47.782   6.361  14.417  0.00  0.00    +0.000 C 
BRANCH  18  19
ATOM     19  N   UNL     1      47.843   5.403  15.517  0.00  0.00    +0.000 NA
ATOM     20  H   UNL     1      47.554   4.490  15.170  0.00  0.00    +0.000 HD
ATOM     21  H   UNL     1      47.169   5.672  16.231  0.00  0.00    +0.000 HD
ENDBRANCH  18  19
ENDBRANCH  10  18
TORSDOF 4
ENDMDL
MODEL 2
REMARK VINA RESULT:    -6.737      1.670      2.179
REMARK INTER + INTRA:          -8.696
REMARK INTER:                  -8.111
REMARK INTRA:                  -0.586
REMARK UNBOUND:                -0.581
REMARK  Name = 
REMARK  5 active torsions:
REMARK  status: ('A' for Active; 'I' for Inactive)
REMARK    1  A    between atoms: C_1  and  C_2
REMARK    2  A    between atoms: N_8  and  C_9
REMARK    3  A    between atoms: C_9  and  C_10
REMARK    4  A    between atoms: C_17  and  C_18
REMARK    5  A    between atoms: C_18  and  N_19
REMARK                            x       y       z     vdW  Elec       q    Type
REMARK                         _______ _______ _______ _____ _____    ______ ____
ROOT
ATOM      1  C   UNL     1      44.829   9.048  11.201  0.00  0.00    +0.000 C 
ATOM      2  C   UNL     1      45.267   7.761  11.849  0.00  0.00    +0.000 A 
ATOM      3  C   UNL     1      44.746   6.554  11.337  0.00  0.00    +0.000 A 
ATOM      4  C   UNL     1      45.184   5.333  11.877  0.00  0.00    +0.000 A 
ATOM      5  C   UNL     1      46.087   5.290  12.941  0.00  0.00    +0.000 A 
ATOM      6  C   UNL     1      46.314   3.925  13.255  0.00  0.00    +0.000 A 
ATOM      7  C   UNL     1      45.583   3.166  12.370  0.00  0.00    +0.000 A 
ATOM      8  N   UNL     1      44.907   4.023  11.534  0.00  0.00    +0.000 N 
ATOM      9  C   UNL     1      46.585   6.501  13.459  0.00  0.00    +0.000 A 
ATOM     10  C   UNL     1      46.195   7.741  12.908  0.00  0.00    +0.000 A 
ENDROOT
BRANCH   8  11
ATOM     11  C   UNL     1      44.133   3.587  10.377  0.00  0.00    +0.000 C 
BRANCH  11  12
ATOM     12  C   UNL     1      45.016   3.192   9.224  0.00  0.00    +0.000 A 
ATOM     13  C   UNL     1      45.359   1.854   9.006  0.00  0.00    +0.000 A 
ATOM     14  C   UNL     1      46.192   1.544   7.943  0.00  0.00    +0.000 A 
ATOM     15  N   UNL     1      46.697   2.462   7.091  0.00  0.00    +0.000 NA
ATOM     16  C   UNL     1      46.356   3.747   7.314  0.00  0.00    +0.000 A 
ATOM     17  C   UNL     1      45.532   4.158   8.351  0.00  0.00    +0.000 A 
ENDBRANCH  11  12
ENDBRANCH   8  11
BRANCH  10  18
ATOM     18  C   UNL     1      46.851   8.991  13.455  0.00  0.00    +0.000 C 
BRANCH  18  19
ATOM     19  N   UNL     1      47.211   8.852  14.863  0.00  0.00    +0.000 NA
ATOM     20  H   UNL     1      48.225   8.800  14.936  0.00  0.00    +0.000 HD
ATOM     21  H   UNL     1      46.845   7.969  15.215  0.00  0.00    +0.000 HD
ENDBRANCH  18  19
ENDBRANCH  10  18
TORSDOF 4
ENDMDL
MODEL 3
REMARK VINA RESULT:    -6.588      1.748      5.816
REMARK INTER + INTRA:          -8.517
REMARK INTER:                  -8.087
REMARK INTRA:                  -0.430
REMARK UNBOUND:                -0.581
REMARK  Name = 
REMARK  5 active torsions:
REMARK  status: ('A' for Active; 'I' for Inactive)
REMARK    1  A    between atoms: C_1  and  C_2
REMARK    2  A    between atoms: N_8  and  C_9
REMARK    3  A    between atoms: C_9  and  C_10
REMARK    4  A    between atoms: C_17  and  C_18
REMARK    5  A    between atoms: C_18  and  N_19
REMARK                            x       y       z     vdW  Elec       q    Type
REMARK                         _______ _______ _______ _____ _____    ______ ____
ROOT
ATOM      1  C   UNL     1      46.997   4.099   6.694  0.00  0.00    +0.000 C 
ATOM      2  C   UNL     1      46.187   3.530   7.829  0.00  0.00    +0.000 A 
ATOM      3  C   UNL     1      45.514   4.434   8.678  0.00  0.00    +0.000 A 
ATOM      4  C   UNL     1      44.699   3.932   9.706  0.00  0.00    +0.000 A 
ATOM      5  C   UNL     1      44.579   2.561   9.937  0.00  0.00    +0.000 A 
ATOM      6  C   UNL     1      43.704   2.388  11.041  0.00  0.00    +0.000 A 
ATOM      7  C   UNL     1      43.283   3.635  11.440  0.00  0.00    +0.000 A 
ATOM      8  N   UNL     1      43.883   4.566  10.625  0.00  0.00    +0.000 N 
ATOM      9  C   UNL     1      45.272   1.668   9.098  0.00  0.00    +0.000 A 
ATOM     10  C   UNL     1      46.065   2.142   8.030  0.00  0.00    +0.000 A 
ENDROOT
BRANCH   8  11
ATOM     11  C   UNL     1      43.573   5.991  10.655  0.00  0.00    +0.000 C 
BRANCH  11  12
ATOM     12  C   UNL     1      44.564   6.767  11.479  0.00  0.00    +0.000 A 
ATOM     13  C   UNL     1      45.471   6.111  12.318  0.00  0.00    +0.000 A 
ATOM     14  C   UNL     1      46.350   6.872  13.074  0.00  0.00    +0.000 A 
ATOM     15  N   UNL     1      46.389   8.221  13.047  0.00  0.00    +0.000 NA
ATOM     16  C   UNL     1      45.510   8.837  12.233  0.00  0.00    +0.000 A 
ATOM     17  C   UNL     1      44.590   8.166  11.441  0.00  0.00    +0.000 A 
ENDBRANCH  11  12
ENDBRANCH   8  11
BRANCH  10  18
ATOM     18  C   UNL     1      46.696   1.115   7.113  0.00  0.00    +0.000 C 
BRANCH  18  19
ATOM     19  N   UNL     1      46.859  -0.179   7.767  0.00  0.00    +0.000 NA
ATOM     20  H   UNL     1      47.756  -0.190   8.249  0.00  0.00    +0.000 HD
ATOM     21  H   UNL     1      46.897  -0.909   7.059  0.00  0.00    +0.000 HD
ENDBRANCH  18  19
ENDBRANCH  10  18
TORSDOF 4
ENDMDL
MODEL 4
REMARK VINA RESULT:    -5.852      1.729      2.419
REMARK INTER + INTRA:          -7.631
REMARK INTER:                  -7.168
REMARK INTRA:                  -0.462
REMARK UNBOUND:                -0.581
REMARK  Name = 
REMARK  5 active torsions:
REMARK  status: ('A' for Active; 'I' for Inactive)
REMARK    1  A    between atoms: C_1  and  C_2
REMARK    2  A    between atoms: N_8  and  C_9
REMARK    3  A    between atoms: C_9  and  C_10
REMARK    4  A    between atoms: C_17  and  C_18
REMARK    5  A    between atoms: C_18  and  N_19
REMARK                            x       y       z     vdW  Elec       q    Type
REMARK                         _______ _______ _______ _____ _____    ______ ____
ROOT
ATOM      1  C   UNL     1      48.487   9.262  11.475  0.00  0.00    +0.000 C 
ATOM      2  C   UNL     1      48.011   8.050  12.233  0.00  0.00    +0.000 A 
ATOM      3  C   UNL     1      46.865   7.380  11.754  0.00  0.00    +0.000 A 
ATOM      4  C   UNL     1      46.434   6.210  12.402  0.00  0.00    +0.000 A 
ATOM      5  C   UNL     1      47.085   5.724  13.536  0.00  0.00    +0.000 A 
ATOM      6  C   UNL     1      46.403   4.550  13.950  0.00  0.00    +0.000 A 
ATOM      7  C   UNL     1      45.383   4.322  13.056  0.00  0.00    +0.000 A 
ATOM      8  N   UNL     1      45.410   5.326  12.117  0.00  0.00    +0.000 N 
ATOM      9  C   UNL     1      48.214   6.412  14.019  0.00  0.00    +0.000 A 
ATOM     10  C   UNL     1      48.696   7.567  13.364  0.00  0.00    +0.000 A 
ENDROOT
BRANCH   8  11
ATOM     11  C   UNL     1      44.565   5.349  10.928  0.00  0.00    +0.000 C 
BRANCH  11  12
ATOM     12  C   UNL     1      45.037   4.379   9.880  0.00  0.00    +0.000 A 
ATOM     13  C   UNL     1      45.809   4.811   8.797  0.00  0.00    +0.000 A 
ATOM     14  C   UNL     1      46.202   3.882   7.846  0.00  0.00    +0.000 A 
ATOM     15  N   UNL     1      45.888   2.570   7.903  0.00  0.00    +0.000 NA
ATOM     16  C   UNL     1      45.145   2.170   8.954  0.00  0.00    +0.000 A 
ATOM     17  C   UNL     1      44.701   3.022   9.954  0.00  0.00    +0.000 A 
ENDBRANCH  11  12
ENDBRANCH   8  11
BRANCH  10  18
ATOM     18  C   UNL     1      49.973   8.190  13.886  0.00  0.00    +0.000 C 
BRANCH  18  19
ATOM     19  N   UNL     1      51.147   7.744  13.142  0.00  0.00    +0.000 NA
ATOM     20  H   UNL     1      50.888   7.629  12.164  0.00  0.00    +0.000 HD
ATOM     21  H   UNL     1      51.427   6.825  13.481  0.00  0.00    +0.000 HD
ENDBRANCH  18  19
ENDBRANCH  10  18
TORSDOF 4
ENDMDL
MODEL 5
REMARK VINA RESULT:    -5.792      1.759      5.839
REMARK INTER + INTRA:          -7.558
REMARK INTER:                  -7.124
REMARK INTRA:                  -0.434
REMARK UNBOUND:                -0.581
REMARK  Name = 
REMARK  5 active torsions:
REMARK  status: ('A' for Active; 'I' for Inactive)
REMARK    1  A    between atoms: C_1  and  C_2
REMARK    2  A    between atoms: N_8  and  C_9
REMARK    3  A    between atoms: C_9  and  C_10
REMARK    4  A    between atoms: C_17  and  C_18
REMARK    5  A    between atoms: C_18  and  N_19
REMARK                            x       y       z     vdW  Elec       q    Type
REMARK                         _______ _______ _______ _____ _____    ______ ____
ROOT
ATOM      1  C   UNL     1      46.279   4.147   7.527  0.00  0.00    +0.000 C 
ATOM      2  C   UNL     1      45.615   4.102   8.878  0.00  0.00    +0.000 A 
ATOM      3  C   UNL     1      45.690   5.253   9.690  0.00  0.00    +0.000 A 
ATOM      4  C   UNL     1      45.026   5.265  10.928  0.00  0.00    +0.000 A 
ATOM      5  C   UNL     1      44.334   4.146  11.393  0.00  0.00    +0.000 A 
ATOM      6  C   UNL     1      43.794   4.476  12.664  0.00  0.00    +0.000 A 
ATOM      7  C   UNL     1      44.130   5.782  12.935  0.00  0.00    +0.000 A 
ATOM      8  N   UNL     1      44.870   6.257  11.878  0.00  0.00    +0.000 N 
ATOM      9  C   UNL     1      44.283   2.995  10.586  0.00  0.00    +0.000 A 
ATOM     10  C   UNL     1      44.905   2.968   9.318  0.00  0.00    +0.000 A 
ENDROOT
BRANCH   8  11
ATOM     11  C   UNL     1      45.291   7.647  11.742  0.00  0.00    +0.000 C 
BRANCH  11  12
ATOM     12  C   UNL     1      46.642   7.891  12.360  0.00  0.00    +0.000 A 
ATOM     13  C   UNL     1      47.805   7.389  11.768  0.00  0.00    +0.000 A 
ATOM     14  C   UNL     1      49.022   7.623  12.387  0.00  0.00    +0.000 A 
ATOM     15  N   UNL     1      49.159   8.317  13.537  0.00  0.00    +0.000 NA
ATOM     16  C   UNL     1      48.029   8.796  14.094  0.00  0.00    +0.000 A 
ATOM     17  C   UNL     1      46.765   8.613  13.554  0.00  0.00    +0.000 A 
ENDBRANCH  11  12
ENDBRANCH   8  11
BRANCH  10  18
ATOM     18  C   UNL     1      44.719   1.729   8.470  0.00  0.00    +0.000 C 
BRANCH  18  19
ATOM     19  N   UNL     1      45.937   0.929   8.390  0.00  0.00    +0.000 NA
ATOM     20  H   UNL     1      46.708   1.471   8.777  0.00  0.00    +0.000 HD
ATOM     21  H   UNL     1      46.161   0.758   7.411  0.00  0.00    +0.000 HD
ENDBRANCH  18  19
ENDBRANCH  10  18
TORSDOF 4
ENDMDL
MODEL 6
REMARK VINA RESULT:    -5.735      1.645      3.081
REMARK INTER + INTRA:          -7.489
REMARK INTER:                  -6.928
REMARK INTRA:                  -0.561
REMARK UNBOUND:                -0.581
REMARK  Name = 
REMARK  5 active torsions:
REMARK  status: ('A' for Active; 'I' for Inactive)
REMARK    1  A    between atoms: C_1  and  C_2
REMARK    2  A    between atoms: N_8  and  C_9
REMARK    3  A    between atoms: C_9  and  C_10
REMARK    4  A    between atoms: C_17  and  C_18
REMARK    5  A    between atoms: C_18  and  N_19
REMARK                            x       y       z     vdW  Elec       q    Type
REMARK                         _______ _______ _______ _____ _____    ______ ____
ROOT
ATOM      1  C   UNL     1      47.524   3.679  15.093  0.00  0.00    +0.000 C 
ATOM      2  C   UNL     1      47.176   4.921  14.316  0.00  0.00    +0.000 A 
ATOM      3  C   UNL     1      46.197   4.817  13.307  0.00  0.00    +0.000 A 
ATOM      4  C   UNL     1      45.804   5.971  12.609  0.00  0.00    +0.000 A 
ATOM      5  C   UNL     1      46.397   7.210  12.858  0.00  0.00    +0.000 A 
ATOM      6  C   UNL     1      45.793   8.155  11.989  0.00  0.00    +0.000 A 
ATOM      7  C   UNL     1      44.833   7.497  11.257  0.00  0.00    +0.000 A 
ATOM      8  N   UNL     1      44.839   6.176  11.640  0.00  0.00    +0.000 N 
ATOM      9  C   UNL     1      47.389   7.300  13.852  0.00  0.00    +0.000 A 
ATOM     10  C   UNL     1      47.774   6.165  14.600  0.00  0.00    +0.000 A 
ENDROOT
BRANCH   8  11
ATOM     11  C   UNL     1      43.863   5.193  11.182  0.00  0.00    +0.000 C 
BRANCH  11  12
ATOM     12  C   UNL     1      44.437   4.272  10.140  0.00  0.00    +0.000 A 
ATOM     13  C   UNL     1      44.162   2.901  10.163  0.00  0.00    +0.000 A 
ATOM     14  C   UNL     1      44.732   2.090   9.194  0.00  0.00    +0.000 A 
ATOM     15  N   UNL     1      45.541   2.546   8.214  0.00  0.00    +0.000 NA
ATOM     16  C   UNL     1      45.794   3.870   8.205  0.00  0.00    +0.000 A 
ATOM     17  C   UNL     1      45.275   4.762   9.132  0.00  0.00    +0.000 A 
ENDBRANCH  11  12
ENDBRANCH   8  11
BRANCH  10  18
ATOM     18  C   UNL     1      48.775   6.365  15.718  0.00  0.00    +0.000 C 
BRANCH  18  19
ATOM     19  N   UNL     1      50.114   6.647  15.212  0.00  0.00    +0.000 NA
ATOM     20  H   UNL     1      50.794   6.200  15.825  0.00  0.00    +0.000 HD
ATOM     21  H   UNL     1      50.287   7.649  15.265  0.00  0.00    +0.000 HD
ENDBRANCH  18  19
ENDBRANCH  10  18
TORSDOF 4
ENDMDL
MODEL 7
REMARK VINA RESULT:    -5.360      2.944      7.228
REMARK INTER + INTRA:          -7.038
REMARK INTER:                  -6.468
REMARK INTRA:                  -0.570
REMARK UNBOUND:                -0.581
REMARK  Name = 
REMARK  5 active torsions:
REMARK  status: ('A' for Active; 'I' for Inactive)
REMARK    1  A    between atoms: C_1  and  C_2
REMARK    2  A    between atoms: N_8  and  C_9
REMARK    3  A    between atoms: C_9  and  C_10
REMARK    4  A    between atoms: C_17  and  C_18
REMARK    5  A    between atoms: C_18  and  N_19
REMARK                            x       y       z     vdW  Elec       q    Type
REMARK                         _______ _______ _______ _____ _____    ______ ____
ROOT
ATOM      1  C   UNL     1      45.265   3.250  12.232  0.00  0.00    +0.000 C 
ATOM      2  C   UNL     1      45.352   4.751  12.330  0.00  0.00    +0.000 A 
ATOM      3  C   UNL     1      46.436   5.304  13.045  0.00  0.00    +0.000 A 
ATOM      4  C   UNL     1      46.582   6.700  13.100  0.00  0.00    +0.000 A 
ATOM      5  C   UNL     1      45.651   7.553  12.505  0.00  0.00    +0.000 A 
ATOM      6  C   UNL     1      46.074   8.885  12.750  0.00  0.00    +0.000 A 
ATOM      7  C   UNL     1      47.257   8.826  13.450  0.00  0.00    +0.000 A 
ATOM      8  N   UNL     1      47.563   7.501  13.654  0.00  0.00    +0.000 N 
ATOM      9  C   UNL     1      44.560   6.992  11.814  0.00  0.00    +0.000 A 
ATOM     10  C   UNL     1      44.412   5.592  11.705  0.00  0.00    +0.000 A 
ENDROOT
BRANCH   8  11
ATOM     11  C   UNL     1      48.815   7.038  14.242  0.00  0.00    +0.000 C 
BRANCH  11  12
ATOM     12  C   UNL     1      48.683   6.776  15.718  0.00  0.00    +0.000 A 
ATOM     13  C   UNL     1      48.881   7.800  16.650  0.00  0.00    +0.000 A 
ATOM     14  C   UNL     1      48.769   7.504  17.999  0.00  0.00    +0.000 A 
ATOM     15  N   UNL     1      48.472   6.277  18.476  0.00  0.00    +0.000 NA
ATOM     16  C   UNL     1      48.283   5.302  17.565  0.00  0.00    +0.000 A 
ATOM     17  C   UNL     1      48.376   5.497  16.196  0.00  0.00    +0.000 A 
ENDBRANCH  11  12
ENDBRANCH   8  11
BRANCH  10  18
ATOM     18  C   UNL     1      43.269   5.069  10.861  0.00  0.00    +0.000 C 
BRANCH  18  19
ATOM     19  N   UNL     1      43.682   4.790   9.489  0.00  0.00    +0.000 NA
ATOM     20  H   UNL     1      43.461   5.599   8.911  0.00  0.00    +0.000 HD
ATOM     21  H   UNL     1      43.134   4.012   9.127  0.00  0.00    +0.000 HD
ENDBRANCH  18  19
ENDBRANCH  10  18
TORSDOF 4
ENDMDL
MODEL 8
REMARK VINA RESULT:    -5.336      1.979      3.701
REMARK INTER + INTRA:          -7.009
REMARK INTER:                  -6.835
REMARK INTRA:                  -0.174
REMARK UNBOUND:                -0.581
REMARK  Name = 
REMARK  5 active torsions:
REMARK  status: ('A' for Active; 'I' for Inactive)
REMARK    1  A    between atoms: C_1  and  C_2
REMARK    2  A    between atoms: N_8  and  C_9
REMARK    3  A    between atoms: C_9  and  C_10
REMARK    4  A    between atoms: C_17  and  C_18
REMARK    5  A    between atoms: C_18  and  N_19
REMARK                            x       y       z     vdW  Elec       q    Type
REMARK                         _______ _______ _______ _____ _____    ______ ____
ROOT
ATOM      1  C   UNL     1      47.240   3.538  16.898  0.00  0.00    +0.000 C 
ATOM      2  C   UNL     1      47.469   4.592  15.847  0.00  0.00    +0.000 A 
ATOM      3  C   UNL     1      46.615   4.601  14.723  0.00  0.00    +0.000 A 
ATOM      4  C   UNL     1      46.762   5.611  13.758  0.00  0.00    +0.000 A 
ATOM      5  C   UNL     1      47.764   6.577  13.861  0.00  0.00    +0.000 A 
ATOM      6  C   UNL     1      47.651   7.432  12.734  0.00  0.00    +0.000 A 
ATOM      7  C   UNL     1      46.577   7.003  11.989  0.00  0.00    +0.000 A 
ATOM      8  N   UNL     1      46.038   5.904  12.617  0.00  0.00    +0.000 N 
ATOM      9  C   UNL     1      48.625   6.546  14.974  0.00  0.00    +0.000 A 
ATOM     10  C   UNL     1      48.474   5.569  15.982  0.00  0.00    +0.000 A 
ENDROOT
BRANCH   8  11
ATOM     11  C   UNL     1      44.802   5.255  12.197  0.00  0.00    +0.000 C 
BRANCH  11  12
ATOM     12  C   UNL     1      44.978   4.475  10.922  0.00  0.00    +0.000 A 
ATOM     13  C   UNL     1      45.401   5.104   9.747  0.00  0.00    +0.000 A 
ATOM     14  C   UNL     1      45.528   4.346   8.594  0.00  0.00    +0.000 A 
ATOM     15  N   UNL     1      45.271   3.023   8.533  0.00  0.00    +0.000 NA
ATOM     16  C   UNL     1      44.866   2.431   9.674  0.00  0.00    +0.000 A 
ATOM     17  C   UNL     1      44.706   3.103  10.877  0.00  0.00    +0.000 A 
ENDBRANCH  11  12
ENDBRANCH   8  11
BRANCH  10  18
ATOM     18  C   UNL     1      49.375   5.665  17.195  0.00  0.00    +0.000 C 
BRANCH  18  19
ATOM     19  N   UNL     1      50.636   4.957  17.002  0.00  0.00    +0.000 NA
ATOM     20  H   UNL     1      50.434   4.022  16.651  0.00  0.00    +0.000 HD
ATOM     21  H   UNL     1      51.095   4.840  17.903  0.00  0.00    +0.000 HD
ENDBRANCH  18  19
ENDBRANCH  10  18
TORSDOF 4
ENDMDL
MODEL 9
REMARK VINA RESULT:    -5.234      2.684      4.940
REMARK INTER + INTRA:          -6.886
REMARK INTER:                  -6.396
REMARK INTRA:                  -0.491
REMARK UNBOUND:                -0.581
REMARK  Name = 
REMARK  5 active torsions:
REMARK  status: ('A' for Active; 'I' for Inactive)
REMARK    1  A    between atoms: C_1  and  C_2
REMARK    2  A    between atoms: N_8  and  C_9
REMARK    3  A    between atoms: C_9  and  C_10
REMARK    4  A    between atoms: C_17  and  C_18
REMARK    5  A    between atoms: C_18  and  N_19
REMARK                            x       y       z     vdW  Elec       q    Type
REMARK                         _______ _______ _______ _____ _____    ______ ____
ROOT
ATOM      1  C   UNL     1      51.126   7.870  11.257  0.00  0.00    +0.000 C 
ATOM      2  C   UNL     1      49.714   8.308  11.544  0.00  0.00    +0.000 A 
ATOM      3  C   UNL     1      48.765   7.313  11.859  0.00  0.00    +0.000 A 
ATOM      4  C   UNL     1      47.455   7.695  12.193  0.00  0.00    +0.000 A 
ATOM      5  C   UNL     1      47.060   9.033  12.174  0.00  0.00    +0.000 A 
ATOM      6  C   UNL     1      45.691   9.079  12.545  0.00  0.00    +0.000 A 
ATOM      7  C   UNL     1      45.286   7.792  12.813  0.00  0.00    +0.000 A 
ATOM      8  N   UNL     1      46.360   6.959  12.606  0.00  0.00    +0.000 N 
ATOM      9  C   UNL     1      48.008  10.017  11.837  0.00  0.00    +0.000 A 
ATOM     10  C   UNL     1      49.343   9.666  11.538  0.00  0.00    +0.000 A 
ENDROOT
BRANCH   8  11
ATOM     11  C   UNL     1      46.355   5.534  12.920  0.00  0.00    +0.000 C 
BRANCH  11  12
ATOM     12  C   UNL     1      45.314   4.785  12.132  0.00  0.00    +0.000 A 
ATOM     13  C   UNL     1      44.427   3.909  12.764  0.00  0.00    +0.000 A 
ATOM     14  C   UNL     1      43.501   3.226  11.991  0.00  0.00    +0.000 A 
ATOM     15  N   UNL     1      43.397   3.359  10.652  0.00  0.00    +0.000 NA
ATOM     16  C   UNL     1      44.258   4.209  10.058  0.00  0.00    +0.000 A 
ATOM     17  C   UNL     1      45.222   4.934  10.743  0.00  0.00    +0.000 A 
ENDBRANCH  11  12
ENDBRANCH   8  11
BRANCH  10  18
ATOM     18  C   UNL     1      50.325  10.790  11.284  0.00  0.00    +0.000 C 
BRANCH  18  19
ATOM     19  N   UNL     1      50.725  11.460  12.518  0.00  0.00    +0.000 NA
ATOM     20  H   UNL     1      51.742  11.517  12.541  0.00  0.00    +0.000 HD
ATOM     21  H   UNL     1      50.445  10.889  13.313  0.00  0.00    +0.000 HD
ENDBRANCH  18  19
ENDBRANCH  10  18
TORSDOF 4
ENDMDL
