MODEL 1
REMARK VINA RESULT:    -7.506      0.000      0.000
REMARK INTER + INTRA:         -10.193
REMARK INTER:                  -9.700
REMARK INTRA:                  -0.493
REMARK UNBOUND:                -0.493
REMARK  Name = 
REMARK  6 active torsions:
REMARK  status: ('A' for Active; 'I' for Inactive)
REMARK    1  A    between atoms: C_1  and  N_2
REMARK    2  A    between atoms: N_2  and  C_3
REMARK    3  A    between atoms: C_3  and  C_4
REMARK    4  A    between atoms: C_8  and  C_9
REMARK    5  A    between atoms: C_9  and  N_10
REMARK    6  A    between atoms: C_15  and  N_16
REMARK                            x       y       z     vdW  Elec       q    Type
REMARK                         _______ _______ _______ _____ _____    ______ ____
ROOT
ATOM      1  N   UNL     1      44.088   4.371  10.408  0.00  0.00    +0.000 N 
ATOM      2  C   UNL     1      43.591   3.212  10.945  0.00  0.00    +0.000 A 
ATOM      3  N   UNL     1      44.082   2.144  10.353  0.00  0.00    +0.000 NA
ATOM      4  C   UNL     1      44.926   2.630   9.386  0.00  0.00    +0.000 A 
ATOM      5  C   UNL     1      45.691   1.964   8.424  0.00  0.00    +0.000 A 
ATOM      6  C   UNL     1      46.433   2.775   7.555  0.00  0.00    +0.000 A 
ATOM      7  C   UNL     1      46.392   4.163   7.682  0.00  0.00    +0.000 A 
ATOM      8  N   UNL     1      45.654   4.845   8.598  0.00  0.00    +0.000 NA
ATOM      9  C   UNL     1      44.954   4.020   9.408  0.00  0.00    +0.000 A 
ENDROOT
BRANCH   6  10
ATOM     10  N   UNL     1      47.234   2.176   6.497  0.00  0.00    +0.000 N 
ATOM     11  O   UNL     1      47.174   2.685   5.370  0.00  0.00    +0.000 OA
ATOM     12  O   UNL     1      47.936   1.197   6.789  0.00  0.00    +0.000 OA
ENDBRANCH   6  10
BRANCH   1  13
ATOM     13  C   UNL     1      43.606   5.709  10.692  0.00  0.00    +0.000 C 
BRANCH  13  18
ATOM     14  C   UNL     1      46.514   6.663  12.993  0.00  0.00    +0.000 A 
ATOM     15  C   UNL     1      46.451   8.061  12.917  0.00  0.00    +0.000 A 
ATOM     16  C   UNL     1      45.428   8.688  12.205  0.00  0.00    +0.000 A 
ATOM     17  C   UNL     1      44.476   7.925  11.529  0.00  0.00    +0.000 A 
ATOM     18  C   UNL     1      44.535   6.525  11.556  0.00  0.00    +0.000 A 
ATOM     19  C   UNL     1      45.550   5.907  12.306  0.00  0.00    +0.000 A 
BRANCH  14  20
ATOM     20  C   UNL     1      47.637   5.972  13.738  0.00  0.00    +0.000 C 
BRANCH  20  22
ATOM     21  C   UNL     1      47.184   4.318  15.425  0.00  0.00    +0.000 C 
ATOM     22  N   UNL     1      47.339   4.564  14.000  0.00  0.00    +0.000 NA
ATOM     23  H   UNL     1      46.477   4.309  13.522  0.00  0.00    +0.000 HD
ENDBRANCH  20  22
ENDBRANCH  14  20
ENDBRANCH  13  18
ENDBRANCH   1  13
TORSDOF 5
ENDMDL
MODEL 2
REMARK VINA RESULT:    -7.096      3.316      6.433
REMARK INTER + INTRA:          -9.663
REMARK INTER:                  -9.156
REMARK INTRA:                  -0.507
REMARK UNBOUND:                -0.493
REMARK  Name = 
REMARK  6 active torsions:
REMARK  status: ('A' for Active; 'I' for Inactive)
REMARK    1  A    between atoms: C_1  and  N_2
REMARK    2  A    between atoms: N_2  and  C_3
REMARK    3  A    between atoms: C_3  and  C_4
REMARK    4  A    between atoms: C_8  and  C_9
REMARK    5  A    between atoms: C_9  and  N_10
REMARK    6  A    between atoms: C_15  and  N_16
REMARK                            x       y       z     vdW  Elec       q    Type
REMARK                         _______ _______ _______ _____ _____    ______ ____
ROOT
ATOM      1  N   UNL     1      44.602   5.068  11.943  0.00  0.00    +0.000 N 
ATOM      2  C   UNL     1      44.317   4.282  13.030  0.00  0.00    +0.000 A 
ATOM      3  N   UNL     1      45.234   4.387  13.968  0.00  0.00    +0.000 NA
ATOM      4  C   UNL     1      46.157   5.271  13.466  0.00  0.00    +0.000 A 
ATOM      5  C   UNL     1      47.363   5.732  14.002  0.00  0.00    +0.000 A 
ATOM      6  C   UNL     1      48.092   6.623  13.203  0.00  0.00    +0.000 A 
ATOM      7  C   UNL     1      47.603   7.011  11.956  0.00  0.00    +0.000 A 
ATOM      8  N   UNL     1      46.441   6.576  11.400  0.00  0.00    +0.000 NA
ATOM      9  C   UNL     1      45.778   5.717  12.205  0.00  0.00    +0.000 A 
ENDROOT
BRANCH   6  10
ATOM     10  N   UNL     1      49.377   7.133  13.658  0.00  0.00    +0.000 N 
ATOM     11  O   UNL     1      49.778   6.775  14.774  0.00  0.00    +0.000 OA
ATOM     12  O   UNL     1      49.999   7.890  12.898  0.00  0.00    +0.000 OA
ENDBRANCH   6  10
BRANCH   1  13
ATOM     13  C   UNL     1      43.911   5.031  10.669  0.00  0.00    +0.000 C 
BRANCH  13  18
ATOM     14  C   UNL     1      45.940   3.423   7.848  0.00  0.00    +0.000 A 
ATOM     15  C   UNL     1      45.708   2.065   8.109  0.00  0.00    +0.000 A 
ATOM     16  C   UNL     1      44.836   1.677   9.126  0.00  0.00    +0.000 A 
ATOM     17  C   UNL     1      44.213   2.640   9.920  0.00  0.00    +0.000 A 
ATOM     18  C   UNL     1      44.454   4.004   9.707  0.00  0.00    +0.000 A 
ATOM     19  C   UNL     1      45.307   4.382   8.656  0.00  0.00    +0.000 A 
BRANCH  14  20
ATOM     20  C   UNL     1      46.906   3.855   6.766  0.00  0.00    +0.000 C 
BRANCH  20  22
ATOM     21  C   UNL     1      47.995   2.225   5.371  0.00  0.00    +0.000 C 
ATOM     22  N   UNL     1      48.038   2.936   6.639  0.00  0.00    +0.000 NA
ATOM     23  H   UNL     1      48.906   3.465   6.696  0.00  0.00    +0.000 HD
ENDBRANCH  20  22
ENDBRANCH  14  20
ENDBRANCH  13  18
ENDBRANCH   1  13
TORSDOF 5
ENDMDL
MODEL 3
REMARK VINA RESULT:    -7.084      1.633      2.785
REMARK INTER + INTRA:          -9.648
REMARK INTER:                  -9.225
REMARK INTRA:                  -0.423
REMARK UNBOUND:                -0.493
REMARK  Name = 
REMARK  6 active torsions:
REMARK  status: ('A' for Active; 'I' for Inactive)
REMARK    1  A    between atoms: C_1  and  N_2
REMARK    2  A    between atoms: N_2  and  C_3
REMARK    3  A    between atoms: C_3  and  C_4
REMARK    4  A    between atoms: C_8  and  C_9
REMARK    5  A    between atoms: C_9  and  N_10
REMARK    6  A    between atoms: C_15  and  N_16
REMARK                            x       y       z     vdW  Elec       q    Type
REMARK                         _______ _______ _______ _____ _____    ______ ____
ROOT
ATOM      1  N   UNL     1      44.091   4.327  10.496  0.00  0.00    +0.000 N 
ATOM      2  C   UNL     1      43.591   3.147  10.985  0.00  0.00    +0.000 A 
ATOM      3  N   UNL     1      44.065   2.104  10.338  0.00  0.00    +0.000 NA
ATOM      4  C   UNL     1      44.901   2.628   9.383  0.00  0.00    +0.000 A 
ATOM      5  C   UNL     1      45.647   2.000   8.381  0.00  0.00    +0.000 A 
ATOM      6  C   UNL     1      46.384   2.844   7.541  0.00  0.00    +0.000 A 
ATOM      7  C   UNL     1      46.357   4.226   7.732  0.00  0.00    +0.000 A 
ATOM      8  N   UNL     1      45.637   4.870   8.688  0.00  0.00    +0.000 NA
ATOM      9  C   UNL     1      44.941   4.015   9.469  0.00  0.00    +0.000 A 
ENDROOT
BRANCH   6  10
ATOM     10  N   UNL     1      47.166   2.289   6.446  0.00  0.00    +0.000 N 
ATOM     11  O   UNL     1      47.920   1.339   6.698  0.00  0.00    +0.000 OA
ATOM     12  O   UNL     1      47.027   2.796   5.323  0.00  0.00    +0.000 OA
ENDBRANCH   6  10
BRANCH   1  13
ATOM     13  C   UNL     1      43.624   5.653  10.847  0.00  0.00    +0.000 C 
BRANCH  13  18
ATOM     14  C   UNL     1      45.532   8.742  12.066  0.00  0.00    +0.000 A 
ATOM     15  C   UNL     1      46.425   8.149  12.970  0.00  0.00    +0.000 A 
ATOM     16  C   UNL     1      46.471   6.763  13.117  0.00  0.00    +0.000 A 
ATOM     17  C   UNL     1      45.600   5.952  12.388  0.00  0.00    +0.000 A 
ATOM     18  C   UNL     1      44.672   6.518  11.504  0.00  0.00    +0.000 A 
ATOM     19  C   UNL     1      44.660   7.914  11.341  0.00  0.00    +0.000 A 
BRANCH  14  20
ATOM     20  C   UNL     1      45.453  10.246  11.921  0.00  0.00    +0.000 C 
BRANCH  20  22
ATOM     21  C   UNL     1      47.433  11.514  11.411  0.00  0.00    +0.000 C 
ATOM     22  N   UNL     1      46.633  10.916  12.468  0.00  0.00    +0.000 NA
ATOM     23  H   UNL     1      46.336  11.644  13.115  0.00  0.00    +0.000 HD
ENDBRANCH  20  22
ENDBRANCH  14  20
ENDBRANCH  13  18
ENDBRANCH   1  13
TORSDOF 5
ENDMDL
MODEL 4
REMARK VINA RESULT:    -6.818      3.511      6.789
REMARK INTER + INTRA:          -9.304
REMARK INTER:                  -8.857
REMARK INTRA:                  -0.447
REMARK UNBOUND:                -0.493
REMARK  Name = 
REMARK  6 active torsions:
REMARK  status: ('A' for Active; 'I' for Inactive)
REMARK    1  A    between atoms: C_1  and  N_2
REMARK    2  A    between atoms: N_2  and  C_3
REMARK    3  A    between atoms: C_3  and  C_4
REMARK    4  A    between atoms: C_8  and  C_9
REMARK    5  A    between atoms: C_9  and  N_10
REMARK    6  A    between atoms: C_15  and  N_16
REMARK                            x       y       z     vdW  Elec       q    Type
REMARK                         _______ _______ _______ _____ _____    ______ ____
ROOT
ATOM      1  N   UNL     1      45.004   5.745  11.466  0.00  0.00    +0.000 N 
ATOM      2  C   UNL     1      45.338   7.075  11.462  0.00  0.00    +0.000 A 
ATOM      3  N   UNL     1      46.166   7.378  12.439  0.00  0.00    +0.000 NA
ATOM      4  C   UNL     1      46.371   6.199  13.110  0.00  0.00    +0.000 A 
ATOM      5  C   UNL     1      47.124   5.921  14.255  0.00  0.00    +0.000 A 
ATOM      6  C   UNL     1      47.097   4.594  14.704  0.00  0.00    +0.000 A 
ATOM      7  C   UNL     1      46.358   3.634  14.015  0.00  0.00    +0.000 A 
ATOM      8  N   UNL     1      45.608   3.869  12.905  0.00  0.00    +0.000 NA
ATOM      9  C   UNL     1      45.663   5.162  12.515  0.00  0.00    +0.000 A 
ENDROOT
BRANCH   6  10
ATOM     10  N   UNL     1      47.821   4.212  15.908  0.00  0.00    +0.000 N 
ATOM     11  O   UNL     1      47.404   3.235  16.546  0.00  0.00    +0.000 OA
ATOM     12  O   UNL     1      48.816   4.882  16.220  0.00  0.00    +0.000 OA
ENDBRANCH   6  10
BRANCH   1  13
ATOM     13  C   UNL     1      43.968   5.131  10.659  0.00  0.00    +0.000 C 
BRANCH  13  18
ATOM     14  C   UNL     1      45.938   3.447   7.839  0.00  0.00    +0.000 A 
ATOM     15  C   UNL     1      45.671   2.099   8.112  0.00  0.00    +0.000 A 
ATOM     16  C   UNL     1      44.795   1.742   9.137  0.00  0.00    +0.000 A 
ATOM     17  C   UNL     1      44.202   2.727   9.927  0.00  0.00    +0.000 A 
ATOM     18  C   UNL     1      44.478   4.083   9.702  0.00  0.00    +0.000 A 
ATOM     19  C   UNL     1      45.335   4.429   8.643  0.00  0.00    +0.000 A 
BRANCH  14  20
ATOM     20  C   UNL     1      46.910   3.845   6.749  0.00  0.00    +0.000 C 
BRANCH  20  22
ATOM     21  C   UNL     1      47.995   2.209   5.358  0.00  0.00    +0.000 C 
ATOM     22  N   UNL     1      48.025   2.906   6.635  0.00  0.00    +0.000 NA
ATOM     23  H   UNL     1      48.902   3.416   6.716  0.00  0.00    +0.000 HD
ENDBRANCH  20  22
ENDBRANCH  14  20
ENDBRANCH  13  18
ENDBRANCH   1  13
TORSDOF 5
ENDMDL
MODEL 5
REMARK VINA RESULT:    -6.098      3.901      6.600
REMARK INTER + INTRA:          -8.373
REMARK INTER:                  -7.832
REMARK INTRA:                  -0.541
REMARK UNBOUND:                -0.493
REMARK  Name = 
REMARK  6 active torsions:
REMARK  status: ('A' for Active; 'I' for Inactive)
REMARK    1  A    between atoms: C_1  and  N_2
REMARK    2  A    between atoms: N_2  and  C_3
REMARK    3  A    between atoms: C_3  and  C_4
REMARK    4  A    between atoms: C_8  and  C_9
REMARK    5  A    between atoms: C_9  and  N_10
REMARK    6  A    between atoms: C_15  and  N_16
REMARK                            x       y       z     vdW  Elec       q    Type
REMARK                         _______ _______ _______ _____ _____    ______ ____
ROOT
ATOM      1  N   UNL     1      46.311   6.547  13.011  0.00  0.00    +0.000 N 
ATOM      2  C   UNL     1      47.179   5.539  13.346  0.00  0.00    +0.000 A 
ATOM      3  N   UNL     1      48.435   5.894  13.172  0.00  0.00    +0.000 NA
ATOM      4  C   UNL     1      48.380   7.180  12.697  0.00  0.00    +0.000 A 
ATOM      5  C   UNL     1      49.399   8.050  12.298  0.00  0.00    +0.000 A 
ATOM      6  C   UNL     1      48.991   9.304  11.827  0.00  0.00    +0.000 A 
ATOM      7  C   UNL     1      47.636   9.633  11.785  0.00  0.00    +0.000 A 
ATOM      8  N   UNL     1      46.619   8.811  12.156  0.00  0.00    +0.000 NA
ATOM      9  C   UNL     1      47.062   7.613  12.597  0.00  0.00    +0.000 A 
ENDROOT
BRANCH   6  10
ATOM     10  N   UNL     1      49.975  10.267  11.356  0.00  0.00    +0.000 N 
ATOM     11  O   UNL     1      51.127  10.180  11.802  0.00  0.00    +0.000 OA
ATOM     12  O   UNL     1      49.604  11.114  10.530  0.00  0.00    +0.000 OA
ENDBRANCH   6  10
BRANCH   1  13
ATOM     13  C   UNL     1      44.872   6.418  12.895  0.00  0.00    +0.000 C 
BRANCH  13  18
ATOM     14  C   UNL     1      44.341   4.027   9.951  0.00  0.00    +0.000 A 
ATOM     15  C   UNL     1      43.885   2.887  10.628  0.00  0.00    +0.000 A 
ATOM     16  C   UNL     1      43.667   2.919  12.005  0.00  0.00    +0.000 A 
ATOM     17  C   UNL     1      43.935   4.080  12.730  0.00  0.00    +0.000 A 
ATOM     18  C   UNL     1      44.427   5.224  12.087  0.00  0.00    +0.000 A 
ATOM     19  C   UNL     1      44.609   5.189  10.694  0.00  0.00    +0.000 A 
BRANCH  14  20
ATOM     20  C   UNL     1      44.609   3.995   8.462  0.00  0.00    +0.000 C 
BRANCH  20  22
ATOM     21  C   UNL     1      46.674   3.649   7.275  0.00  0.00    +0.000 C 
ATOM     22  N   UNL     1      45.918   4.556   8.126  0.00  0.00    +0.000 NA
ATOM     23  H   UNL     1      45.789   5.440   7.638  0.00  0.00    +0.000 HD
ENDBRANCH  20  22
ENDBRANCH  14  20
ENDBRANCH  13  18
ENDBRANCH   1  13
TORSDOF 5
ENDMDL
MODEL 6
REMARK VINA RESULT:    -5.961      3.601      6.837
REMARK INTER + INTRA:          -8.196
REMARK INTER:                  -7.682
REMARK INTRA:                  -0.514
REMARK UNBOUND:                -0.493
REMARK  Name = 
REMARK  6 active torsions:
REMARK  status: ('A' for Active; 'I' for Inactive)
REMARK    1  A    between atoms: C_1  and  N_2
REMARK    2  A    between atoms: N_2  and  C_3
REMARK    3  A    between atoms: C_3  and  C_4
REMARK    4  A    between atoms: C_8  and  C_9
REMARK    5  A    between atoms: C_9  and  N_10
REMARK    6  A    between atoms: C_15  and  N_16
REMARK                            x       y       z     vdW  Elec       q    Type
REMARK                         _______ _______ _______ _____ _____    ______ ____
ROOT
ATOM      1  N   UNL     1      44.888   6.772  12.118  0.00  0.00    +0.000 N 
ATOM      2  C   UNL     1      44.893   8.057  11.637  0.00  0.00    +0.000 A 
ATOM      3  N   UNL     1      45.959   8.724  12.027  0.00  0.00    +0.000 NA
ATOM      4  C   UNL     1      46.670   7.839  12.799  0.00  0.00    +0.000 A 
ATOM      5  C   UNL     1      47.864   8.004  13.509  0.00  0.00    +0.000 A 
ATOM      6  C   UNL     1      48.310   6.889  14.231  0.00  0.00    +0.000 A 
ATOM      7  C   UNL     1      47.582   5.700  14.209  0.00  0.00    +0.000 A 
ATOM      8  N   UNL     1      46.415   5.507  13.539  0.00  0.00    +0.000 NA
ATOM      9  C   UNL     1      46.025   6.610  12.863  0.00  0.00    +0.000 A 
ENDROOT
BRANCH   6  10
ATOM     10  N   UNL     1      49.524   6.971  15.030  0.00  0.00    +0.000 N 
ATOM     11  O   UNL     1      49.719   6.086  15.875  0.00  0.00    +0.000 OA
ATOM     12  O   UNL     1      50.294   7.917  14.813  0.00  0.00    +0.000 OA
ENDBRANCH   6  10
BRANCH   1  13
ATOM     13  C   UNL     1      43.774   5.848  12.045  0.00  0.00    +0.000 C 
BRANCH  13  18
ATOM     14  C   UNL     1      45.085   3.768   9.108  0.00  0.00    +0.000 A 
ATOM     15  C   UNL     1      44.673   2.487   9.500  0.00  0.00    +0.000 A 
ATOM     16  C   UNL     1      43.906   2.309  10.650  0.00  0.00    +0.000 A 
ATOM     17  C   UNL     1      43.569   3.405  11.445  0.00  0.00    +0.000 A 
ATOM     18  C   UNL     1      43.997   4.694  11.099  0.00  0.00    +0.000 A 
ATOM     19  C   UNL     1      44.741   4.863   9.918  0.00  0.00    +0.000 A 
BRANCH  14  20
ATOM     20  C   UNL     1      45.944   3.970   7.878  0.00  0.00    +0.000 C 
BRANCH  20  22
ATOM     21  C   UNL     1      46.710   2.789   5.927  0.00  0.00    +0.000 C 
ATOM     22  N   UNL     1      46.468   2.706   7.359  0.00  0.00    +0.000 NA
ATOM     23  H   UNL     1      47.343   2.487   7.832  0.00  0.00    +0.000 HD
ENDBRANCH  20  22
ENDBRANCH  14  20
ENDBRANCH  13  18
ENDBRANCH   1  13
TORSDOF 5
ENDMDL
MODEL 7
REMARK VINA RESULT:    -5.889      3.867      6.950
REMARK INTER + INTRA:          -8.104
REMARK INTER:                  -8.158
REMARK INTRA:                   0.054
REMARK UNBOUND:                -0.493
REMARK  Name = 
REMARK  6 active torsions:
REMARK  status: ('A' for Active; 'I' for Inactive)
REMARK    1  A    between atoms: C_1  and  N_2
REMARK    2  A    between atoms: N_2  and  C_3
REMARK    3  A    between atoms: C_3  and  C_4
REMARK    4  A    between atoms: C_8  and  C_9
REMARK    5  A    between atoms: C_9  and  N_10
REMARK    6  A    between atoms: C_15  and  N_16
REMARK                            x       y       z     vdW  Elec       q    Type
REMARK                         _______ _______ _______ _____ _____    ______ ____
ROOT
ATOM      1  N   UNL     1      47.949   6.917  13.071  0.00  0.00    +0.000 N 
ATOM      2  C   UNL     1      48.435   7.996  13.764  0.00  0.00    +0.000 A 
ATOM      3  N   UNL     1      48.633   7.716  15.035  0.00  0.00    +0.000 NA
ATOM      4  C   UNL     1      48.251   6.405  15.175  0.00  0.00    +0.000 A 
ATOM      5  C   UNL     1      48.204   5.585  16.307  0.00  0.00    +0.000 A 
ATOM      6  C   UNL     1      47.728   4.283  16.105  0.00  0.00    +0.000 A 
ATOM      7  C   UNL     1      47.344   3.864  14.832  0.00  0.00    +0.000 A 
ATOM      8  N   UNL     1      47.367   4.636  13.713  0.00  0.00    +0.000 NA
ATOM      9  C   UNL     1      47.828   5.881  13.959  0.00  0.00    +0.000 A 
ENDROOT
BRANCH   6  10
ATOM     10  N   UNL     1      47.608   3.364  17.227  0.00  0.00    +0.000 N 
ATOM     11  O   UNL     1      46.489   2.894  17.472  0.00  0.00    +0.000 OA
ATOM     12  O   UNL     1      48.636   3.100  17.868  0.00  0.00    +0.000 OA
ENDBRANCH   6  10
BRANCH   1  13
ATOM     13  C   UNL     1      47.439   6.944  11.715  0.00  0.00    +0.000 C 
BRANCH  13  18
ATOM     14  C   UNL     1      44.494   4.809  10.516  0.00  0.00    +0.000 A 
ATOM     15  C   UNL     1      43.542   5.113  11.499  0.00  0.00    +0.000 A 
ATOM     16  C   UNL     1      43.817   6.061  12.484  0.00  0.00    +0.000 A 
ATOM     17  C   UNL     1      45.060   6.693  12.521  0.00  0.00    +0.000 A 
ATOM     18  C   UNL     1      46.045   6.384  11.573  0.00  0.00    +0.000 A 
ATOM     19  C   UNL     1      45.742   5.452  10.566  0.00  0.00    +0.000 A 
BRANCH  14  20
ATOM     20  C   UNL     1      44.217   3.760   9.461  0.00  0.00    +0.000 C 
BRANCH  20  22
ATOM     21  C   UNL     1      45.551   1.882   8.766  0.00  0.00    +0.000 C 
ATOM     22  N   UNL     1      44.745   2.448   9.837  0.00  0.00    +0.000 NA
ATOM     23  H   UNL     1      45.320   2.545  10.671  0.00  0.00    +0.000 HD
ENDBRANCH  20  22
ENDBRANCH  14  20
ENDBRANCH  13  18
ENDBRANCH   1  13
TORSDOF 5
ENDMDL
MODEL 8
REMARK VINA RESULT:    -5.846      3.880      5.319
REMARK INTER + INTRA:          -8.048
REMARK INTER:                  -7.559
REMARK INTRA:                  -0.489
REMARK UNBOUND:                -0.493
REMARK  Name = 
REMARK  6 active torsions:
REMARK  status: ('A' for Active; 'I' for Inactive)
REMARK    1  A    between atoms: C_1  and  N_2
REMARK    2  A    between atoms: N_2  and  C_3
REMARK    3  A    between atoms: C_3  and  C_4
REMARK    4  A    between atoms: C_8  and  C_9
REMARK    5  A    between atoms: C_9  and  N_10
REMARK    6  A    between atoms: C_15  and  N_16
REMARK                            x       y       z     vdW  Elec       q    Type
REMARK                         _______ _______ _______ _____ _____    ______ ____
ROOT
ATOM      1  N   UNL     1      47.250   6.560  13.077  0.00  0.00    +0.000 N 
ATOM      2  C   UNL     1      47.668   5.829  14.160  0.00  0.00    +0.000 A 
ATOM      3  N   UNL     1      47.142   4.623  14.173  0.00  0.00    +0.000 NA
ATOM      4  C   UNL     1      46.343   4.571  13.058  0.00  0.00    +0.000 A 
ATOM      5  C   UNL     1      45.509   3.555  12.580  0.00  0.00    +0.000 A 
ATOM      6  C   UNL     1      44.797   3.842  11.408  0.00  0.00    +0.000 A 
ATOM      7  C   UNL     1      44.948   5.076  10.778  0.00  0.00    +0.000 A 
ATOM      8  N   UNL     1      45.742   6.089  11.218  0.00  0.00    +0.000 NA
ATOM      9  C   UNL     1      46.402   5.767  12.351  0.00  0.00    +0.000 A 
ENDROOT
BRANCH   6  10
ATOM     10  N   UNL     1      43.876   2.862  10.851  0.00  0.00    +0.000 N 
ATOM     11  O   UNL     1      44.024   2.541   9.664  0.00  0.00    +0.000 OA
ATOM     12  O   UNL     1      43.003   2.401  11.599  0.00  0.00    +0.000 OA
ENDBRANCH   6  10
BRANCH   1  13
ATOM     13  C   UNL     1      47.480   7.976  12.873  0.00  0.00    +0.000 C 
BRANCH  13  18
ATOM     14  C   UNL     1      50.976   8.051  11.312  0.00  0.00    +0.000 A 
ATOM     15  C   UNL     1      51.505   9.194  11.928  0.00  0.00    +0.000 A 
ATOM     16  C   UNL     1      50.776   9.878  12.900  0.00  0.00    +0.000 A 
ATOM     17  C   UNL     1      49.494   9.451  13.245  0.00  0.00    +0.000 A 
ATOM     18  C   UNL     1      48.923   8.334  12.620  0.00  0.00    +0.000 A 
ATOM     19  C   UNL     1      49.682   7.633  11.667  0.00  0.00    +0.000 A 
BRANCH  14  20
ATOM     20  C   UNL     1      51.745   7.318  10.234  0.00  0.00    +0.000 C 
BRANCH  20  22
ATOM     21  C   UNL     1      53.568   5.794   9.856  0.00  0.00    +0.000 C 
ATOM     22  N   UNL     1      53.049   6.853  10.708  0.00  0.00    +0.000 NA
ATOM     23  H   UNL     1      53.703   7.632  10.708  0.00  0.00    +0.000 HD
ENDBRANCH  20  22
ENDBRANCH  14  20
ENDBRANCH  13  18
ENDBRANCH   1  13
TORSDOF 5
ENDMDL
MODEL 9
REMARK VINA RESULT:    -5.766      3.633      5.131
REMARK INTER + INTRA:          -7.944
REMARK INTER:                  -7.405
REMARK INTRA:                  -0.540
REMARK UNBOUND:                -0.493
REMARK  Name = 
REMARK  6 active torsions:
REMARK  status: ('A' for Active; 'I' for Inactive)
REMARK    1  A    between atoms: C_1  and  N_2
REMARK    2  A    between atoms: N_2  and  C_3
REMARK    3  A    between atoms: C_3  and  C_4
REMARK    4  A    between atoms: C_8  and  C_9
REMARK    5  A    between atoms: C_9  and  N_10
REMARK    6  A    between atoms: C_15  and  N_16
REMARK                            x       y       z     vdW  Elec       q    Type
REMARK                         _______ _______ _______ _____ _____    ______ ____
ROOT
ATOM      1  N   UNL     1      47.211   6.171  13.574  0.00  0.00    +0.000 N 
ATOM      2  C   UNL     1      47.589   5.309  14.571  0.00  0.00    +0.000 A 
ATOM      3  N   UNL     1      47.046   4.119  14.427  0.00  0.00    +0.000 NA
ATOM      4  C   UNL     1      46.276   4.214  13.295  0.00  0.00    +0.000 A 
ATOM      5  C   UNL     1      45.439   3.278  12.679  0.00  0.00    +0.000 A 
ATOM      6  C   UNL     1      44.762   3.715  11.533  0.00  0.00    +0.000 A 
ATOM      7  C   UNL     1      44.947   5.014  11.059  0.00  0.00    +0.000 A 
ATOM      8  N   UNL     1      45.744   5.952  11.636  0.00  0.00    +0.000 NA
ATOM      9  C   UNL     1      46.370   5.485  12.739  0.00  0.00    +0.000 A 
ENDROOT
BRANCH   6  10
ATOM     10  N   UNL     1      43.842   2.825  10.840  0.00  0.00    +0.000 N 
ATOM     11  O   UNL     1      42.924   2.318  11.499  0.00  0.00    +0.000 OA
ATOM     12  O   UNL     1      44.027   2.633   9.630  0.00  0.00    +0.000 OA
ENDBRANCH   6  10
BRANCH   1  13
ATOM     13  C   UNL     1      47.465   7.597  13.548  0.00  0.00    +0.000 C 
BRANCH  13  18
ATOM     14  C   UNL     1      51.209   8.403  13.507  0.00  0.00    +0.000 A 
ATOM     15  C   UNL     1      51.467   8.344  12.131  0.00  0.00    +0.000 A 
ATOM     16  C   UNL     1      50.430   8.136  11.222  0.00  0.00    +0.000 A 
ATOM     17  C   UNL     1      49.125   7.948  11.679  0.00  0.00    +0.000 A 
ATOM     18  C   UNL     1      48.842   7.965  13.052  0.00  0.00    +0.000 A 
ATOM     19  C   UNL     1      49.891   8.211  13.954  0.00  0.00    +0.000 A 
BRANCH  14  20
ATOM     20  C   UNL     1      52.331   8.599  14.504  0.00  0.00    +0.000 C 
BRANCH  20  22
ATOM     21  C   UNL     1      52.645   6.842  16.117  0.00  0.00    +0.000 C 
ATOM     22  N   UNL     1      53.024   7.346  14.806  0.00  0.00    +0.000 NA
ATOM     23  H   UNL     1      52.786   6.653  14.100  0.00  0.00    +0.000 HD
ENDBRANCH  20  22
ENDBRANCH  14  20
ENDBRANCH  13  18
ENDBRANCH   1  13
TORSDOF 5
ENDMDL
