MODEL 1
REMARK VINA RESULT:    -8.464      0.000      0.000
REMARK INTER + INTRA:         -12.427
REMARK INTER:                 -11.433
REMARK INTRA:                  -0.993
REMARK UNBOUND:                -0.993
REMARK  Name = 
REMARK  6 active torsions:
REMARK  status: ('A' for Active; 'I' for Inactive)
REMARK    1  A    between atoms: C_2  and  C_3
REMARK    2  A    between atoms: C_6  and  N_7
REMARK    3  A    between atoms: N_7  and  C_8
REMARK    4  A    between atoms: C_8  and  C_9
REMARK    5  A    between atoms: C_9  and  C_12
REMARK    6  A    between atoms: C_14  and  N_15
REMARK                            x       y       z     vdW  Elec       q    Type
REMARK                         _______ _______ _______ _____ _____    ______ ____
ROOT
ATOM      1  C   UNL     1      43.711   4.733  12.654  0.00  0.00    +0.000 C 
ATOM      2  F   UNL     1      42.914   5.723  12.155  0.00  0.00    +0.000 F 
ATOM      3  F   UNL     1      43.101   4.349  13.823  0.00  0.00    +0.000 F 
ENDROOT
BRANCH   1   4
ATOM      4  C   UNL     1      45.122   5.222  12.889  0.00  0.00    +0.000 A 
ATOM      5  C   UNL     1      45.874   4.762  13.985  0.00  0.00    +0.000 A 
ATOM      6  C   UNL     1      47.165   5.245  14.272  0.00  0.00    +0.000 A 
ATOM      7  C   UNL     1      47.696   6.207  13.401  0.00  0.00    +0.000 A 
ATOM      8  C   UNL     1      46.975   6.665  12.296  0.00  0.00    +0.000 A 
ATOM      9  C   UNL     1      45.698   6.178  12.057  0.00  0.00    +0.000 A 
ATOM     10  F   UNL     1      45.024   6.643  10.996  0.00  0.00    +0.000 F 
BRANCH   6  11
ATOM     11  N   UNL     1      47.847   4.799  15.380  0.00  0.00    +0.000 N 
ATOM     12  C   UNL     1      47.664   3.457  15.952  0.00  0.00    +0.000 C 
ATOM     13  C   UNL     1      47.122   3.557  17.384  0.00  0.00    +0.000 C 
ATOM     14  O   UNL     1      47.955   4.395  18.205  0.00  0.00    +0.000 OA
ATOM     15  C   UNL     1      48.025   5.721  17.654  0.00  0.00    +0.000 C 
ATOM     16  C   UNL     1      48.615   5.721  16.233  0.00  0.00    +0.000 C 
ENDBRANCH   6  11
ENDBRANCH   1   4
BRANCH   1  17
ATOM     17  C   UNL     1      43.667   3.511  11.699  0.00  0.00    +0.000 C 
BRANCH  17  18
ATOM     18  N   UNL     1      43.642   3.872  10.267  0.00  0.00    +0.000 N 
ATOM     19  H   UNL     1      42.716   3.888   9.845  0.00  0.00    +0.000 HD
BRANCH  18  23
ATOM     20  C   UNL     1      46.568   2.507   7.550  0.00  0.00    +0.000 A 
ATOM     21  C   UNL     1      46.297   3.870   7.642  0.00  0.00    +0.000 A 
ATOM     22  C   UNL     1      45.345   4.335   8.556  0.00  0.00    +0.000 A 
ATOM     23  C   UNL     1      44.668   3.463   9.418  0.00  0.00    +0.000 A 
ATOM     24  C   UNL     1      44.949   2.094   9.304  0.00  0.00    +0.000 A 
ATOM     25  C   UNL     1      45.892   1.616   8.383  0.00  0.00    +0.000 A 
BRANCH  20  27
ATOM     26  N   UNL     1      48.303   1.645   5.826  0.00  0.00    +0.000 NA
ATOM     27  C   UNL     1      47.528   2.027   6.597  0.00  0.00    +0.000 C 
ENDBRANCH  20  27
ENDBRANCH  18  23
ENDBRANCH  17  18
ENDBRANCH   1  17
TORSDOF 6
ENDMDL
MODEL 2
REMARK VINA RESULT:    -8.374      2.797      3.820
REMARK INTER + INTRA:         -12.305
REMARK INTER:                 -11.356
REMARK INTRA:                  -0.949
REMARK UNBOUND:                -0.993
REMARK  Name = 
REMARK  6 active torsions:
REMARK  status: ('A' for Active; 'I' for Inactive)
REMARK    1  A    between atoms: C_2  and  C_3
REMARK    2  A    between atoms: C_6  and  N_7
REMARK    3  A    between atoms: N_7  and  C_8
REMARK    4  A    between atoms: C_8  and  C_9
REMARK    5  A    between atoms: C_9  and  C_12
REMARK    6  A    between atoms: C_14  and  N_15
REMARK                            x       y       z     vdW  Elec       q    Type
REMARK                         _______ _______ _______ _____ _____    ______ ____
ROOT
ATOM      1  C   UNL     1      43.393   4.582  12.664  0.00  0.00    +0.000 C 
ATOM      2  F   UNL     1      42.392   5.492  12.478  0.00  0.00    +0.000 F 
ATOM      3  F   UNL     1      43.030   3.890  13.794  0.00  0.00    +0.000 F 
ENDROOT
BRANCH   1   4
ATOM      4  C   UNL     1      44.735   5.258  12.825  0.00  0.00    +0.000 A 
ATOM      5  C   UNL     1      44.841   6.661  12.844  0.00  0.00    +0.000 A 
ATOM      6  C   UNL     1      46.081   7.324  12.925  0.00  0.00    +0.000 A 
ATOM      7  C   UNL     1      47.229   6.525  13.009  0.00  0.00    +0.000 A 
ATOM      8  C   UNL     1      47.147   5.130  13.012  0.00  0.00    +0.000 A 
ATOM      9  C   UNL     1      45.907   4.513  12.911  0.00  0.00    +0.000 A 
ATOM     10  F   UNL     1      45.858   3.174  12.905  0.00  0.00    +0.000 F 
BRANCH   6  11
ATOM     11  N   UNL     1      46.141   8.697  12.895  0.00  0.00    +0.000 N 
ATOM     12  C   UNL     1      45.006   9.545  12.499  0.00  0.00    +0.000 C 
ATOM     13  C   UNL     1      45.356  10.355  11.244  0.00  0.00    +0.000 C 
ATOM     14  O   UNL     1      46.568  11.109  11.426  0.00  0.00    +0.000 OA
ATOM     15  C   UNL     1      47.665  10.228  11.716  0.00  0.00    +0.000 C 
ATOM     16  C   UNL     1      47.422   9.414  13.000  0.00  0.00    +0.000 C 
ENDBRANCH   6  11
ENDBRANCH   1   4
BRANCH   1  17
ATOM     17  C   UNL     1      43.386   3.566  11.491  0.00  0.00    +0.000 C 
BRANCH  17  18
ATOM     18  N   UNL     1      43.665   4.173  10.173  0.00  0.00    +0.000 N 
ATOM     19  H   UNL     1      42.843   4.499   9.669  0.00  0.00    +0.000 HD
BRANCH  18  23
ATOM     20  C   UNL     1      46.585   2.558   7.590  0.00  0.00    +0.000 A 
ATOM     21  C   UNL     1      46.414   3.939   7.659  0.00  0.00    +0.000 A 
ATOM     22  C   UNL     1      45.465   4.486   8.529  0.00  0.00    +0.000 A 
ATOM     23  C   UNL     1      44.689   3.678   9.371  0.00  0.00    +0.000 A 
ATOM     24  C   UNL     1      44.869   2.291   9.281  0.00  0.00    +0.000 A 
ATOM     25  C   UNL     1      45.809   1.732   8.403  0.00  0.00    +0.000 A 
BRANCH  20  27
ATOM     26  N   UNL     1      48.311   1.541   5.943  0.00  0.00    +0.000 NA
ATOM     27  C   UNL     1      47.542   1.995   6.682  0.00  0.00    +0.000 C 
ENDBRANCH  20  27
ENDBRANCH  18  23
ENDBRANCH  17  18
ENDBRANCH   1  17
TORSDOF 6
ENDMDL
MODEL 3
REMARK VINA RESULT:    -7.899      1.600      2.092
REMARK INTER + INTRA:         -11.663
REMARK INTER:                 -10.966
REMARK INTRA:                  -0.697
REMARK UNBOUND:                -0.993
REMARK  Name = 
REMARK  6 active torsions:
REMARK  status: ('A' for Active; 'I' for Inactive)
REMARK    1  A    between atoms: C_2  and  C_3
REMARK    2  A    between atoms: C_6  and  N_7
REMARK    3  A    between atoms: N_7  and  C_8
REMARK    4  A    between atoms: C_8  and  C_9
REMARK    5  A    between atoms: C_9  and  C_12
REMARK    6  A    between atoms: C_14  and  N_15
REMARK                            x       y       z     vdW  Elec       q    Type
REMARK                         _______ _______ _______ _____ _____    ______ ____
ROOT
ATOM      1  C   UNL     1      43.280   4.827  12.337  0.00  0.00    +0.000 C 
ATOM      2  F   UNL     1      42.104   5.296  11.827  0.00  0.00    +0.000 F 
ATOM      3  F   UNL     1      42.995   4.514  13.643  0.00  0.00    +0.000 F 
ENDROOT
BRANCH   1   4
ATOM      4  C   UNL     1      44.381   5.858  12.233  0.00  0.00    +0.000 A 
ATOM      5  C   UNL     1      45.646   5.625  12.801  0.00  0.00    +0.000 A 
ATOM      6  C   UNL     1      46.673   6.589  12.780  0.00  0.00    +0.000 A 
ATOM      7  C   UNL     1      46.394   7.807  12.145  0.00  0.00    +0.000 A 
ATOM      8  C   UNL     1      45.151   8.053  11.557  0.00  0.00    +0.000 A 
ATOM      9  C   UNL     1      44.158   7.084  11.614  0.00  0.00    +0.000 A 
ATOM     10  F   UNL     1      42.971   7.351  11.052  0.00  0.00    +0.000 F 
BRANCH   6  11
ATOM     11  N   UNL     1      47.880   6.336  13.388  0.00  0.00    +0.000 N 
ATOM     12  C   UNL     1      47.999   5.752  14.733  0.00  0.00    +0.000 C 
ATOM     13  C   UNL     1      48.698   6.735  15.682  0.00  0.00    +0.000 C 
ATOM     14  O   UNL     1      49.966   7.163  15.155  0.00  0.00    +0.000 OA
ATOM     15  C   UNL     1      49.786   7.811  13.885  0.00  0.00    +0.000 C 
ATOM     16  C   UNL     1      49.140   6.873  12.849  0.00  0.00    +0.000 C 
ENDBRANCH   6  11
ENDBRANCH   1   4
BRANCH   1  17
ATOM     17  C   UNL     1      43.653   3.499  11.626  0.00  0.00    +0.000 C 
BRANCH  17  18
ATOM     18  N   UNL     1      43.524   3.552  10.155  0.00  0.00    +0.000 N 
ATOM     19  H   UNL     1      42.612   3.282   9.794  0.00  0.00    +0.000 HD
BRANCH  18  23
ATOM     20  C   UNL     1      46.620   2.409   7.525  0.00  0.00    +0.000 A 
ATOM     21  C   UNL     1      46.301   3.757   7.668  0.00  0.00    +0.000 A 
ATOM     22  C   UNL     1      45.292   4.149   8.554  0.00  0.00    +0.000 A 
ATOM     23  C   UNL     1      44.602   3.216   9.339  0.00  0.00    +0.000 A 
ATOM     24  C   UNL     1      44.932   1.864   9.175  0.00  0.00    +0.000 A 
ATOM     25  C   UNL     1      45.933   1.459   8.280  0.00  0.00    +0.000 A 
BRANCH  20  27
ATOM     26  N   UNL     1      48.466   1.676   5.857  0.00  0.00    +0.000 NA
ATOM     27  C   UNL     1      47.639   2.004   6.600  0.00  0.00    +0.000 C 
ENDBRANCH  20  27
ENDBRANCH  18  23
ENDBRANCH  17  18
ENDBRANCH   1  17
TORSDOF 6
ENDMDL
MODEL 4
REMARK VINA RESULT:    -7.460      2.818      4.010
REMARK INTER + INTRA:         -11.070
REMARK INTER:                 -10.154
REMARK INTRA:                  -0.916
REMARK UNBOUND:                -0.993
REMARK  Name = 
REMARK  6 active torsions:
REMARK  status: ('A' for Active; 'I' for Inactive)
REMARK    1  A    between atoms: C_2  and  C_3
REMARK    2  A    between atoms: C_6  and  N_7
REMARK    3  A    between atoms: N_7  and  C_8
REMARK    4  A    between atoms: C_8  and  C_9
REMARK    5  A    between atoms: C_9  and  C_12
REMARK    6  A    between atoms: C_14  and  N_15
REMARK                            x       y       z     vdW  Elec       q    Type
REMARK                         _______ _______ _______ _____ _____    ______ ____
ROOT
ATOM      1  C   UNL     1      44.867   5.583  11.954  0.00  0.00    +0.000 C 
ATOM      2  F   UNL     1      44.571   6.290  10.824  0.00  0.00    +0.000 F 
ATOM      3  F   UNL     1      43.831   5.850  12.814  0.00  0.00    +0.000 F 
ENDROOT
BRANCH   1   4
ATOM      4  C   UNL     1      46.201   5.997  12.533  0.00  0.00    +0.000 A 
ATOM      5  C   UNL     1      47.051   6.875  11.837  0.00  0.00    +0.000 A 
ATOM      6  C   UNL     1      48.327   7.229  12.315  0.00  0.00    +0.000 A 
ATOM      7  C   UNL     1      48.724   6.682  13.543  0.00  0.00    +0.000 A 
ATOM      8  C   UNL     1      47.889   5.824  14.262  0.00  0.00    +0.000 A 
ATOM      9  C   UNL     1      46.645   5.484  13.748  0.00  0.00    +0.000 A 
ATOM     10  F   UNL     1      45.868   4.648  14.453  0.00  0.00    +0.000 F 
BRANCH   6  11
ATOM     11  N   UNL     1      49.144   8.055  11.580  0.00  0.00    +0.000 N 
ATOM     12  C   UNL     1      50.397   7.602  10.956  0.00  0.00    +0.000 C 
ATOM     13  C   UNL     1      51.592   8.363  11.545  0.00  0.00    +0.000 C 
ATOM     14  O   UNL     1      51.411   9.787  11.443  0.00  0.00    +0.000 OA
ATOM     15  C   UNL     1      50.226  10.191  12.148  0.00  0.00    +0.000 C 
ATOM     16  C   UNL     1      48.963   9.516  11.582  0.00  0.00    +0.000 C 
ENDBRANCH   6  11
ENDBRANCH   1   4
BRANCH   1  17
ATOM     17  C   UNL     1      44.812   4.065  11.637  0.00  0.00    +0.000 C 
BRANCH  17  18
ATOM     18  N   UNL     1      44.200   3.749  10.330  0.00  0.00    +0.000 N 
ATOM     19  H   UNL     1      43.271   3.336  10.380  0.00  0.00    +0.000 HD
BRANCH  18  23
ATOM     20  C   UNL     1      46.790   2.512   7.237  0.00  0.00    +0.000 A 
ATOM     21  C   UNL     1      46.223   1.561   8.081  0.00  0.00    +0.000 A 
ATOM     22  C   UNL     1      45.345   1.958   9.096  0.00  0.00    +0.000 A 
ATOM     23  C   UNL     1      44.987   3.301   9.272  0.00  0.00    +0.000 A 
ATOM     24  C   UNL     1      45.575   4.244   8.417  0.00  0.00    +0.000 A 
ATOM     25  C   UNL     1      46.465   3.858   7.406  0.00  0.00    +0.000 A 
BRANCH  20  27
ATOM     26  N   UNL     1      48.453   1.779   5.387  0.00  0.00    +0.000 NA
ATOM     27  C   UNL     1      47.708   2.108   6.210  0.00  0.00    +0.000 C 
ENDBRANCH  20  27
ENDBRANCH  18  23
ENDBRANCH  17  18
ENDBRANCH   1  17
TORSDOF 6
ENDMDL
MODEL 5
REMARK VINA RESULT:    -6.565      2.328      3.424
REMARK INTER + INTRA:          -9.861
REMARK INTER:                  -9.768
REMARK INTRA:                  -0.092
REMARK UNBOUND:                -0.993
REMARK  Name = 
REMARK  6 active torsions:
REMARK  status: ('A' for Active; 'I' for Inactive)
REMARK    1  A    between atoms: C_2  and  C_3
REMARK    2  A    between atoms: C_6  and  N_7
REMARK    3  A    between atoms: N_7  and  C_8
REMARK    4  A    between atoms: C_8  and  C_9
REMARK    5  A    between atoms: C_9  and  C_12
REMARK    6  A    between atoms: C_14  and  N_15
REMARK                            x       y       z     vdW  Elec       q    Type
REMARK                         _______ _______ _______ _____ _____    ______ ____
ROOT
ATOM      1  C   UNL     1      45.388   6.462  11.499  0.00  0.00    +0.000 C 
ATOM      2  F   UNL     1      46.080   6.203  10.352  0.00  0.00    +0.000 F 
ATOM      3  F   UNL     1      45.114   7.807  11.445  0.00  0.00    +0.000 F 
ENDROOT
BRANCH   1   4
ATOM      4  C   UNL     1      46.193   6.101  12.727  0.00  0.00    +0.000 A 
ATOM      5  C   UNL     1      47.064   7.032  13.321  0.00  0.00    +0.000 A 
ATOM      6  C   UNL     1      47.878   6.709  14.423  0.00  0.00    +0.000 A 
ATOM      7  C   UNL     1      47.776   5.408  14.933  0.00  0.00    +0.000 A 
ATOM      8  C   UNL     1      46.905   4.472  14.372  0.00  0.00    +0.000 A 
ATOM      9  C   UNL     1      46.132   4.823  13.273  0.00  0.00    +0.000 A 
ATOM     10  F   UNL     1      45.313   3.902  12.747  0.00  0.00    +0.000 F 
BRANCH   6  11
ATOM     11  N   UNL     1      48.748   7.638  14.944  0.00  0.00    +0.000 N 
ATOM     12  C   UNL     1      48.350   9.013  15.283  0.00  0.00    +0.000 C 
ATOM     13  C   UNL     1      49.134  10.020  14.430  0.00  0.00    +0.000 C 
ATOM     14  O   UNL     1      50.553   9.815  14.544  0.00  0.00    +0.000 OA
ATOM     15  C   UNL     1      50.901   8.489  14.112  0.00  0.00    +0.000 C 
ATOM     16  C   UNL     1      50.202   7.409  14.957  0.00  0.00    +0.000 C 
ENDBRANCH   6  11
ENDBRANCH   1   4
BRANCH   1  17
ATOM     17  C   UNL     1      44.025   5.722  11.454  0.00  0.00    +0.000 C 
BRANCH  17  18
ATOM     18  N   UNL     1      43.634   5.271  10.103  0.00  0.00    +0.000 N 
ATOM     19  H   UNL     1      42.645   5.373   9.886  0.00  0.00    +0.000 HD
BRANCH  18  23
ATOM     20  C   UNL     1      45.740   2.028   8.413  0.00  0.00    +0.000 A 
ATOM     21  C   UNL     1      44.896   1.810   9.498  0.00  0.00    +0.000 A 
ATOM     22  C   UNL     1      44.175   2.874  10.052  0.00  0.00    +0.000 A 
ATOM     23  C   UNL     1      44.252   4.168   9.520  0.00  0.00    +0.000 A 
ATOM     24  C   UNL     1      45.114   4.369   8.433  0.00  0.00    +0.000 A 
ATOM     25  C   UNL     1      45.850   3.312   7.879  0.00  0.00    +0.000 A 
BRANCH  20  27
ATOM     26  N   UNL     1      47.110   0.064   7.418  0.00  0.00    +0.000 NA
ATOM     27  C   UNL     1      46.497   0.942   7.859  0.00  0.00    +0.000 C 
ENDBRANCH  20  27
ENDBRANCH  18  23
ENDBRANCH  17  18
ENDBRANCH   1  17
TORSDOF 6
ENDMDL
MODEL 6
REMARK VINA RESULT:    -6.390      3.873      7.860
REMARK INTER + INTRA:          -9.625
REMARK INTER:                  -8.749
REMARK INTRA:                  -0.875
REMARK UNBOUND:                -0.993
REMARK  Name = 
REMARK  6 active torsions:
REMARK  status: ('A' for Active; 'I' for Inactive)
REMARK    1  A    between atoms: C_2  and  C_3
REMARK    2  A    between atoms: C_6  and  N_7
REMARK    3  A    between atoms: N_7  and  C_8
REMARK    4  A    between atoms: C_8  and  C_9
REMARK    5  A    between atoms: C_9  and  C_12
REMARK    6  A    between atoms: C_14  and  N_15
REMARK                            x       y       z     vdW  Elec       q    Type
REMARK                         _______ _______ _______ _____ _____    ______ ____
ROOT
ATOM      1  C   UNL     1      48.746   6.669  15.357  0.00  0.00    +0.000 C 
ATOM      2  F   UNL     1      48.549   7.869  15.976  0.00  0.00    +0.000 F 
ATOM      3  F   UNL     1      50.101   6.607  15.138  0.00  0.00    +0.000 F 
ENDROOT
BRANCH   1   4
ATOM      4  C   UNL     1      47.963   6.574  14.067  0.00  0.00    +0.000 A 
ATOM      5  C   UNL     1      46.850   5.721  13.958  0.00  0.00    +0.000 A 
ATOM      6  C   UNL     1      46.138   5.558  12.754  0.00  0.00    +0.000 A 
ATOM      7  C   UNL     1      46.571   6.304  11.650  0.00  0.00    +0.000 A 
ATOM      8  C   UNL     1      47.661   7.172  11.740  0.00  0.00    +0.000 A 
ATOM      9  C   UNL     1      48.350   7.291  12.939  0.00  0.00    +0.000 A 
ATOM     10  F   UNL     1      49.400   8.122  12.995  0.00  0.00    +0.000 F 
BRANCH   6  11
ATOM     11  N   UNL     1      45.083   4.679  12.681  0.00  0.00    +0.000 N 
ATOM     12  C   UNL     1      45.204   3.320  12.131  0.00  0.00    +0.000 C 
ATOM     13  C   UNL     1      44.310   3.163  10.894  0.00  0.00    +0.000 C 
ATOM     14  O   UNL     1      42.946   3.520  11.181  0.00  0.00    +0.000 OA
ATOM     15  C   UNL     1      42.871   4.885  11.623  0.00  0.00    +0.000 C 
ATOM     16  C   UNL     1      43.696   5.121  12.901  0.00  0.00    +0.000 C 
ENDBRANCH   6  11
ENDBRANCH   1   4
BRANCH   1  17
ATOM     17  C   UNL     1      48.396   5.521  16.341  0.00  0.00    +0.000 C 
BRANCH  17  18
ATOM     18  N   UNL     1      49.303   5.433  17.503  0.00  0.00    +0.000 N 
ATOM     19  H   UNL     1      49.668   6.325  17.831  0.00  0.00    +0.000 HD
BRANCH  18  23
ATOM     20  C   UNL     1      51.932   2.136  17.651  0.00  0.00    +0.000 A 
ATOM     21  C   UNL     1      52.396   3.402  18.000  0.00  0.00    +0.000 A 
ATOM     22  C   UNL     1      51.526   4.498  17.977  0.00  0.00    +0.000 A 
ATOM     23  C   UNL     1      50.175   4.355  17.639  0.00  0.00    +0.000 A 
ATOM     24  C   UNL     1      49.730   3.075  17.282  0.00  0.00    +0.000 A 
ATOM     25  C   UNL     1      50.595   1.972  17.290  0.00  0.00    +0.000 A 
BRANCH  20  27
ATOM     26  N   UNL     1      53.556   0.113  17.650  0.00  0.00    +0.000 NA
ATOM     27  C   UNL     1      52.829   1.015  17.653  0.00  0.00    +0.000 C 
ENDBRANCH  20  27
ENDBRANCH  18  23
ENDBRANCH  17  18
ENDBRANCH   1  17
TORSDOF 6
ENDMDL
MODEL 7
REMARK VINA RESULT:    -6.370      2.738      7.654
REMARK INTER + INTRA:          -9.597
REMARK INTER:                  -8.917
REMARK INTRA:                  -0.680
REMARK UNBOUND:                -0.993
REMARK  Name = 
REMARK  6 active torsions:
REMARK  status: ('A' for Active; 'I' for Inactive)
REMARK    1  A    between atoms: C_2  and  C_3
REMARK    2  A    between atoms: C_6  and  N_7
REMARK    3  A    between atoms: N_7  and  C_8
REMARK    4  A    between atoms: C_8  and  C_9
REMARK    5  A    between atoms: C_9  and  C_12
REMARK    6  A    between atoms: C_14  and  N_15
REMARK                            x       y       z     vdW  Elec       q    Type
REMARK                         _______ _______ _______ _____ _____    ______ ____
ROOT
ATOM      1  C   UNL     1      45.190   6.665  11.846  0.00  0.00    +0.000 C 
ATOM      2  F   UNL     1      44.219   7.389  12.475  0.00  0.00    +0.000 F 
ATOM      3  F   UNL     1      45.459   7.367  10.696  0.00  0.00    +0.000 F 
ENDROOT
BRANCH   1   4
ATOM      4  C   UNL     1      44.729   5.256  11.550  0.00  0.00    +0.000 A 
ATOM      5  C   UNL     1      45.030   4.638  10.323  0.00  0.00    +0.000 A 
ATOM      6  C   UNL     1      44.560   3.354   9.989  0.00  0.00    +0.000 A 
ATOM      7  C   UNL     1      43.783   2.688  10.946  0.00  0.00    +0.000 A 
ATOM      8  C   UNL     1      43.488   3.274  12.179  0.00  0.00    +0.000 A 
ATOM      9  C   UNL     1      43.953   4.550  12.465  0.00  0.00    +0.000 A 
ATOM     10  F   UNL     1      43.645   5.093  13.651  0.00  0.00    +0.000 F 
BRANCH   6  11
ATOM     11  N   UNL     1      44.841   2.806   8.759  0.00  0.00    +0.000 N 
ATOM     12  C   UNL     1      45.196   1.392   8.569  0.00  0.00    +0.000 C 
ATOM     13  C   UNL     1      46.614   1.270   7.994  0.00  0.00    +0.000 C 
ATOM     14  O   UNL     1      46.761   2.040   6.788  0.00  0.00    +0.000 OA
ATOM     15  C   UNL     1      46.496   3.428   7.047  0.00  0.00    +0.000 C 
ATOM     16  C   UNL     1      45.067   3.650   7.574  0.00  0.00    +0.000 C 
ENDBRANCH   6  11
ENDBRANCH   1   4
BRANCH   1  17
ATOM     17  C   UNL     1      46.484   6.690  12.702  0.00  0.00    +0.000 C 
BRANCH  17  18
ATOM     18  N   UNL     1      46.945   5.353  13.128  0.00  0.00    +0.000 N 
ATOM     19  H   UNL     1      46.403   4.575  12.758  0.00  0.00    +0.000 HD
BRANCH  18  23
ATOM     20  C   UNL     1      48.343   4.960  17.090  0.00  0.00    +0.000 A 
ATOM     21  C   UNL     1      47.584   3.939  16.524  0.00  0.00    +0.000 A 
ATOM     22  C   UNL     1      47.134   4.049  15.203  0.00  0.00    +0.000 A 
ATOM     23  C   UNL     1      47.456   5.157  14.408  0.00  0.00    +0.000 A 
ATOM     24  C   UNL     1      48.214   6.177  14.999  0.00  0.00    +0.000 A 
ATOM     25  C   UNL     1      48.658   6.083  16.326  0.00  0.00    +0.000 A 
BRANCH  20  27
ATOM     26  N   UNL     1      49.141   4.770  19.550  0.00  0.00    +0.000 NA
ATOM     27  C   UNL     1      48.785   4.858  18.451  0.00  0.00    +0.000 C 
ENDBRANCH  20  27
ENDBRANCH  18  23
ENDBRANCH  17  18
ENDBRANCH   1  17
TORSDOF 6
ENDMDL
MODEL 8
REMARK VINA RESULT:    -6.141      2.749      4.513
REMARK INTER + INTRA:          -9.288
REMARK INTER:                  -8.176
REMARK INTRA:                  -1.112
REMARK UNBOUND:                -0.993
REMARK  Name = 
REMARK  6 active torsions:
REMARK  status: ('A' for Active; 'I' for Inactive)
REMARK    1  A    between atoms: C_2  and  C_3
REMARK    2  A    between atoms: C_6  and  N_7
REMARK    3  A    between atoms: N_7  and  C_8
REMARK    4  A    between atoms: C_8  and  C_9
REMARK    5  A    between atoms: C_9  and  C_12
REMARK    6  A    between atoms: C_14  and  N_15
REMARK                            x       y       z     vdW  Elec       q    Type
REMARK                         _______ _______ _______ _____ _____    ______ ____
ROOT
ATOM      1  C   UNL     1      48.433   7.591  13.243  0.00  0.00    +0.000 C 
ATOM      2  F   UNL     1      48.784   6.387  12.705  0.00  0.00    +0.000 F 
ATOM      3  F   UNL     1      49.290   8.495  12.665  0.00  0.00    +0.000 F 
ENDROOT
BRANCH   1   4
ATOM      4  C   UNL     1      48.556   7.583  14.750  0.00  0.00    +0.000 A 
ATOM      5  C   UNL     1      48.667   6.375  15.460  0.00  0.00    +0.000 A 
ATOM      6  C   UNL     1      48.716   6.326  16.866  0.00  0.00    +0.000 A 
ATOM      7  C   UNL     1      48.669   7.549  17.550  0.00  0.00    +0.000 A 
ATOM      8  C   UNL     1      48.578   8.763  16.865  0.00  0.00    +0.000 A 
ATOM      9  C   UNL     1      48.513   8.768  15.479  0.00  0.00    +0.000 A 
ATOM     10  F   UNL     1      48.414   9.946  14.847  0.00  0.00    +0.000 F 
BRANCH   6  11
ATOM     11  N   UNL     1      48.780   5.119  17.522  0.00  0.00    +0.000 N 
ATOM     12  C   UNL     1      49.986   4.641  18.214  0.00  0.00    +0.000 C 
ATOM     13  C   UNL     1      50.495   3.345  17.567  0.00  0.00    +0.000 C 
ATOM     14  O   UNL     1      49.462   2.346  17.509  0.00  0.00    +0.000 OA
ATOM     15  C   UNL     1      48.345   2.826  16.742  0.00  0.00    +0.000 C 
ATOM     16  C   UNL     1      47.733   4.098  17.356  0.00  0.00    +0.000 C 
ENDBRANCH   6  11
ENDBRANCH   1   4
BRANCH   1  17
ATOM     17  C   UNL     1      47.002   7.964  12.774  0.00  0.00    +0.000 C 
BRANCH  17  18
ATOM     18  N   UNL     1      45.961   7.013  13.217  0.00  0.00    +0.000 N 
ATOM     19  H   UNL     1      45.962   6.810  14.214  0.00  0.00    +0.000 HD
BRANCH  18  23
ATOM     20  C   UNL     1      45.060   3.796  10.639  0.00  0.00    +0.000 A 
ATOM     21  C   UNL     1      45.097   3.585  12.015  0.00  0.00    +0.000 A 
ATOM     22  C   UNL     1      45.373   4.650  12.880  0.00  0.00    +0.000 A 
ATOM     23  C   UNL     1      45.584   5.949  12.401  0.00  0.00    +0.000 A 
ATOM     24  C   UNL     1      45.550   6.139  11.012  0.00  0.00    +0.000 A 
ATOM     25  C   UNL     1      45.288   5.076  10.136  0.00  0.00    +0.000 A 
BRANCH  20  27
ATOM     26  N   UNL     1      44.594   1.818   9.027  0.00  0.00    +0.000 NA
ATOM     27  C   UNL     1      44.800   2.700   9.750  0.00  0.00    +0.000 C 
ENDBRANCH  20  27
ENDBRANCH  18  23
ENDBRANCH  17  18
ENDBRANCH   1  17
TORSDOF 6
ENDMDL
MODEL 9
REMARK VINA RESULT:    -5.922      3.571      5.257
REMARK INTER + INTRA:          -8.993
REMARK INTER:                  -7.840
REMARK INTRA:                  -1.153
REMARK UNBOUND:                -0.993
REMARK  Name = 
REMARK  6 active torsions:
REMARK  status: ('A' for Active; 'I' for Inactive)
REMARK    1  A    between atoms: C_2  and  C_3
REMARK    2  A    between atoms: C_6  and  N_7
REMARK    3  A    between atoms: N_7  and  C_8
REMARK    4  A    between atoms: C_8  and  C_9
REMARK    5  A    between atoms: C_9  and  C_12
REMARK    6  A    between atoms: C_14  and  N_15
REMARK                            x       y       z     vdW  Elec       q    Type
REMARK                         _______ _______ _______ _____ _____    ______ ____
ROOT
ATOM      1  C   UNL     1      49.097   8.409  13.676  0.00  0.00    +0.000 C 
ATOM      2  F   UNL     1      49.625   8.251  12.427  0.00  0.00    +0.000 F 
ATOM      3  F   UNL     1      49.147   9.762  13.908  0.00  0.00    +0.000 F 
ENDROOT
BRANCH   1   4
ATOM      4  C   UNL     1      49.879   7.631  14.711  0.00  0.00    +0.000 A 
ATOM      5  C   UNL     1      49.257   6.646  15.498  0.00  0.00    +0.000 A 
ATOM      6  C   UNL     1      49.938   5.950  16.515  0.00  0.00    +0.000 A 
ATOM      7  C   UNL     1      51.290   6.263  16.709  0.00  0.00    +0.000 A 
ATOM      8  C   UNL     1      51.934   7.224  15.926  0.00  0.00    +0.000 A 
ATOM      9  C   UNL     1      51.224   7.902  14.945  0.00  0.00    +0.000 A 
ATOM     10  F   UNL     1      51.864   8.828  14.217  0.00  0.00    +0.000 F 
BRANCH   6  11
ATOM     11  N   UNL     1      49.278   5.027  17.291  0.00  0.00    +0.000 N 
ATOM     12  C   UNL     1      49.843   3.713  17.637  0.00  0.00    +0.000 C 
ATOM     13  C   UNL     1      48.969   2.589  17.066  0.00  0.00    +0.000 C 
ATOM     14  O   UNL     1      47.599   2.724  17.483  0.00  0.00    +0.000 OA
ATOM     15  C   UNL     1      47.064   3.982  17.040  0.00  0.00    +0.000 C 
ATOM     16  C   UNL     1      47.850   5.174  17.616  0.00  0.00    +0.000 C 
ENDBRANCH   6  11
ENDBRANCH   1   4
BRANCH   1  17
ATOM     17  C   UNL     1      47.598   8.009  13.654  0.00  0.00    +0.000 C 
BRANCH  17  18
ATOM     18  N   UNL     1      47.091   7.669  12.308  0.00  0.00    +0.000 N 
ATOM     19  H   UNL     1      46.812   8.467  11.741  0.00  0.00    +0.000 HD
BRANCH  18  23
ATOM     20  C   UNL     1      44.631   4.269  11.866  0.00  0.00    +0.000 A 
ATOM     21  C   UNL     1      44.855   5.103  10.774  0.00  0.00    +0.000 A 
ATOM     22  C   UNL     1      45.688   6.221  10.903  0.00  0.00    +0.000 A 
ATOM     23  C   UNL     1      46.339   6.514  12.108  0.00  0.00    +0.000 A 
ATOM     24  C   UNL     1      46.094   5.668  13.198  0.00  0.00    +0.000 A 
ATOM     25  C   UNL     1      45.252   4.553  13.083  0.00  0.00    +0.000 A 
BRANCH  20  27
ATOM     26  N   UNL     1      43.060   2.218  11.644  0.00  0.00    +0.000 NA
ATOM     27  C   UNL     1      43.760   3.136  11.741  0.00  0.00    +0.000 C 
ENDBRANCH  20  27
ENDBRANCH  18  23
ENDBRANCH  17  18
ENDBRANCH   1  17
TORSDOF 6
ENDMDL
