MODEL 1
REMARK VINA RESULT:    -7.712      0.000      0.000
REMARK INTER + INTRA:          -9.448
REMARK INTER:                  -9.065
REMARK INTRA:                  -0.383
REMARK UNBOUND:                -0.383
REMARK  Name = 
REMARK  3 active torsions:
REMARK  status: ('A' for Active; 'I' for Inactive)
REMARK    1  A    between atoms: C_2  and  C_4
REMARK    2  A    between atoms: N_8  and  C_9
REMARK    3  A    between atoms: C_9  and  C_10
REMARK                            x       y       z     vdW  Elec       q    Type
REMARK                         _______ _______ _______ _____ _____    ______ ____
ROOT
ATOM      1  C   UNL     1      46.491   5.017  13.377  0.00  0.00    +0.000 A 
ATOM      2  C   UNL     1      46.858   6.047  12.518  0.00  0.00    +0.000 A 
ATOM      3  C   UNL     1      46.299   6.093  11.244  0.00  0.00    +0.000 A 
ATOM      4  C   UNL     1      45.414   5.094  10.835  0.00  0.00    +0.000 A 
ATOM      5  N   UNL     1      44.936   5.170   9.530  0.00  0.00    +0.000 N 
ATOM      6  N   UNL     1      45.067   4.078  11.647  0.00  0.00    +0.000 NA
ATOM      7  C   UNL     1      45.606   4.059  12.897  0.00  0.00    +0.000 A 
ATOM      8  H   UNL     1      44.376   6.008   9.404  0.00  0.00    +0.000 HD
ENDROOT
BRANCH   1  10
ATOM      9  N   UNL     1      47.782   5.927  15.221  0.00  0.00    +0.000 N 
ATOM     10  C   UNL     1      47.018   4.895  14.751  0.00  0.00    +0.000 C 
ATOM     11  O   UNL     1      46.759   3.926  15.453  0.00  0.00    +0.000 OA
ATOM     12  H   UNL     1      48.062   5.874  16.195  0.00  0.00    +0.000 HD
ATOM     13  H   UNL     1      47.834   6.827  14.767  0.00  0.00    +0.000 HD
ENDBRANCH   1  10
BRANCH   5  14
ATOM     14  C   UNL     1      44.298   3.982   8.986  0.00  0.00    +0.000 C 
BRANCH  14  15
ATOM     15  C   UNL     1      45.375   3.144   8.344  0.00  0.00    +0.000 A 
ATOM     16  C   UNL     1      46.258   3.700   7.409  0.00  0.00    +0.000 A 
ATOM     17  C   UNL     1      47.233   2.911   6.813  0.00  0.00    +0.000 A 
ATOM     18  C   UNL     1      47.304   1.578   7.182  0.00  0.00    +0.000 A 
ATOM     19  N   UNL     1      46.480   1.004   8.087  0.00  0.00    +0.000 NA
ATOM     20  C   UNL     1      45.539   1.799   8.649  0.00  0.00    +0.000 A 
ENDBRANCH  14  15
ENDBRANCH   5  14
TORSDOF 3
ENDMDL
MODEL 2
REMARK VINA RESULT:    -7.664      2.691      6.156
REMARK INTER + INTRA:          -9.391
REMARK INTER:                  -9.077
REMARK INTRA:                  -0.314
REMARK UNBOUND:                -0.383
REMARK  Name = 
REMARK  3 active torsions:
REMARK  status: ('A' for Active; 'I' for Inactive)
REMARK    1  A    between atoms: C_2  and  C_4
REMARK    2  A    between atoms: N_8  and  C_9
REMARK    3  A    between atoms: C_9  and  C_10
REMARK                            x       y       z     vdW  Elec       q    Type
REMARK                         _______ _______ _______ _____ _____    ______ ____
ROOT
ATOM      1  C   UNL     1      46.509   2.625   7.433  0.00  0.00    +0.000 A 
ATOM      2  C   UNL     1      45.886   1.644   8.196  0.00  0.00    +0.000 A 
ATOM      3  C   UNL     1      44.955   2.027   9.156  0.00  0.00    +0.000 A 
ATOM      4  C   UNL     1      44.686   3.381   9.366  0.00  0.00    +0.000 A 
ATOM      5  N   UNL     1      43.787   3.698  10.379  0.00  0.00    +0.000 N 
ATOM      6  N   UNL     1      45.299   4.343   8.650  0.00  0.00    +0.000 NA
ATOM      7  C   UNL     1      46.192   3.950   7.701  0.00  0.00    +0.000 A 
ATOM      8  H   UNL     1      42.863   3.334  10.162  0.00  0.00    +0.000 HD
ENDROOT
BRANCH   1  10
ATOM      9  N   UNL     1      47.538   3.145   5.297  0.00  0.00    +0.000 N 
ATOM     10  C   UNL     1      47.497   2.313   6.382  0.00  0.00    +0.000 C 
ATOM     11  O   UNL     1      48.271   1.370   6.487  0.00  0.00    +0.000 OA
ATOM     12  H   UNL     1      48.281   2.976   4.626  0.00  0.00    +0.000 HD
ATOM     13  H   UNL     1      47.083   4.046   5.274  0.00  0.00    +0.000 HD
ENDBRANCH   1  10
BRANCH   5  14
ATOM     14  C   UNL     1      43.754   5.079  10.831  0.00  0.00    +0.000 C 
BRANCH  14  15
ATOM     15  C   UNL     1      44.862   5.252  11.839  0.00  0.00    +0.000 A 
ATOM     16  C   UNL     1      45.837   6.245  11.672  0.00  0.00    +0.000 A 
ATOM     17  C   UNL     1      46.862   6.381  12.600  0.00  0.00    +0.000 A 
ATOM     18  C   UNL     1      46.875   5.518  13.683  0.00  0.00    +0.000 A 
ATOM     19  N   UNL     1      45.949   4.554  13.888  0.00  0.00    +0.000 NA
ATOM     20  C   UNL     1      44.965   4.446  12.965  0.00  0.00    +0.000 A 
ENDBRANCH  14  15
ENDBRANCH   5  14
TORSDOF 3
ENDMDL
MODEL 3
REMARK VINA RESULT:    -6.906      1.889      2.343
REMARK INTER + INTRA:          -8.501
REMARK INTER:                  -8.177
REMARK INTRA:                  -0.323
REMARK UNBOUND:                -0.383
REMARK  Name = 
REMARK  3 active torsions:
REMARK  status: ('A' for Active; 'I' for Inactive)
REMARK    1  A    between atoms: C_2  and  C_4
REMARK    2  A    between atoms: N_8  and  C_9
REMARK    3  A    between atoms: C_9  and  C_10
REMARK                            x       y       z     vdW  Elec       q    Type
REMARK                         _______ _______ _______ _____ _____    ______ ____
ROOT
ATOM      1  C   UNL     1      45.687   6.792  12.466  0.00  0.00    +0.000 A 
ATOM      2  C   UNL     1      45.518   5.632  13.213  0.00  0.00    +0.000 A 
ATOM      3  C   UNL     1      45.266   4.434  12.549  0.00  0.00    +0.000 A 
ATOM      4  C   UNL     1      45.151   4.418  11.158  0.00  0.00    +0.000 A 
ATOM      5  N   UNL     1      44.843   3.199  10.563  0.00  0.00    +0.000 N 
ATOM      6  N   UNL     1      45.290   5.538  10.424  0.00  0.00    +0.000 NA
ATOM      7  C   UNL     1      45.557   6.697  11.086  0.00  0.00    +0.000 A 
ATOM      8  H   UNL     1      45.591   2.528  10.718  0.00  0.00    +0.000 HD
ENDROOT
BRANCH   1  10
ATOM      9  N   UNL     1      45.025   9.079  12.938  0.00  0.00    +0.000 N 
ATOM     10  C   UNL     1      45.973   8.104  13.079  0.00  0.00    +0.000 C 
ATOM     11  O   UNL     1      47.001   8.305  13.714  0.00  0.00    +0.000 OA
ATOM     12  H   UNL     1      45.191   9.946  13.440  0.00  0.00    +0.000 HD
ATOM     13  H   UNL     1      44.084   8.894  12.622  0.00  0.00    +0.000 HD
ENDBRANCH   1  10
BRANCH   5  14
ATOM     14  C   UNL     1      44.392   3.228   9.182  0.00  0.00    +0.000 C 
BRANCH  14  15
ATOM     15  C   UNL     1      45.521   2.714   8.325  0.00  0.00    +0.000 A 
ATOM     16  C   UNL     1      46.171   3.554   7.412  0.00  0.00    +0.000 A 
ATOM     17  C   UNL     1      47.198   3.061   6.617  0.00  0.00    +0.000 A 
ATOM     18  C   UNL     1      47.555   1.732   6.770  0.00  0.00    +0.000 A 
ATOM     19  N   UNL     1      46.963   0.890   7.646  0.00  0.00    +0.000 NA
ATOM     20  C   UNL     1      45.964   1.400   8.405  0.00  0.00    +0.000 A 
ENDBRANCH  14  15
ENDBRANCH   5  14
TORSDOF 3
ENDMDL
MODEL 4
REMARK VINA RESULT:    -6.305      3.007      6.900
REMARK INTER + INTRA:          -7.794
REMARK INTER:                  -7.463
REMARK INTRA:                  -0.331
REMARK UNBOUND:                -0.383
REMARK  Name = 
REMARK  3 active torsions:
REMARK  status: ('A' for Active; 'I' for Inactive)
REMARK    1  A    between atoms: C_2  and  C_4
REMARK    2  A    between atoms: N_8  and  C_9
REMARK    3  A    between atoms: C_9  and  C_10
REMARK                            x       y       z     vdW  Elec       q    Type
REMARK                         _______ _______ _______ _____ _____    ______ ____
ROOT
ATOM      1  C   UNL     1      45.265   4.372  11.526  0.00  0.00    +0.000 A 
ATOM      2  C   UNL     1      45.874   5.601  11.749  0.00  0.00    +0.000 A 
ATOM      3  C   UNL     1      46.557   5.807  12.945  0.00  0.00    +0.000 A 
ATOM      4  C   UNL     1      46.591   4.800  13.911  0.00  0.00    +0.000 A 
ATOM      5  N   UNL     1      47.243   5.091  15.105  0.00  0.00    +0.000 N 
ATOM      6  N   UNL     1      45.986   3.613  13.717  0.00  0.00    +0.000 NA
ATOM      7  C   UNL     1      45.340   3.420  12.534  0.00  0.00    +0.000 A 
ATOM      8  H   UNL     1      48.233   5.254  14.940  0.00  0.00    +0.000 HD
ENDROOT
BRANCH   1  10
ATOM      9  N   UNL     1      44.722   4.891   9.217  0.00  0.00    +0.000 N 
ATOM     10  C   UNL     1      44.532   4.056  10.284  0.00  0.00    +0.000 C 
ATOM     11  O   UNL     1      43.808   3.073  10.198  0.00  0.00    +0.000 OA
ATOM     12  H   UNL     1      44.287   4.614   8.343  0.00  0.00    +0.000 HD
ATOM     13  H   UNL     1      45.467   5.571   9.173  0.00  0.00    +0.000 HD
ENDBRANCH   1  10
BRANCH   5  14
ATOM     14  C   UNL     1      47.001   4.202  16.229  0.00  0.00    +0.000 C 
BRANCH  14  15
ATOM     15  C   UNL     1      48.317   3.562  16.592  0.00  0.00    +0.000 A 
ATOM     16  C   UNL     1      49.262   4.250  17.364  0.00  0.00    +0.000 A 
ATOM     17  C   UNL     1      50.477   3.654  17.676  0.00  0.00    +0.000 A 
ATOM     18  C   UNL     1      50.707   2.370  17.212  0.00  0.00    +0.000 A 
ATOM     19  N   UNL     1      49.820   1.666  16.474  0.00  0.00    +0.000 NA
ATOM     20  C   UNL     1      48.646   2.275  16.185  0.00  0.00    +0.000 A 
ENDBRANCH  14  15
ENDBRANCH   5  14
TORSDOF 3
ENDMDL
MODEL 5
REMARK VINA RESULT:    -6.207      1.545      1.941
REMARK INTER + INTRA:          -7.679
REMARK INTER:                  -7.334
REMARK INTRA:                  -0.345
REMARK UNBOUND:                -0.383
REMARK  Name = 
REMARK  3 active torsions:
REMARK  status: ('A' for Active; 'I' for Inactive)
REMARK    1  A    between atoms: C_2  and  C_4
REMARK    2  A    between atoms: N_8  and  C_9
REMARK    3  A    between atoms: C_9  and  C_10
REMARK                            x       y       z     vdW  Elec       q    Type
REMARK                         _______ _______ _______ _____ _____    ______ ____
ROOT
ATOM      1  C   UNL     1      47.600   6.210  13.770  0.00  0.00    +0.000 A 
ATOM      2  C   UNL     1      47.467   7.182  12.786  0.00  0.00    +0.000 A 
ATOM      3  C   UNL     1      46.512   7.004  11.789  0.00  0.00    +0.000 A 
ATOM      4  C   UNL     1      45.732   5.847  11.769  0.00  0.00    +0.000 A 
ATOM      5  N   UNL     1      44.836   5.707  10.713  0.00  0.00    +0.000 N 
ATOM      6  N   UNL     1      45.866   4.887  12.703  0.00  0.00    +0.000 NA
ATOM      7  C   UNL     1      46.790   5.085  13.683  0.00  0.00    +0.000 A 
ATOM      8  H   UNL     1      44.128   6.435  10.748  0.00  0.00    +0.000 HD
ENDROOT
BRANCH   1  10
ATOM      9  N   UNL     1      49.572   7.244  14.740  0.00  0.00    +0.000 N 
ATOM     10  C   UNL     1      48.573   6.319  14.876  0.00  0.00    +0.000 C 
ATOM     11  O   UNL     1      48.476   5.634  15.886  0.00  0.00    +0.000 OA
ATOM     12  H   UNL     1      50.179   7.374  15.543  0.00  0.00    +0.000 HD
ATOM     13  H   UNL     1      49.560   7.971  14.041  0.00  0.00    +0.000 HD
ENDBRANCH   1  10
BRANCH   5  14
ATOM     14  C   UNL     1      44.273   4.385  10.490  0.00  0.00    +0.000 C 
BRANCH  14  15
ATOM     15  C   UNL     1      45.057   3.741   9.375  0.00  0.00    +0.000 A 
ATOM     16  C   UNL     1      45.208   2.349   9.313  0.00  0.00    +0.000 A 
ATOM     17  C   UNL     1      45.948   1.771   8.289  0.00  0.00    +0.000 A 
ATOM     18  C   UNL     1      46.510   2.611   7.342  0.00  0.00    +0.000 A 
ATOM     19  N   UNL     1      46.380   3.957   7.357  0.00  0.00    +0.000 NA
ATOM     20  C   UNL     1      45.655   4.489   8.369  0.00  0.00    +0.000 A 
ENDBRANCH  14  15
ENDBRANCH   5  14
TORSDOF 3
ENDMDL
MODEL 6
REMARK VINA RESULT:    -5.684      3.718      5.793
REMARK INTER + INTRA:          -7.064
REMARK INTER:                  -6.829
REMARK INTRA:                  -0.235
REMARK UNBOUND:                -0.383
REMARK  Name = 
REMARK  3 active torsions:
REMARK  status: ('A' for Active; 'I' for Inactive)
REMARK    1  A    between atoms: C_2  and  C_4
REMARK    2  A    between atoms: N_8  and  C_9
REMARK    3  A    between atoms: C_9  and  C_10
REMARK                            x       y       z     vdW  Elec       q    Type
REMARK                         _______ _______ _______ _____ _____    ______ ____
ROOT
ATOM      1  C   UNL     1      48.960   4.627  18.184  0.00  0.00    +0.000 A 
ATOM      2  C   UNL     1      48.070   3.560  18.172  0.00  0.00    +0.000 A 
ATOM      3  C   UNL     1      47.323   3.319  17.023  0.00  0.00    +0.000 A 
ATOM      4  C   UNL     1      47.449   4.164  15.919  0.00  0.00    +0.000 A 
ATOM      5  N   UNL     1      46.632   3.899  14.824  0.00  0.00    +0.000 N 
ATOM      6  N   UNL     1      48.290   5.215  15.925  0.00  0.00    +0.000 NA
ATOM      7  C   UNL     1      49.029   5.425  17.049  0.00  0.00    +0.000 A 
ATOM      8  H   UNL     1      46.861   2.995  14.420  0.00  0.00    +0.000 HD
ENDROOT
BRANCH   1  10
ATOM      9  N   UNL     1      49.569   4.258  20.506  0.00  0.00    +0.000 N 
ATOM     10  C   UNL     1      49.806   4.951  19.350  0.00  0.00    +0.000 C 
ATOM     11  O   UNL     1      50.702   5.783  19.282  0.00  0.00    +0.000 OA
ATOM     12  H   UNL     1      50.214   4.423  21.271  0.00  0.00    +0.000 HD
ATOM     13  H   UNL     1      49.003   3.423  20.543  0.00  0.00    +0.000 HD
ENDBRANCH   1  10
BRANCH   5  14
ATOM     14  C   UNL     1      46.504   4.945  13.823  0.00  0.00    +0.000 C 
BRANCH  14  15
ATOM     15  C   UNL     1      45.256   4.659  13.026  0.00  0.00    +0.000 A 
ATOM     16  C   UNL     1      45.152   3.502  12.242  0.00  0.00    +0.000 A 
ATOM     17  C   UNL     1      44.004   3.261  11.500  0.00  0.00    +0.000 A 
ATOM     18  C   UNL     1      42.977   4.188  11.575  0.00  0.00    +0.000 A 
ATOM     19  N   UNL     1      43.030   5.311  12.326  0.00  0.00    +0.000 NA
ATOM     20  C   UNL     1      44.164   5.518  13.036  0.00  0.00    +0.000 A 
ENDBRANCH  14  15
ENDBRANCH   5  14
TORSDOF 3
ENDMDL
MODEL 7
REMARK VINA RESULT:    -5.486      3.218      6.128
REMARK INTER + INTRA:          -6.831
REMARK INTER:                  -6.547
REMARK INTRA:                  -0.284
REMARK UNBOUND:                -0.383
REMARK  Name = 
REMARK  3 active torsions:
REMARK  status: ('A' for Active; 'I' for Inactive)
REMARK    1  A    between atoms: C_2  and  C_4
REMARK    2  A    between atoms: N_8  and  C_9
REMARK    3  A    between atoms: C_9  and  C_10
REMARK                            x       y       z     vdW  Elec       q    Type
REMARK                         _______ _______ _______ _____ _____    ______ ____
ROOT
ATOM      1  C   UNL     1      44.615   3.873  11.686  0.00  0.00    +0.000 A 
ATOM      2  C   UNL     1      45.495   3.714  12.750  0.00  0.00    +0.000 A 
ATOM      3  C   UNL     1      46.089   4.844  13.307  0.00  0.00    +0.000 A 
ATOM      4  C   UNL     1      45.824   6.106  12.772  0.00  0.00    +0.000 A 
ATOM      5  N   UNL     1      46.494   7.186  13.340  0.00  0.00    +0.000 N 
ATOM      6  N   UNL     1      44.992   6.272  11.727  0.00  0.00    +0.000 NA
ATOM      7  C   UNL     1      44.403   5.160  11.208  0.00  0.00    +0.000 A 
ATOM      8  H   UNL     1      46.214   7.308  14.309  0.00  0.00    +0.000 HD
ENDROOT
BRANCH   1  10
ATOM      9  N   UNL     1      44.489   2.230   9.903  0.00  0.00    +0.000 N 
ATOM     10  C   UNL     1      43.926   2.737  11.042  0.00  0.00    +0.000 C 
ATOM     11  O   UNL     1      42.911   2.247  11.520  0.00  0.00    +0.000 OA
ATOM     12  H   UNL     1      44.059   1.393   9.521  0.00  0.00    +0.000 HD
ATOM     13  H   UNL     1      45.427   2.451   9.604  0.00  0.00    +0.000 HD
ENDBRANCH   1  10
BRANCH   5  14
ATOM     14  C   UNL     1      46.495   8.433  12.594  0.00  0.00    +0.000 C 
BRANCH  14  15
ATOM     15  C   UNL     1      47.913   8.697  12.154  0.00  0.00    +0.000 A 
ATOM     16  C   UNL     1      48.771   7.641  11.822  0.00  0.00    +0.000 A 
ATOM     17  C   UNL     1      50.080   7.898  11.435  0.00  0.00    +0.000 A 
ATOM     18  C   UNL     1      50.491   9.220  11.381  0.00  0.00    +0.000 A 
ATOM     19  N   UNL     1      49.694  10.269  11.682  0.00  0.00    +0.000 NA
ATOM     20  C   UNL     1      48.425   9.984  12.057  0.00  0.00    +0.000 A 
ENDBRANCH  14  15
ENDBRANCH   5  14
TORSDOF 3
ENDMDL
MODEL 8
REMARK VINA RESULT:    -5.409      4.070      7.757
REMARK INTER + INTRA:          -6.741
REMARK INTER:                  -6.480
REMARK INTRA:                  -0.261
REMARK UNBOUND:                -0.383
REMARK  Name = 
REMARK  3 active torsions:
REMARK  status: ('A' for Active; 'I' for Inactive)
REMARK    1  A    between atoms: C_2  and  C_4
REMARK    2  A    between atoms: N_8  and  C_9
REMARK    3  A    between atoms: C_9  and  C_10
REMARK                            x       y       z     vdW  Elec       q    Type
REMARK                         _______ _______ _______ _____ _____    ______ ____
ROOT
ATOM      1  C   UNL     1      44.529   5.681  12.109  0.00  0.00    +0.000 A 
ATOM      2  C   UNL     1      45.519   6.646  12.256  0.00  0.00    +0.000 A 
ATOM      3  C   UNL     1      46.533   6.435  13.186  0.00  0.00    +0.000 A 
ATOM      4  C   UNL     1      46.524   5.286  13.979  0.00  0.00    +0.000 A 
ATOM      5  N   UNL     1      47.535   5.165  14.927  0.00  0.00    +0.000 N 
ATOM      6  N   UNL     1      45.558   4.354  13.864  0.00  0.00    +0.000 NA
ATOM      7  C   UNL     1      44.586   4.565  12.935  0.00  0.00    +0.000 A 
ATOM      8  H   UNL     1      48.442   5.097  14.474  0.00  0.00    +0.000 HD
ENDROOT
BRANCH   1  10
ATOM      9  N   UNL     1      42.675   6.953  11.192  0.00  0.00    +0.000 N 
ATOM     10  C   UNL     1      43.424   5.809  11.139  0.00  0.00    +0.000 C 
ATOM     11  O   UNL     1      43.203   4.945  10.300  0.00  0.00    +0.000 OA
ATOM     12  H   UNL     1      41.979   7.071  10.463  0.00  0.00    +0.000 HD
ATOM     13  H   UNL     1      42.956   7.774  11.708  0.00  0.00    +0.000 HD
ENDBRANCH   1  10
BRANCH   5  14
ATOM     14  C   UNL     1      47.352   4.168  15.969  0.00  0.00    +0.000 C 
BRANCH  14  15
ATOM     15  C   UNL     1      48.072   4.661  17.199  0.00  0.00    +0.000 A 
ATOM     16  C   UNL     1      48.419   3.778  18.231  0.00  0.00    +0.000 A 
ATOM     17  C   UNL     1      49.067   4.250  19.366  0.00  0.00    +0.000 A 
ATOM     18  C   UNL     1      49.362   5.601  19.429  0.00  0.00    +0.000 A 
ATOM     19  N   UNL     1      49.056   6.485  18.452  0.00  0.00    +0.000 NA
ATOM     20  C   UNL     1      48.423   5.994  17.361  0.00  0.00    +0.000 A 
ENDBRANCH  14  15
ENDBRANCH   5  14
TORSDOF 3
ENDMDL
MODEL 9
REMARK VINA RESULT:    -4.977      3.090      6.467
REMARK INTER + INTRA:          -6.233
REMARK INTER:                  -5.899
REMARK INTRA:                  -0.335
REMARK UNBOUND:                -0.383
REMARK  Name = 
REMARK  3 active torsions:
REMARK  status: ('A' for Active; 'I' for Inactive)
REMARK    1  A    between atoms: C_2  and  C_4
REMARK    2  A    between atoms: N_8  and  C_9
REMARK    3  A    between atoms: C_9  and  C_10
REMARK                            x       y       z     vdW  Elec       q    Type
REMARK                         _______ _______ _______ _____ _____    ______ ____
ROOT
ATOM      1  C   UNL     1      44.846   3.976  10.954  0.00  0.00    +0.000 A 
ATOM      2  C   UNL     1      45.266   4.853   9.961  0.00  0.00    +0.000 A 
ATOM      3  C   UNL     1      45.936   6.016  10.330  0.00  0.00    +0.000 A 
ATOM      4  C   UNL     1      46.145   6.303  11.679  0.00  0.00    +0.000 A 
ATOM      5  N   UNL     1      46.771   7.509  11.980  0.00  0.00    +0.000 N 
ATOM      6  N   UNL     1      45.724   5.473  12.653  0.00  0.00    +0.000 NA
ATOM      7  C   UNL     1      45.088   4.330  12.275  0.00  0.00    +0.000 A 
ATOM      8  H   UNL     1      47.720   7.517  11.617  0.00  0.00    +0.000 HD
ENDROOT
BRANCH   1  10
ATOM      9  N   UNL     1      43.358   2.188  11.650  0.00  0.00    +0.000 N 
ATOM     10  C   UNL     1      44.143   2.711  10.660  0.00  0.00    +0.000 C 
ATOM     11  O   UNL     1      44.232   2.167   9.566  0.00  0.00    +0.000 OA
ATOM     12  H   UNL     1      42.809   1.370  11.406  0.00  0.00    +0.000 HD
ATOM     13  H   UNL     1      43.083   2.708  12.470  0.00  0.00    +0.000 HD
ENDBRANCH   1  10
BRANCH   5  14
ATOM     14  C   UNL     1      46.692   7.974  13.355  0.00  0.00    +0.000 C 
BRANCH  14  15
ATOM     15  C   UNL     1      48.073   7.863  13.951  0.00  0.00    +0.000 A 
ATOM     16  C   UNL     1      49.026   8.871  13.751  0.00  0.00    +0.000 A 
ATOM     17  C   UNL     1      50.299   8.746  14.292  0.00  0.00    +0.000 A 
ATOM     18  C   UNL     1      50.579   7.610  15.034  0.00  0.00    +0.000 A 
ATOM     19  N   UNL     1      49.688   6.620  15.261  0.00  0.00    +0.000 NA
ATOM     20  C   UNL     1      48.456   6.771  14.718  0.00  0.00    +0.000 A 
ENDBRANCH  14  15
ENDBRANCH   5  14
TORSDOF 3
ENDMDL
