MODEL 1
REMARK VINA RESULT:    -8.277      0.000      0.000
REMARK INTER + INTRA:         -11.251
REMARK INTER:                 -10.212
REMARK INTRA:                  -1.039
REMARK UNBOUND:                -1.039
REMARK  Name = 
REMARK  4 active torsions:
REMARK  status: ('A' for Active; 'I' for Inactive)
REMARK    1  A    between atoms: C_2  and  C_3
REMARK    2  A    between atoms: N_7  and  C_8
REMARK    3  A    between atoms: C_8  and  C_9
REMARK    4  A    between atoms: C_13  and  C_14
REMARK                            x       y       z     vdW  Elec       q    Type
REMARK                         _______ _______ _______ _____ _____    ______ ____
ROOT
ATOM      1  C   UNL     1      43.934   5.026  11.293  0.00  0.00    +0.000 C 
ATOM      2  C   UNL     1      42.552   5.115  11.957  0.00  0.00    +0.000 C 
ATOM      3  C   UNL     1      42.988   6.182  11.015  0.00  0.00    +0.000 C 
ENDROOT
BRANCH   1   8
ATOM      4  C   UNL     1      46.692   2.642   7.488  0.00  0.00    +0.000 A 
ATOM      5  C   UNL     1      46.503   4.009   7.681  0.00  0.00    +0.000 A 
ATOM      6  C   UNL     1      45.673   4.457   8.717  0.00  0.00    +0.000 A 
ATOM      7  C   UNL     1      45.037   3.524   9.522  0.00  0.00    +0.000 A 
ATOM      8  N   UNL     1      44.078   3.821  10.480  0.00  0.00    +0.000 N 
ATOM      9  N   UNL     1      45.230   2.194   9.350  0.00  0.00    +0.000 NA
ATOM     10  C   UNL     1      46.049   1.782   8.358  0.00  0.00    +0.000 A 
ATOM     11  H   UNL     1      43.823   2.939  10.914  0.00  0.00    +0.000 HD
BRANCH   4  13
ATOM     12  N   UNL     1      48.148   1.718   5.555  0.00  0.00    +0.000 NA
ATOM     13  C   UNL     1      47.489   2.126   6.422  0.00  0.00    +0.000 C 
ENDBRANCH   4  13
ENDBRANCH   1   8
BRANCH   1  14
ATOM     14  C   UNL     1      45.109   5.328  12.223  0.00  0.00    +0.000 A 
ATOM     15  C   UNL     1      45.558   4.383  13.157  0.00  0.00    +0.000 A 
ATOM     16  C   UNL     1      46.822   4.489  13.729  0.00  0.00    +0.000 A 
ATOM     17  C   UNL     1      47.640   5.574  13.411  0.00  0.00    +0.000 A 
ATOM     18  C   UNL     1      47.189   6.604  12.570  0.00  0.00    +0.000 A 
ATOM     19  C   UNL     1      45.903   6.475  12.018  0.00  0.00    +0.000 A 
BRANCH  18  20
ATOM     20  C   UNL     1      48.063   7.731  12.191  0.00  0.00    +0.000 A 
ATOM     21  C   UNL     1      49.413   7.519  11.877  0.00  0.00    +0.000 A 
ATOM     22  C   UNL     1      50.202   8.595  11.503  0.00  0.00    +0.000 A 
ATOM     23  N   UNL     1      49.748   9.860  11.411  0.00  0.00    +0.000 NA
ATOM     24  C   UNL     1      48.447  10.055  11.707  0.00  0.00    +0.000 A 
ATOM     25  C   UNL     1      47.581   9.042  12.095  0.00  0.00    +0.000 A 
ENDBRANCH  18  20
ENDBRANCH   1  14
TORSDOF 4
ENDMDL
MODEL 2
REMARK VINA RESULT:    -8.018      2.142      3.386
REMARK INTER + INTRA:         -10.933
REMARK INTER:                 -10.236
REMARK INTRA:                  -0.696
REMARK UNBOUND:                -1.039
REMARK  Name = 
REMARK  4 active torsions:
REMARK  status: ('A' for Active; 'I' for Inactive)
REMARK    1  A    between atoms: C_2  and  C_3
REMARK    2  A    between atoms: N_7  and  C_8
REMARK    3  A    between atoms: C_8  and  C_9
REMARK    4  A    between atoms: C_13  and  C_14
REMARK                            x       y       z     vdW  Elec       q    Type
REMARK                         _______ _______ _______ _____ _____    ______ ____
ROOT
ATOM      1  C   UNL     1      43.901   4.963  11.349  0.00  0.00    +0.000 C 
ATOM      2  C   UNL     1      42.820   4.805  12.428  0.00  0.00    +0.000 C 
ATOM      3  C   UNL     1      42.670   5.853  11.382  0.00  0.00    +0.000 C 
ENDROOT
BRANCH   1   8
ATOM      4  C   UNL     1      46.616   2.621   7.487  0.00  0.00    +0.000 A 
ATOM      5  C   UNL     1      46.383   3.983   7.667  0.00  0.00    +0.000 A 
ATOM      6  C   UNL     1      45.572   4.417   8.724  0.00  0.00    +0.000 A 
ATOM      7  C   UNL     1      44.998   3.474   9.564  0.00  0.00    +0.000 A 
ATOM      8  N   UNL     1      44.062   3.752  10.549  0.00  0.00    +0.000 N 
ATOM      9  N   UNL     1      45.235   2.150   9.405  0.00  0.00    +0.000 NA
ATOM     10  C   UNL     1      46.034   1.752   8.391  0.00  0.00    +0.000 A 
ATOM     11  H   UNL     1      43.855   2.868  11.005  0.00  0.00    +0.000 HD
BRANCH   4  13
ATOM     12  N   UNL     1      48.041   1.718   5.523  0.00  0.00    +0.000 NA
ATOM     13  C   UNL     1      47.395   2.118   6.403  0.00  0.00    +0.000 C 
ENDBRANCH   4  13
ENDBRANCH   1   8
BRANCH   1  14
ATOM     14  C   UNL     1      45.203   5.598  11.839  0.00  0.00    +0.000 A 
ATOM     15  C   UNL     1      45.610   6.862  11.387  0.00  0.00    +0.000 A 
ATOM     16  C   UNL     1      46.564   7.596  12.086  0.00  0.00    +0.000 A 
ATOM     17  C   UNL     1      47.162   7.054  13.223  0.00  0.00    +0.000 A 
ATOM     18  C   UNL     1      46.871   5.747  13.647  0.00  0.00    +0.000 A 
ATOM     19  C   UNL     1      45.914   5.026  12.913  0.00  0.00    +0.000 A 
BRANCH  18  20
ATOM     20  C   UNL     1      47.465   5.183  14.874  0.00  0.00    +0.000 A 
ATOM     21  C   UNL     1      48.343   5.940  15.662  0.00  0.00    +0.000 A 
ATOM     22  C   UNL     1      48.865   5.390  16.820  0.00  0.00    +0.000 A 
ATOM     23  N   UNL     1      48.575   4.149  17.257  0.00  0.00    +0.000 NA
ATOM     24  C   UNL     1      47.724   3.428  16.498  0.00  0.00    +0.000 A 
ATOM     25  C   UNL     1      47.154   3.892  15.321  0.00  0.00    +0.000 A 
ENDBRANCH  18  20
ENDBRANCH   1  14
TORSDOF 4
ENDMDL
MODEL 3
REMARK VINA RESULT:    -6.334      1.588      6.756
REMARK INTER + INTRA:          -8.855
REMARK INTER:                  -7.890
REMARK INTRA:                  -0.964
REMARK UNBOUND:                -1.039
REMARK  Name = 
REMARK  4 active torsions:
REMARK  status: ('A' for Active; 'I' for Inactive)
REMARK    1  A    between atoms: C_2  and  C_3
REMARK    2  A    between atoms: N_7  and  C_8
REMARK    3  A    between atoms: C_8  and  C_9
REMARK    4  A    between atoms: C_13  and  C_14
REMARK                            x       y       z     vdW  Elec       q    Type
REMARK                         _______ _______ _______ _____ _____    ______ ____
ROOT
ATOM      1  C   UNL     1      46.185   5.050  13.421  0.00  0.00    +0.000 C 
ATOM      2  C   UNL     1      45.986   4.285  14.738  0.00  0.00    +0.000 C 
ATOM      3  C   UNL     1      47.158   3.974  13.874  0.00  0.00    +0.000 C 
ENDROOT
BRANCH   1   8
ATOM      4  C   UNL     1      48.480   9.489  11.749  0.00  0.00    +0.000 A 
ATOM      5  C   UNL     1      48.952   8.183  11.629  0.00  0.00    +0.000 A 
ATOM      6  C   UNL     1      48.230   7.127  12.203  0.00  0.00    +0.000 A 
ATOM      7  C   UNL     1      47.062   7.408  12.897  0.00  0.00    +0.000 A 
ATOM      8  N   UNL     1      46.335   6.487  13.635  0.00  0.00    +0.000 N 
ATOM      9  N   UNL     1      46.590   8.674  13.001  0.00  0.00    +0.000 NA
ATOM     10  C   UNL     1      47.290   9.676  12.426  0.00  0.00    +0.000 A 
ATOM     11  H   UNL     1      45.529   6.985  14.001  0.00  0.00    +0.000 HD
BRANCH   4  13
ATOM     12  N   UNL     1      49.790  11.514  10.805  0.00  0.00    +0.000 NA
ATOM     13  C   UNL     1      49.195  10.608  11.225  0.00  0.00    +0.000 C 
ENDBRANCH   4  13
ENDBRANCH   1   8
BRANCH   1  14
ATOM     14  C   UNL     1      45.221   4.656  12.302  0.00  0.00    +0.000 A 
ATOM     15  C   UNL     1      43.933   5.208  12.225  0.00  0.00    +0.000 A 
ATOM     16  C   UNL     1      43.203   5.153  11.042  0.00  0.00    +0.000 A 
ATOM     17  C   UNL     1      43.732   4.500   9.928  0.00  0.00    +0.000 A 
ATOM     18  C   UNL     1      44.967   3.834   9.993  0.00  0.00    +0.000 A 
ATOM     19  C   UNL     1      45.675   3.896  11.206  0.00  0.00    +0.000 A 
BRANCH  18  20
ATOM     20  C   UNL     1      45.555   3.180   8.808  0.00  0.00    +0.000 A 
ATOM     21  C   UNL     1      45.965   3.934   7.700  0.00  0.00    +0.000 A 
ATOM     22  C   UNL     1      46.535   3.292   6.613  0.00  0.00    +0.000 A 
ATOM     23  N   UNL     1      46.733   1.962   6.548  0.00  0.00    +0.000 NA
ATOM     24  C   UNL     1      46.343   1.243   7.620  0.00  0.00    +0.000 A 
ATOM     25  C   UNL     1      45.759   1.796   8.752  0.00  0.00    +0.000 A 
ENDBRANCH  18  20
ENDBRANCH   1  14
TORSDOF 4
ENDMDL
MODEL 4
REMARK VINA RESULT:    -6.205      3.471      8.069
REMARK INTER + INTRA:          -8.695
REMARK INTER:                  -7.905
REMARK INTRA:                  -0.790
REMARK UNBOUND:                -1.039
REMARK  Name = 
REMARK  4 active torsions:
REMARK  status: ('A' for Active; 'I' for Inactive)
REMARK    1  A    between atoms: C_2  and  C_3
REMARK    2  A    between atoms: N_7  and  C_8
REMARK    3  A    between atoms: C_8  and  C_9
REMARK    4  A    between atoms: C_13  and  C_14
REMARK                            x       y       z     vdW  Elec       q    Type
REMARK                         _______ _______ _______ _____ _____    ______ ____
ROOT
ATOM      1  C   UNL     1      48.863   7.796  12.763  0.00  0.00    +0.000 C 
ATOM      2  C   UNL     1      49.745   7.769  11.506  0.00  0.00    +0.000 C 
ATOM      3  C   UNL     1      49.467   9.065  12.184  0.00  0.00    +0.000 C 
ENDROOT
BRANCH   1   8
ATOM      4  C   UNL     1      48.914   6.926  17.960  0.00  0.00    +0.000 A 
ATOM      5  C   UNL     1      48.639   8.119  17.293  0.00  0.00    +0.000 A 
ATOM      6  C   UNL     1      48.743   8.176  15.897  0.00  0.00    +0.000 A 
ATOM      7  C   UNL     1      49.139   7.041  15.204  0.00  0.00    +0.000 A 
ATOM      8  N   UNL     1      49.426   6.997  13.848  0.00  0.00    +0.000 N 
ATOM      9  N   UNL     1      49.390   5.874  15.844  0.00  0.00    +0.000 NA
ATOM     10  C   UNL     1      49.267   5.834  17.189  0.00  0.00    +0.000 A 
ATOM     11  H   UNL     1      49.660   6.032  13.635  0.00  0.00    +0.000 HD
BRANCH   4  13
ATOM     12  N   UNL     1      48.839   6.721  20.540  0.00  0.00    +0.000 NA
ATOM     13  C   UNL     1      48.869   6.820  19.382  0.00  0.00    +0.000 C 
ENDBRANCH   4  13
ENDBRANCH   1   8
BRANCH   1  14
ATOM     14  C   UNL     1      47.372   7.581  12.501  0.00  0.00    +0.000 A 
ATOM     15  C   UNL     1      46.446   8.620  12.680  0.00  0.00    +0.000 A 
ATOM     16  C   UNL     1      45.182   8.555  12.101  0.00  0.00    +0.000 A 
ATOM     17  C   UNL     1      44.807   7.425  11.374  0.00  0.00    +0.000 A 
ATOM     18  C   UNL     1      45.658   6.313  11.266  0.00  0.00    +0.000 A 
ATOM     19  C   UNL     1      46.922   6.403  11.872  0.00  0.00    +0.000 A 
BRANCH  18  20
ATOM     20  C   UNL     1      45.288   5.133  10.461  0.00  0.00    +0.000 A 
ATOM     21  C   UNL     1      44.530   4.093  11.017  0.00  0.00    +0.000 A 
ATOM     22  C   UNL     1      44.179   3.010  10.229  0.00  0.00    +0.000 A 
ATOM     23  N   UNL     1      44.517   2.887   8.931  0.00  0.00    +0.000 NA
ATOM     24  C   UNL     1      45.239   3.895   8.400  0.00  0.00    +0.000 A 
ATOM     25  C   UNL     1      45.641   5.017   9.111  0.00  0.00    +0.000 A 
ENDBRANCH  18  20
ENDBRANCH   1  14
TORSDOF 4
ENDMDL
MODEL 5
REMARK VINA RESULT:    -5.966      1.367      2.156
REMARK INTER + INTRA:          -8.400
REMARK INTER:                  -8.545
REMARK INTRA:                   0.145
REMARK UNBOUND:                -1.039
REMARK  Name = 
REMARK  4 active torsions:
REMARK  status: ('A' for Active; 'I' for Inactive)
REMARK    1  A    between atoms: C_2  and  C_3
REMARK    2  A    between atoms: N_7  and  C_8
REMARK    3  A    between atoms: C_8  and  C_9
REMARK    4  A    between atoms: C_13  and  C_14
REMARK                            x       y       z     vdW  Elec       q    Type
REMARK                         _______ _______ _______ _____ _____    ______ ____
ROOT
ATOM      1  C   UNL     1      43.918   4.857  11.951  0.00  0.00    +0.000 C 
ATOM      2  C   UNL     1      44.325   4.162  13.259  0.00  0.00    +0.000 C 
ATOM      3  C   UNL     1      43.015   4.863  13.174  0.00  0.00    +0.000 C 
ENDROOT
BRANCH   1   8
ATOM      4  C   UNL     1      46.144   3.242   7.457  0.00  0.00    +0.000 A 
ATOM      5  C   UNL     1      46.191   4.512   8.028  0.00  0.00    +0.000 A 
ATOM      6  C   UNL     1      45.473   4.774   9.203  0.00  0.00    +0.000 A 
ATOM      7  C   UNL     1      44.710   3.761   9.766  0.00  0.00    +0.000 A 
ATOM      8  N   UNL     1      43.838   3.921  10.832  0.00  0.00    +0.000 N 
ATOM      9  N   UNL     1      44.674   2.520   9.224  0.00  0.00    +0.000 NA
ATOM     10  C   UNL     1      45.388   2.282   8.103  0.00  0.00    +0.000 A 
ATOM     11  H   UNL     1      43.450   3.003  11.026  0.00  0.00    +0.000 HD
BRANCH   4  13
ATOM     12  N   UNL     1      47.379   2.682   5.250  0.00  0.00    +0.000 NA
ATOM     13  C   UNL     1      46.818   2.929   6.238  0.00  0.00    +0.000 C 
ENDBRANCH   4  13
ENDBRANCH   1   8
BRANCH   1  14
ATOM     14  C   UNL     1      44.664   6.158  11.660  0.00  0.00    +0.000 A 
ATOM     15  C   UNL     1      43.978   7.317  11.268  0.00  0.00    +0.000 A 
ATOM     16  C   UNL     1      44.579   8.569  11.365  0.00  0.00    +0.000 A 
ATOM     17  C   UNL     1      45.896   8.676  11.811  0.00  0.00    +0.000 A 
ATOM     18  C   UNL     1      46.660   7.534  12.105  0.00  0.00    +0.000 A 
ATOM     19  C   UNL     1      46.030   6.284  11.985  0.00  0.00    +0.000 A 
BRANCH  18  20
ATOM     20  C   UNL     1      48.038   7.639  12.620  0.00  0.00    +0.000 A 
ATOM     21  C   UNL     1      49.077   8.112  11.806  0.00  0.00    +0.000 A 
ATOM     22  C   UNL     1      50.355   8.220  12.327  0.00  0.00    +0.000 A 
ATOM     23  N   UNL     1      50.677   7.903  13.595  0.00  0.00    +0.000 NA
ATOM     24  C   UNL     1      49.672   7.456  14.376  0.00  0.00    +0.000 A 
ATOM     25  C   UNL     1      48.362   7.309  13.942  0.00  0.00    +0.000 A 
ENDBRANCH  18  20
ENDBRANCH   1  14
TORSDOF 4
ENDMDL
MODEL 6
REMARK VINA RESULT:    -5.871      5.312      8.248
REMARK INTER + INTRA:          -8.283
REMARK INTER:                  -7.533
REMARK INTRA:                  -0.750
REMARK UNBOUND:                -1.039
REMARK  Name = 
REMARK  4 active torsions:
REMARK  status: ('A' for Active; 'I' for Inactive)
REMARK    1  A    between atoms: C_2  and  C_3
REMARK    2  A    between atoms: N_7  and  C_8
REMARK    3  A    between atoms: C_8  and  C_9
REMARK    4  A    between atoms: C_13  and  C_14
REMARK                            x       y       z     vdW  Elec       q    Type
REMARK                         _______ _______ _______ _____ _____    ______ ____
ROOT
ATOM      1  C   UNL     1      48.245   4.579  17.159  0.00  0.00    +0.000 C 
ATOM      2  C   UNL     1      47.150   4.773  18.218  0.00  0.00    +0.000 C 
ATOM      3  C   UNL     1      47.162   3.538  17.388  0.00  0.00    +0.000 C 
ENDROOT
BRANCH   1   8
ATOM      4  C   UNL     1      52.759   1.908  17.658  0.00  0.00    +0.000 A 
ATOM      5  C   UNL     1      51.481   1.396  17.442  0.00  0.00    +0.000 A 
ATOM      6  C   UNL     1      50.381   2.265  17.406  0.00  0.00    +0.000 A 
ATOM      7  C   UNL     1      50.588   3.622  17.606  0.00  0.00    +0.000 A 
ATOM      8  N   UNL     1      49.583   4.567  17.744  0.00  0.00    +0.000 N 
ATOM      9  N   UNL     1      51.830   4.127  17.798  0.00  0.00    +0.000 NA
ATOM     10  C   UNL     1      52.879   3.276  17.812  0.00  0.00    +0.000 A 
ATOM     11  H   UNL     1      50.046   5.465  17.852  0.00  0.00    +0.000 HD
BRANCH   4  13
ATOM     12  N   UNL     1      54.844   0.382  17.840  0.00  0.00    +0.000 NA
ATOM     13  C   UNL     1      53.910   1.068  17.750  0.00  0.00    +0.000 C 
ENDBRANCH   4  13
ENDBRANCH   1   8
BRANCH   1  14
ATOM     14  C   UNL     1      48.087   5.449  15.912  0.00  0.00    +0.000 A 
ATOM     15  C   UNL     1      49.007   6.465  15.614  0.00  0.00    +0.000 A 
ATOM     16  C   UNL     1      49.091   6.997  14.331  0.00  0.00    +0.000 A 
ATOM     17  C   UNL     1      48.219   6.554  13.335  0.00  0.00    +0.000 A 
ATOM     18  C   UNL     1      47.206   5.623  13.617  0.00  0.00    +0.000 A 
ATOM     19  C   UNL     1      47.138   5.113  14.925  0.00  0.00    +0.000 A 
BRANCH  18  20
ATOM     20  C   UNL     1      46.310   5.115  12.561  0.00  0.00    +0.000 A 
ATOM     21  C   UNL     1      46.086   5.854  11.391  0.00  0.00    +0.000 A 
ATOM     22  C   UNL     1      45.257   5.339  10.408  0.00  0.00    +0.000 A 
ATOM     23  N   UNL     1      44.641   4.144  10.498  0.00  0.00    +0.000 NA
ATOM     24  C   UNL     1      44.867   3.435  11.622  0.00  0.00    +0.000 A 
ATOM     25  C   UNL     1      45.677   3.869  12.662  0.00  0.00    +0.000 A 
ENDBRANCH  18  20
ENDBRANCH   1  14
TORSDOF 4
ENDMDL
MODEL 7
REMARK VINA RESULT:    -5.564      3.648      6.096
REMARK INTER + INTRA:          -7.904
REMARK INTER:                  -7.270
REMARK INTRA:                  -0.633
REMARK UNBOUND:                -1.039
REMARK  Name = 
REMARK  4 active torsions:
REMARK  status: ('A' for Active; 'I' for Inactive)
REMARK    1  A    between atoms: C_2  and  C_3
REMARK    2  A    between atoms: N_7  and  C_8
REMARK    3  A    between atoms: C_8  and  C_9
REMARK    4  A    between atoms: C_13  and  C_14
REMARK                            x       y       z     vdW  Elec       q    Type
REMARK                         _______ _______ _______ _____ _____    ______ ____
ROOT
ATOM      1  C   UNL     1      47.561   8.254  13.145  0.00  0.00    +0.000 C 
ATOM      2  C   UNL     1      47.778   9.602  12.442  0.00  0.00    +0.000 C 
ATOM      3  C   UNL     1      48.522   8.400  11.977  0.00  0.00    +0.000 C 
ENDROOT
BRANCH   1   8
ATOM      4  C   UNL     1      44.340   4.204  12.146  0.00  0.00    +0.000 A 
ATOM      5  C   UNL     1      45.618   4.429  11.636  0.00  0.00    +0.000 A 
ATOM      6  C   UNL     1      46.301   5.608  11.965  0.00  0.00    +0.000 A 
ATOM      7  C   UNL     1      45.679   6.542  12.781  0.00  0.00    +0.000 A 
ATOM      8  N   UNL     1      46.173   7.807  13.061  0.00  0.00    +0.000 N 
ATOM      9  N   UNL     1      44.444   6.321  13.292  0.00  0.00    +0.000 NA
ATOM     10  C   UNL     1      43.809   5.170  12.979  0.00  0.00    +0.000 A 
ATOM     11  H   UNL     1      45.510   8.238  13.699  0.00  0.00    +0.000 HD
BRANCH   4  13
ATOM     12  N   UNL     1      42.947   2.108  11.537  0.00  0.00    +0.000 NA
ATOM     13  C   UNL     1      43.579   3.045  11.809  0.00  0.00    +0.000 C 
ENDBRANCH   4  13
ENDBRANCH   1   8
BRANCH   1  14
ATOM     14  C   UNL     1      48.197   8.147  14.530  0.00  0.00    +0.000 A 
ATOM     15  C   UNL     1      48.165   9.223  15.430  0.00  0.00    +0.000 A 
ATOM     16  C   UNL     1      48.394   9.024  16.788  0.00  0.00    +0.000 A 
ATOM     17  C   UNL     1      48.709   7.750  17.261  0.00  0.00    +0.000 A 
ATOM     18  C   UNL     1      48.866   6.665  16.383  0.00  0.00    +0.000 A 
ATOM     19  C   UNL     1      48.640   6.900  15.016  0.00  0.00    +0.000 A 
BRANCH  18  20
ATOM     20  C   UNL     1      49.153   5.306  16.879  0.00  0.00    +0.000 A 
ATOM     21  C   UNL     1      50.467   4.908  17.166  0.00  0.00    +0.000 A 
ATOM     22  C   UNL     1      50.701   3.633  17.653  0.00  0.00    +0.000 A 
ATOM     23  N   UNL     1      49.730   2.728  17.881  0.00  0.00    +0.000 NA
ATOM     24  C   UNL     1      48.468   3.120  17.610  0.00  0.00    +0.000 A 
ATOM     25  C   UNL     1      48.136   4.373  17.116  0.00  0.00    +0.000 A 
ENDBRANCH  18  20
ENDBRANCH   1  14
TORSDOF 4
ENDMDL
MODEL 8
REMARK VINA RESULT:    -5.294      2.089      3.532
REMARK INTER + INTRA:          -7.571
REMARK INTER:                  -6.642
REMARK INTRA:                  -0.929
REMARK UNBOUND:                -1.039
REMARK  Name = 
REMARK  4 active torsions:
REMARK  status: ('A' for Active; 'I' for Inactive)
REMARK    1  A    between atoms: C_2  and  C_3
REMARK    2  A    between atoms: N_7  and  C_8
REMARK    3  A    between atoms: C_8  and  C_9
REMARK    4  A    between atoms: C_13  and  C_14
REMARK                            x       y       z     vdW  Elec       q    Type
REMARK                         _______ _______ _______ _____ _____    ______ ____
ROOT
ATOM      1  C   UNL     1      45.480   8.533  11.889  0.00  0.00    +0.000 C 
ATOM      2  C   UNL     1      44.792   9.758  12.507  0.00  0.00    +0.000 C 
ATOM      3  C   UNL     1      45.379   9.852  11.143  0.00  0.00    +0.000 C 
ENDROOT
BRANCH   1   8
ATOM      4  C   UNL     1      44.818   3.684   9.934  0.00  0.00    +0.000 A 
ATOM      5  C   UNL     1      45.636   4.701   9.444  0.00  0.00    +0.000 A 
ATOM      6  C   UNL     1      45.628   5.959  10.063  0.00  0.00    +0.000 A 
ATOM      7  C   UNL     1      44.787   6.172  11.146  0.00  0.00    +0.000 A 
ATOM      8  N   UNL     1      44.569   7.399  11.754  0.00  0.00    +0.000 N 
ATOM      9  N   UNL     1      44.004   5.182  11.637  0.00  0.00    +0.000 NA
ATOM     10  C   UNL     1      44.039   3.971  11.038  0.00  0.00    +0.000 A 
ATOM     11  H   UNL     1      43.929   7.228  12.524  0.00  0.00    +0.000 HD
BRANCH   4  13
ATOM     12  N   UNL     1      44.683   1.356   8.809  0.00  0.00    +0.000 NA
ATOM     13  C   UNL     1      44.750   2.399   9.318  0.00  0.00    +0.000 C 
ENDBRANCH   4  13
ENDBRANCH   1   8
BRANCH   1  14
ATOM     14  C   UNL     1      46.848   8.201  12.485  0.00  0.00    +0.000 A 
ATOM     15  C   UNL     1      46.977   7.292  13.545  0.00  0.00    +0.000 A 
ATOM     16  C   UNL     1      48.206   6.708  13.839  0.00  0.00    +0.000 A 
ATOM     17  C   UNL     1      49.338   7.064  13.105  0.00  0.00    +0.000 A 
ATOM     18  C   UNL     1      49.280   8.055  12.111  0.00  0.00    +0.000 A 
ATOM     19  C   UNL     1      48.028   8.635  11.847  0.00  0.00    +0.000 A 
BRANCH  18  20
ATOM     20  C   UNL     1      50.461   8.405  11.300  0.00  0.00    +0.000 A 
ATOM     21  C   UNL     1      50.868   9.739  11.161  0.00  0.00    +0.000 A 
ATOM     22  C   UNL     1      51.995  10.033  10.411  0.00  0.00    +0.000 A 
ATOM     23  N   UNL     1      52.751   9.101   9.798  0.00  0.00    +0.000 NA
ATOM     24  C   UNL     1      52.358   7.819   9.942  0.00  0.00    +0.000 A 
ATOM     25  C   UNL     1      51.242   7.429  10.669  0.00  0.00    +0.000 A 
ENDBRANCH  18  20
ENDBRANCH   1  14
TORSDOF 4
ENDMDL
