MODEL 1
REMARK VINA RESULT:    -8.749      0.000      0.000
REMARK INTER + INTRA:         -10.774
REMARK INTER:                 -10.283
REMARK INTRA:                  -0.491
REMARK UNBOUND:                -0.491
REMARK  Name = 
REMARK  3 active torsions:
REMARK  status: ('A' for Active; 'I' for Inactive)
REMARK    1  A    between atoms: C_2  and  C_4
REMARK    2  A    between atoms: N_8  and  C_9
REMARK    3  A    between atoms: C_9  and  C_10
REMARK                            x       y       z     vdW  Elec       q    Type
REMARK                         _______ _______ _______ _____ _____    ______ ____
ROOT
ATOM      1  C   UNL     1      46.597   2.721   7.497  0.00  0.00    +0.000 A 
ATOM      2  C   UNL     1      46.271   4.072   7.601  0.00  0.00    +0.000 A 
ATOM      3  C   UNL     1      45.407   4.494   8.620  0.00  0.00    +0.000 A 
ATOM      4  C   UNL     1      44.879   3.552   9.492  0.00  0.00    +0.000 A 
ATOM      5  N   UNL     1      43.882   3.839  10.426  0.00  0.00    +0.000 N 
ATOM      6  N   UNL     1      45.205   2.246   9.416  0.00  0.00    +0.000 NA
ATOM      7  C   UNL     1      46.047   1.856   8.426  0.00  0.00    +0.000 A 
ATOM      8  H   UNL     1      43.735   2.954  10.911  0.00  0.00    +0.000 HD
ENDROOT
BRANCH   1  10
ATOM      9  N   UNL     1      47.677   2.946   5.330  0.00  0.00    +0.000 N 
ATOM     10  C   UNL     1      47.438   2.163   6.421  0.00  0.00    +0.000 C 
ATOM     11  O   UNL     1      47.923   1.040   6.508  0.00  0.00    +0.000 OA
ATOM     12  H   UNL     1      48.328   2.576   4.645  0.00  0.00    +0.000 HD
ATOM     13  H   UNL     1      47.501   3.940   5.316  0.00  0.00    +0.000 HD
ENDBRANCH   1  10
BRANCH   5  14
ATOM     14  C   UNL     1      43.855   5.024  11.298  0.00  0.00    +0.000 C 
ATOM     15  C   UNL     1      42.595   5.097  12.149  0.00  0.00    +0.000 C 
ATOM     16  C   UNL     1      42.880   6.174  11.156  0.00  0.00    +0.000 C 
BRANCH  14  17
ATOM     17  C   UNL     1      45.219   5.313  11.922  0.00  0.00    +0.000 A 
ATOM     18  C   UNL     1      46.007   6.399  11.503  0.00  0.00    +0.000 A 
ATOM     19  C   UNL     1      47.145   6.790  12.216  0.00  0.00    +0.000 A 
ATOM     20  C   UNL     1      47.524   6.099  13.367  0.00  0.00    +0.000 A 
ATOM     21 CL   UNL     1      48.871   6.702  14.265  0.00  0.00    +0.000 Cl
ATOM     22  C   UNL     1      46.794   4.979  13.769  0.00  0.00    +0.000 A 
ATOM     23 CL   UNL     1      47.199   4.063  15.178  0.00  0.00    +0.000 Cl
ATOM     24  C   UNL     1      45.663   4.588  13.041  0.00  0.00    +0.000 A 
ENDBRANCH  14  17
ENDBRANCH   5  14
TORSDOF 3
ENDMDL
MODEL 2
REMARK VINA RESULT:    -7.692      4.216      6.566
REMARK INTER + INTRA:          -9.532
REMARK INTER:                  -9.151
REMARK INTRA:                  -0.380
REMARK UNBOUND:                -0.491
REMARK  Name = 
REMARK  3 active torsions:
REMARK  status: ('A' for Active; 'I' for Inactive)
REMARK    1  A    between atoms: C_2  and  C_4
REMARK    2  A    between atoms: N_8  and  C_9
REMARK    3  A    between atoms: C_9  and  C_10
REMARK                            x       y       z     vdW  Elec       q    Type
REMARK                         _______ _______ _______ _____ _____    ______ ____
ROOT
ATOM      1  C   UNL     1      47.931   6.344  13.941  0.00  0.00    +0.000 A 
ATOM      2  C   UNL     1      47.109   5.256  14.235  0.00  0.00    +0.000 A 
ATOM      3  C   UNL     1      46.177   4.824  13.283  0.00  0.00    +0.000 A 
ATOM      4  C   UNL     1      46.078   5.501  12.076  0.00  0.00    +0.000 A 
ATOM      5  N   UNL     1      45.074   5.262  11.137  0.00  0.00    +0.000 N 
ATOM      6  N   UNL     1      46.883   6.539  11.771  0.00  0.00    +0.000 NA
ATOM      7  C   UNL     1      47.784   6.942  12.702  0.00  0.00    +0.000 A 
ATOM      8  H   UNL     1      45.293   5.898  10.370  0.00  0.00    +0.000 HD
ENDROOT
BRANCH   1  10
ATOM      9  N   UNL     1      48.421   7.322  16.113  0.00  0.00    +0.000 N 
ATOM     10  C   UNL     1      48.893   6.923  14.897  0.00  0.00    +0.000 C 
ATOM     11  O   UNL     1      50.084   7.028  14.619  0.00  0.00    +0.000 OA
ATOM     12  H   UNL     1      49.114   7.635  16.785  0.00  0.00    +0.000 HD
ATOM     13  H   UNL     1      47.517   7.046  16.470  0.00  0.00    +0.000 HD
ENDBRANCH   1  10
BRANCH   5  14
ATOM     14  C   UNL     1      44.612   3.931  10.711  0.00  0.00    +0.000 C 
ATOM     15  C   UNL     1      43.127   3.717  10.961  0.00  0.00    +0.000 C 
ATOM     16  C   UNL     1      44.125   2.848  11.650  0.00  0.00    +0.000 C 
BRANCH  14  17
ATOM     17  C   UNL     1      45.236   3.502   9.384  0.00  0.00    +0.000 A 
ATOM     18  C   UNL     1      45.726   4.440   8.460  0.00  0.00    +0.000 A 
ATOM     19  C   UNL     1      46.488   4.045   7.355  0.00  0.00    +0.000 A 
ATOM     20  C   UNL     1      46.775   2.696   7.147  0.00  0.00    +0.000 A 
ATOM     21 CL   UNL     1      47.815   2.285   5.830  0.00  0.00    +0.000 Cl
ATOM     22  C   UNL     1      46.246   1.738   8.015  0.00  0.00    +0.000 A 
ATOM     23 CL   UNL     1      46.547   0.047   7.824  0.00  0.00    +0.000 Cl
ATOM     24  C   UNL     1      45.475   2.143   9.111  0.00  0.00    +0.000 A 
ENDBRANCH  14  17
ENDBRANCH   5  14
TORSDOF 3
ENDMDL
MODEL 3
REMARK VINA RESULT:    -7.109      4.281      6.493
REMARK INTER + INTRA:          -8.846
REMARK INTER:                  -9.061
REMARK INTRA:                   0.215
REMARK UNBOUND:                -0.491
REMARK  Name = 
REMARK  3 active torsions:
REMARK  status: ('A' for Active; 'I' for Inactive)
REMARK    1  A    between atoms: C_2  and  C_4
REMARK    2  A    between atoms: N_8  and  C_9
REMARK    3  A    between atoms: C_9  and  C_10
REMARK                            x       y       z     vdW  Elec       q    Type
REMARK                         _______ _______ _______ _____ _____    ______ ____
ROOT
ATOM      1  C   UNL     1      47.836   6.055  14.394  0.00  0.00    +0.000 A 
ATOM      2  C   UNL     1      47.481   6.281  13.064  0.00  0.00    +0.000 A 
ATOM      3  C   UNL     1      46.672   5.348  12.402  0.00  0.00    +0.000 A 
ATOM      4  C   UNL     1      46.259   4.209  13.079  0.00  0.00    +0.000 A 
ATOM      5  N   UNL     1      45.602   3.143  12.465  0.00  0.00    +0.000 N 
ATOM      6  N   UNL     1      46.578   3.991  14.371  0.00  0.00    +0.000 NA
ATOM      7  C   UNL     1      47.357   4.907  14.999  0.00  0.00    +0.000 A 
ATOM      8  H   UNL     1      45.424   2.488  13.227  0.00  0.00    +0.000 HD
ENDROOT
BRANCH   1  10
ATOM      9  N   UNL     1      48.187   7.990  15.824  0.00  0.00    +0.000 N 
ATOM     10  C   UNL     1      48.739   6.935  15.159  0.00  0.00    +0.000 C 
ATOM     11  O   UNL     1      49.946   6.718  15.214  0.00  0.00    +0.000 OA
ATOM     12  H   UNL     1      48.813   8.529  16.413  0.00  0.00    +0.000 HD
ATOM     13  H   UNL     1      47.196   8.073  16.001  0.00  0.00    +0.000 HD
ENDBRANCH   1  10
BRANCH   5  14
ATOM     14  C   UNL     1      44.496   3.271  11.503  0.00  0.00    +0.000 C 
ATOM     15  C   UNL     1      43.477   4.322  11.916  0.00  0.00    +0.000 C 
ATOM     16  C   UNL     1      43.057   2.896  11.791  0.00  0.00    +0.000 C 
BRANCH  14  17
ATOM     17  C   UNL     1      44.978   3.198  10.055  0.00  0.00    +0.000 A 
ATOM     18  C   UNL     1      45.192   4.356   9.288  0.00  0.00    +0.000 A 
ATOM     19  C   UNL     1      45.837   4.299   8.048  0.00  0.00    +0.000 A 
ATOM     20  C   UNL     1      46.281   3.077   7.543  0.00  0.00    +0.000 A 
ATOM     21 CL   UNL     1      47.171   3.090   6.062  0.00  0.00    +0.000 Cl
ATOM     22  C   UNL     1      46.025   1.904   8.256  0.00  0.00    +0.000 A 
ATOM     23 CL   UNL     1      46.536   0.350   7.699  0.00  0.00    +0.000 Cl
ATOM     24  C   UNL     1      45.369   1.970   9.491  0.00  0.00    +0.000 A 
ENDBRANCH  14  17
ENDBRANCH   5  14
TORSDOF 3
ENDMDL
MODEL 4
REMARK VINA RESULT:    -5.939      3.330      5.193
REMARK INTER + INTRA:          -7.471
REMARK INTER:                  -7.215
REMARK INTRA:                  -0.256
REMARK UNBOUND:                -0.491
REMARK  Name = 
REMARK  3 active torsions:
REMARK  status: ('A' for Active; 'I' for Inactive)
REMARK    1  A    between atoms: C_2  and  C_4
REMARK    2  A    between atoms: N_8  and  C_9
REMARK    3  A    between atoms: C_9  and  C_10
REMARK                            x       y       z     vdW  Elec       q    Type
REMARK                         _______ _______ _______ _____ _____    ______ ____
ROOT
ATOM      1  C   UNL     1      44.904   4.945  11.086  0.00  0.00    +0.000 A 
ATOM      2  C   UNL     1      45.880   5.809  10.588  0.00  0.00    +0.000 A 
ATOM      3  C   UNL     1      46.586   6.630  11.475  0.00  0.00    +0.000 A 
ATOM      4  C   UNL     1      46.285   6.581  12.829  0.00  0.00    +0.000 A 
ATOM      5  N   UNL     1      46.804   7.474  13.768  0.00  0.00    +0.000 N 
ATOM      6  N   UNL     1      45.360   5.735  13.325  0.00  0.00    +0.000 NA
ATOM      7  C   UNL     1      44.689   4.942  12.452  0.00  0.00    +0.000 A 
ATOM      8  H   UNL     1      46.409   7.160  14.655  0.00  0.00    +0.000 HD
ENDROOT
BRANCH   1  10
ATOM      9  N   UNL     1      44.028   4.357   8.895  0.00  0.00    +0.000 N 
ATOM     10  C   UNL     1      44.055   4.093  10.233  0.00  0.00    +0.000 C 
ATOM     11  O   UNL     1      43.407   3.163  10.704  0.00  0.00    +0.000 OA
ATOM     12  H   UNL     1      43.507   3.705   8.317  0.00  0.00    +0.000 HD
ATOM     13  H   UNL     1      44.709   4.945   8.435  0.00  0.00    +0.000 HD
ENDBRANCH   1  10
BRANCH   5  14
ATOM     14  C   UNL     1      48.211   7.899  13.845  0.00  0.00    +0.000 C 
ATOM     15  C   UNL     1      48.370   9.411  13.793  0.00  0.00    +0.000 C 
ATOM     16  C   UNL     1      48.970   8.568  12.719  0.00  0.00    +0.000 C 
BRANCH  14  17
ATOM     17  C   UNL     1      49.007   7.078  14.858  0.00  0.00    +0.000 A 
ATOM     18  C   UNL     1      50.378   7.298  15.072  0.00  0.00    +0.000 A 
ATOM     19  C   UNL     1      51.052   6.703  16.144  0.00  0.00    +0.000 A 
ATOM     20  C   UNL     1      50.367   5.867  17.027  0.00  0.00    +0.000 A 
ATOM     21 CL   UNL     1      51.229   5.256  18.394  0.00  0.00    +0.000 Cl
ATOM     22  C   UNL     1      49.019   5.582  16.799  0.00  0.00    +0.000 A 
ATOM     23 CL   UNL     1      48.099   4.553  17.839  0.00  0.00    +0.000 Cl
ATOM     24  C   UNL     1      48.357   6.174  15.716  0.00  0.00    +0.000 A 
ENDBRANCH  14  17
ENDBRANCH   5  14
TORSDOF 3
ENDMDL
