MODEL 1
REMARK VINA RESULT:    -8.795      0.000      0.000
REMARK INTER + INTRA:         -11.720
REMARK INTER:                 -11.365
REMARK INTRA:                  -0.355
REMARK UNBOUND:                -0.355
REMARK  Name = 
REMARK  5 active torsions:
REMARK  status: ('A' for Active; 'I' for Inactive)
REMARK    1  A    between atoms: C_2  and  C_18
REMARK    2  A    between atoms: N_3  and  C_4
REMARK    3  A    between atoms: C_4  and  C_5
REMARK    4  A    between atoms: C_8  and  C_9
REMARK    5  A    between atoms: C_9  and  C_10
REMARK                            x       y       z     vdW  Elec       q    Type
REMARK                         _______ _______ _______ _____ _____    ______ ____
ROOT
ATOM      1  O   UNL     1      46.593   3.240  13.690  0.00  0.00    +0.000 OA
ATOM      2  C   UNL     1      46.372   4.391  14.056  0.00  0.00    +0.000 C 
ATOM      3  N   UNL     1      45.136   4.973  13.933  0.00  0.00    +0.000 N 
ATOM      4  H   UNL     1      45.052   5.983  13.990  0.00  0.00    +0.000 HD
ENDROOT
BRANCH   2   5
ATOM      5  C   UNL     1      47.409   5.207  14.691  0.00  0.00    +0.000 A 
ATOM      6  C   UNL     1      48.087   6.175  13.966  0.00  0.00    +0.000 A 
ATOM      7  S   UNL     1      49.236   7.032  14.895  0.00  0.00    +0.000 S 
ATOM      8  C   UNL     1      48.843   6.153  16.296  0.00  0.00    +0.000 A 
ATOM      9  N   UNL     1      49.446   6.413  17.489  0.00  0.00    +0.000 NA
ATOM     10  C   UNL     1      49.023   5.688  18.471  0.00  0.00    +0.000 A 
ATOM     11  N   UNL     1      48.063   4.716  18.366  0.00  0.00    +0.000 N 
ATOM     12  C   UNL     1      47.476   4.373  17.179  0.00  0.00    +0.000 A 
ATOM     13  O   UNL     1      46.717   3.419  17.099  0.00  0.00    +0.000 OA
ATOM     14  C   UNL     1      47.877   5.195  16.052  0.00  0.00    +0.000 A 
ATOM     15  H   UNL     1      47.798   4.154  19.165  0.00  0.00    +0.000 HD
ENDBRANCH   2   5
BRANCH   3  16
ATOM     16  C   UNL     1      44.038   4.298  13.285  0.00  0.00    +0.000 C 
BRANCH  16  17
ATOM     17  C   UNL     1      44.249   4.162  11.801  0.00  0.00    +0.000 A 
ATOM     18  C   UNL     1      43.743   3.061  11.119  0.00  0.00    +0.000 A 
ATOM     19  N   UNL     1      43.877   2.897   9.782  0.00  0.00    +0.000 NA
ATOM     20  C   UNL     1      44.568   3.867   9.129  0.00  0.00    +0.000 A 
ATOM     21  C   UNL     1      45.110   4.949   9.819  0.00  0.00    +0.000 A 
ATOM     22  N   UNL     1      44.956   5.126  11.153  0.00  0.00    +0.000 NA
BRANCH  20  23
ATOM     23  C   UNL     1      44.737   3.731   7.637  0.00  0.00    +0.000 C 
BRANCH  23  24
ATOM     24  C   UNL     1      45.918   2.881   7.229  0.00  0.00    +0.000 A 
ATOM     25  C   UNL     1      46.216   1.698   7.913  0.00  0.00    +0.000 A 
ATOM     26  C   UNL     1      47.330   0.968   7.534  0.00  0.00    +0.000 A 
ATOM     27  N   UNL     1      48.147   1.319   6.518  0.00  0.00    +0.000 NA
ATOM     28  C   UNL     1      47.830   2.449   5.851  0.00  0.00    +0.000 A 
ATOM     29  C   UNL     1      46.741   3.250   6.162  0.00  0.00    +0.000 A 
ENDBRANCH  23  24
ENDBRANCH  20  23
ENDBRANCH  16  17
ENDBRANCH   3  16
TORSDOF 5
ENDMDL
MODEL 2
REMARK VINA RESULT:    -8.631      1.868      2.975
REMARK INTER + INTRA:         -11.509
REMARK INTER:                 -10.958
REMARK INTRA:                  -0.551
REMARK UNBOUND:                -0.355
REMARK  Name = 
REMARK  5 active torsions:
REMARK  status: ('A' for Active; 'I' for Inactive)
REMARK    1  A    between atoms: C_2  and  C_18
REMARK    2  A    between atoms: N_3  and  C_4
REMARK    3  A    between atoms: C_4  and  C_5
REMARK    4  A    between atoms: C_8  and  C_9
REMARK    5  A    between atoms: C_9  and  C_10
REMARK                            x       y       z     vdW  Elec       q    Type
REMARK                         _______ _______ _______ _____ _____    ______ ____
ROOT
ATOM      1  O   UNL     1      46.879   3.781  14.189  0.00  0.00    +0.000 OA
ATOM      2  C   UNL     1      46.812   5.005  14.110  0.00  0.00    +0.000 C 
ATOM      3  N   UNL     1      45.675   5.649  13.696  0.00  0.00    +0.000 N 
ATOM      4  H   UNL     1      45.732   6.615  13.388  0.00  0.00    +0.000 HD
ENDROOT
BRANCH   2   5
ATOM      5  C   UNL     1      47.935   5.861  14.496  0.00  0.00    +0.000 A 
ATOM      6  C   UNL     1      48.458   5.803  15.779  0.00  0.00    +0.000 A 
ATOM      7  S   UNL     1      49.778   6.859  16.018  0.00  0.00    +0.000 S 
ATOM      8  C   UNL     1      49.706   7.407  14.411  0.00  0.00    +0.000 A 
ATOM      9  N   UNL     1      50.596   8.317  13.930  0.00  0.00    +0.000 NA
ATOM     10  C   UNL     1      50.439   8.613  12.683  0.00  0.00    +0.000 A 
ATOM     11  N   UNL     1      49.461   8.093  11.875  0.00  0.00    +0.000 N 
ATOM     12  C   UNL     1      48.502   7.227  12.327  0.00  0.00    +0.000 A 
ATOM     13  O   UNL     1      47.573   6.882  11.615  0.00  0.00    +0.000 OA
ATOM     14  C   UNL     1      48.668   6.820  13.711  0.00  0.00    +0.000 A 
ATOM     15  H   UNL     1      49.363   8.392  10.913  0.00  0.00    +0.000 HD
ENDBRANCH   2   5
BRANCH   3  16
ATOM     16  C   UNL     1      44.511   4.926  13.244  0.00  0.00    +0.000 C 
BRANCH  16  17
ATOM     17  C   UNL     1      44.581   4.593  11.778  0.00  0.00    +0.000 A 
ATOM     18  C   UNL     1      43.865   3.516  11.269  0.00  0.00    +0.000 A 
ATOM     19  N   UNL     1      43.867   3.184   9.956  0.00  0.00    +0.000 NA
ATOM     20  C   UNL     1      44.641   3.955   9.148  0.00  0.00    +0.000 A 
ATOM     21  C   UNL     1      45.389   5.009   9.665  0.00  0.00    +0.000 A 
ATOM     22  N   UNL     1      45.370   5.356  10.975  0.00  0.00    +0.000 NA
BRANCH  20  23
ATOM     23  C   UNL     1      44.669   3.627   7.677  0.00  0.00    +0.000 C 
BRANCH  23  24
ATOM     24  C   UNL     1      45.888   2.848   7.245  0.00  0.00    +0.000 A 
ATOM     25  C   UNL     1      46.639   3.253   6.136  0.00  0.00    +0.000 A 
ATOM     26  C   UNL     1      47.728   2.489   5.749  0.00  0.00    +0.000 A 
ATOM     27  N   UNL     1      48.129   1.374   6.396  0.00  0.00    +0.000 NA
ATOM     28  C   UNL     1      47.411   1.012   7.480  0.00  0.00    +0.000 A 
ATOM     29  C   UNL     1      46.301   1.707   7.940  0.00  0.00    +0.000 A 
ENDBRANCH  23  24
ENDBRANCH  20  23
ENDBRANCH  16  17
ENDBRANCH   3  16
TORSDOF 5
ENDMDL
MODEL 3
REMARK VINA RESULT:    -8.511      1.586      2.096
REMARK INTER + INTRA:         -11.353
REMARK INTER:                 -10.856
REMARK INTRA:                  -0.497
REMARK UNBOUND:                -0.355
REMARK  Name = 
REMARK  5 active torsions:
REMARK  status: ('A' for Active; 'I' for Inactive)
REMARK    1  A    between atoms: C_2  and  C_18
REMARK    2  A    between atoms: N_3  and  C_4
REMARK    3  A    between atoms: C_4  and  C_5
REMARK    4  A    between atoms: C_8  and  C_9
REMARK    5  A    between atoms: C_9  and  C_10
REMARK                            x       y       z     vdW  Elec       q    Type
REMARK                         _______ _______ _______ _____ _____    ______ ____
ROOT
ATOM      1  O   UNL     1      48.380   6.929  12.619  0.00  0.00    +0.000 OA
ATOM      2  C   UNL     1      47.705   6.708  13.620  0.00  0.00    +0.000 C 
ATOM      3  N   UNL     1      46.335   6.749  13.600  0.00  0.00    +0.000 N 
ATOM      4  H   UNL     1      45.825   6.827  14.475  0.00  0.00    +0.000 HD
ENDROOT
BRANCH   2   5
ATOM      5  C   UNL     1      48.322   6.340  14.896  0.00  0.00    +0.000 A 
ATOM      6  C   UNL     1      49.296   7.145  15.467  0.00  0.00    +0.000 A 
ATOM      7  S   UNL     1      49.867   6.555  16.964  0.00  0.00    +0.000 S 
ATOM      8  C   UNL     1      48.814   5.222  16.906  0.00  0.00    +0.000 A 
ATOM      9  N   UNL     1      48.764   4.313  17.917  0.00  0.00    +0.000 NA
ATOM     10  C   UNL     1      47.894   3.373  17.749  0.00  0.00    +0.000 A 
ATOM     11  N   UNL     1      47.080   3.251  16.653  0.00  0.00    +0.000 N 
ATOM     12  C   UNL     1      47.139   4.099  15.582  0.00  0.00    +0.000 A 
ATOM     13  O   UNL     1      46.489   3.889  14.570  0.00  0.00    +0.000 OA
ATOM     14  C   UNL     1      48.064   5.206  15.745  0.00  0.00    +0.000 A 
ATOM     15  H   UNL     1      46.442   2.470  16.561  0.00  0.00    +0.000 HD
ENDBRANCH   2   5
BRANCH   3  16
ATOM     16  C   UNL     1      45.601   7.141  12.422  0.00  0.00    +0.000 C 
BRANCH  16  17
ATOM     17  C   UNL     1      45.287   5.970  11.530  0.00  0.00    +0.000 A 
ATOM     18  C   UNL     1      45.809   5.909  10.243  0.00  0.00    +0.000 A 
ATOM     19  N   UNL     1      45.584   4.869   9.405  0.00  0.00    +0.000 NA
ATOM     20  C   UNL     1      44.785   3.880   9.884  0.00  0.00    +0.000 A 
ATOM     21  C   UNL     1      44.230   3.961  11.159  0.00  0.00    +0.000 A 
ATOM     22  N   UNL     1      44.473   4.990  12.006  0.00  0.00    +0.000 NA
BRANCH  20  23
ATOM     23  C   UNL     1      44.512   2.698   8.989  0.00  0.00    +0.000 C 
BRANCH  23  24
ATOM     24  C   UNL     1      45.642   2.374   8.041  0.00  0.00    +0.000 A 
ATOM     25  C   UNL     1      46.368   1.185   8.175  0.00  0.00    +0.000 A 
ATOM     26  C   UNL     1      47.422   0.943   7.310  0.00  0.00    +0.000 A 
ATOM     27  N   UNL     1      47.787   1.783   6.318  0.00  0.00    +0.000 NA
ATOM     28  C   UNL     1      47.059   2.912   6.185  0.00  0.00    +0.000 A 
ATOM     29  C   UNL     1      45.992   3.246   7.006  0.00  0.00    +0.000 A 
ENDBRANCH  23  24
ENDBRANCH  20  23
ENDBRANCH  16  17
ENDBRANCH   3  16
TORSDOF 5
ENDMDL
MODEL 4
REMARK VINA RESULT:    -8.355      1.923      2.524
REMARK INTER + INTRA:         -11.152
REMARK INTER:                 -10.572
REMARK INTRA:                  -0.581
REMARK UNBOUND:                -0.355
REMARK  Name = 
REMARK  5 active torsions:
REMARK  status: ('A' for Active; 'I' for Inactive)
REMARK    1  A    between atoms: C_2  and  C_18
REMARK    2  A    between atoms: N_3  and  C_4
REMARK    3  A    between atoms: C_4  and  C_5
REMARK    4  A    between atoms: C_8  and  C_9
REMARK    5  A    between atoms: C_9  and  C_10
REMARK                            x       y       z     vdW  Elec       q    Type
REMARK                         _______ _______ _______ _____ _____    ______ ____
ROOT
ATOM      1  O   UNL     1      48.841   6.263  14.296  0.00  0.00    +0.000 OA
ATOM      2  C   UNL     1      47.835   5.751  14.780  0.00  0.00    +0.000 C 
ATOM      3  N   UNL     1      46.604   5.853  14.183  0.00  0.00    +0.000 N 
ATOM      4  H   UNL     1      45.768   5.660  14.727  0.00  0.00    +0.000 HD
ENDROOT
BRANCH   2   5
ATOM      5  C   UNL     1      47.892   4.958  16.009  0.00  0.00    +0.000 A 
ATOM      6  C   UNL     1      47.550   3.614  15.998  0.00  0.00    +0.000 A 
ATOM      7  S   UNL     1      47.709   2.864  17.524  0.00  0.00    +0.000 S 
ATOM      8  C   UNL     1      48.263   4.304  18.237  0.00  0.00    +0.000 A 
ATOM      9  N   UNL     1      48.623   4.353  19.550  0.00  0.00    +0.000 NA
ATOM     10  C   UNL     1      49.055   5.505  19.943  0.00  0.00    +0.000 A 
ATOM     11  N   UNL     1      49.146   6.617  19.147  0.00  0.00    +0.000 N 
ATOM     12  C   UNL     1      48.736   6.636  17.842  0.00  0.00    +0.000 A 
ATOM     13  O   UNL     1      48.714   7.674  17.199  0.00  0.00    +0.000 OA
ATOM     14  C   UNL     1      48.292   5.351  17.335  0.00  0.00    +0.000 A 
ATOM     15  H   UNL     1      49.458   7.504  19.522  0.00  0.00    +0.000 HD
ENDBRANCH   2   5
BRANCH   3  16
ATOM     16  C   UNL     1      46.398   6.643  12.994  0.00  0.00    +0.000 C 
BRANCH  16  17
ATOM     17  C   UNL     1      45.956   5.804  11.824  0.00  0.00    +0.000 A 
ATOM     18  C   UNL     1      45.371   4.561  12.034  0.00  0.00    +0.000 A 
ATOM     19  N   UNL     1      44.929   3.774  11.025  0.00  0.00    +0.000 NA
ATOM     20  C   UNL     1      45.114   4.258   9.769  0.00  0.00    +0.000 A 
ATOM     21  C   UNL     1      45.735   5.486   9.557  0.00  0.00    +0.000 A 
ATOM     22  N   UNL     1      46.157   6.284  10.568  0.00  0.00    +0.000 NA
BRANCH  20  23
ATOM     23  C   UNL     1      44.631   3.419   8.612  0.00  0.00    +0.000 C 
BRANCH  23  24
ATOM     24  C   UNL     1      45.734   2.694   7.878  0.00  0.00    +0.000 A 
ATOM     25  C   UNL     1      46.402   3.304   6.811  0.00  0.00    +0.000 A 
ATOM     26  C   UNL     1      47.381   2.591   6.138  0.00  0.00    +0.000 A 
ATOM     27  N   UNL     1      47.752   1.335   6.465  0.00  0.00    +0.000 NA
ATOM     28  C   UNL     1      47.117   0.772   7.514  0.00  0.00    +0.000 A 
ATOM     29  C   UNL     1      46.119   1.401   8.244  0.00  0.00    +0.000 A 
ENDBRANCH  23  24
ENDBRANCH  20  23
ENDBRANCH  16  17
ENDBRANCH   3  16
TORSDOF 5
ENDMDL
MODEL 5
REMARK VINA RESULT:    -8.062      1.958      2.306
REMARK INTER + INTRA:         -10.773
REMARK INTER:                 -10.027
REMARK INTRA:                  -0.746
REMARK UNBOUND:                -0.355
REMARK  Name = 
REMARK  5 active torsions:
REMARK  status: ('A' for Active; 'I' for Inactive)
REMARK    1  A    between atoms: C_2  and  C_18
REMARK    2  A    between atoms: N_3  and  C_4
REMARK    3  A    between atoms: C_4  and  C_5
REMARK    4  A    between atoms: C_8  and  C_9
REMARK    5  A    between atoms: C_9  and  C_10
REMARK                            x       y       z     vdW  Elec       q    Type
REMARK                         _______ _______ _______ _____ _____    ______ ____
ROOT
ATOM      1  O   UNL     1      46.116   8.452  13.331  0.00  0.00    +0.000 OA
ATOM      2  C   UNL     1      46.973   7.595  13.532  0.00  0.00    +0.000 C 
ATOM      3  N   UNL     1      46.695   6.254  13.460  0.00  0.00    +0.000 N 
ATOM      4  H   UNL     1      47.334   5.589  13.884  0.00  0.00    +0.000 HD
ENDROOT
BRANCH   2   5
ATOM      5  C   UNL     1      48.363   7.952  13.819  0.00  0.00    +0.000 A 
ATOM      6  C   UNL     1      48.994   8.961  13.108  0.00  0.00    +0.000 A 
ATOM      7  S   UNL     1      50.601   9.240  13.613  0.00  0.00    +0.000 S 
ATOM      8  C   UNL     1      50.493   8.039  14.812  0.00  0.00    +0.000 A 
ATOM      9  N   UNL     1      51.533   7.778  15.650  0.00  0.00    +0.000 NA
ATOM     10  C   UNL     1      51.295   6.863  16.530  0.00  0.00    +0.000 A 
ATOM     11  N   UNL     1      50.115   6.173  16.637  0.00  0.00    +0.000 N 
ATOM     12  C   UNL     1      49.066   6.351  15.778  0.00  0.00    +0.000 A 
ATOM     13  O   UNL     1      48.079   5.634  15.824  0.00  0.00    +0.000 OA
ATOM     14  C   UNL     1      49.263   7.409  14.803  0.00  0.00    +0.000 A 
ATOM     15  H   UNL     1      50.000   5.439  17.324  0.00  0.00    +0.000 HD
ENDBRANCH   2   5
BRANCH   3  16
ATOM     16  C   UNL     1      45.357   5.765  13.229  0.00  0.00    +0.000 C 
BRANCH  16  17
ATOM     17  C   UNL     1      45.188   5.203  11.843  0.00  0.00    +0.000 A 
ATOM     18  C   UNL     1      44.372   4.098  11.629  0.00  0.00    +0.000 A 
ATOM     19  N   UNL     1      44.160   3.564  10.402  0.00  0.00    +0.000 NA
ATOM     20  C   UNL     1      44.818   4.158   9.373  0.00  0.00    +0.000 A 
ATOM     21  C   UNL     1      45.667   5.240   9.594  0.00  0.00    +0.000 A 
ATOM     22  N   UNL     1      45.862   5.788  10.817  0.00  0.00    +0.000 NA
BRANCH  20  23
ATOM     23  C   UNL     1      44.607   3.603   7.987  0.00  0.00    +0.000 C 
BRANCH  23  24
ATOM     24  C   UNL     1      45.775   2.800   7.464  0.00  0.00    +0.000 A 
ATOM     25  C   UNL     1      46.114   1.573   8.044  0.00  0.00    +0.000 A 
ATOM     26  C   UNL     1      47.216   0.887   7.561  0.00  0.00    +0.000 A 
ATOM     27  N   UNL     1      47.982   1.322   6.538  0.00  0.00    +0.000 NA
ATOM     28  C   UNL     1      47.624   2.493   5.971  0.00  0.00    +0.000 A 
ATOM     29  C   UNL     1      46.543   3.257   6.390  0.00  0.00    +0.000 A 
ENDBRANCH  23  24
ENDBRANCH  20  23
ENDBRANCH  16  17
ENDBRANCH   3  16
TORSDOF 5
ENDMDL
MODEL 6
REMARK VINA RESULT:    -7.699      3.044      4.161
REMARK INTER + INTRA:         -10.304
REMARK INTER:                  -9.454
REMARK INTRA:                  -0.850
REMARK UNBOUND:                -0.355
REMARK  Name = 
REMARK  5 active torsions:
REMARK  status: ('A' for Active; 'I' for Inactive)
REMARK    1  A    between atoms: C_2  and  C_18
REMARK    2  A    between atoms: N_3  and  C_4
REMARK    3  A    between atoms: C_4  and  C_5
REMARK    4  A    between atoms: C_8  and  C_9
REMARK    5  A    between atoms: C_9  and  C_10
REMARK                            x       y       z     vdW  Elec       q    Type
REMARK                         _______ _______ _______ _____ _____    ______ ____
ROOT
ATOM      1  O   UNL     1      46.731   8.413  13.986  0.00  0.00    +0.000 OA
ATOM      2  C   UNL     1      47.646   7.600  13.894  0.00  0.00    +0.000 C 
ATOM      3  N   UNL     1      47.418   6.264  13.686  0.00  0.00    +0.000 N 
ATOM      4  H   UNL     1      48.157   5.595  13.879  0.00  0.00    +0.000 HD
ENDROOT
BRANCH   2   5
ATOM      5  C   UNL     1      49.049   8.013  13.956  0.00  0.00    +0.000 A 
ATOM      6  C   UNL     1      49.611   8.422  15.156  0.00  0.00    +0.000 A 
ATOM      7  S   UNL     1      51.262   8.837  15.021  0.00  0.00    +0.000 S 
ATOM      8  C   UNL     1      51.281   8.459  13.364  0.00  0.00    +0.000 A 
ATOM      9  N   UNL     1      52.420   8.560  12.626  0.00  0.00    +0.000 NA
ATOM     10  C   UNL     1      52.290   8.208  11.391  0.00  0.00    +0.000 A 
ATOM     11  N   UNL     1      51.120   7.779  10.821  0.00  0.00    +0.000 N 
ATOM     12  C   UNL     1      49.935   7.724  11.502  0.00  0.00    +0.000 A 
ATOM     13  O   UNL     1      48.888   7.458  10.933  0.00  0.00    +0.000 OA
ATOM     14  C   UNL     1      50.038   8.057  12.912  0.00  0.00    +0.000 A 
ATOM     15  H   UNL     1      51.071   7.552   9.836  0.00  0.00    +0.000 HD
ENDBRANCH   2   5
BRANCH   3  16
ATOM     16  C   UNL     1      46.084   5.715  13.649  0.00  0.00    +0.000 C 
BRANCH  16  17
ATOM     17  C   UNL     1      45.725   5.181  12.288  0.00  0.00    +0.000 A 
ATOM     18  C   UNL     1      45.940   5.953  11.153  0.00  0.00    +0.000 A 
ATOM     19  N   UNL     1      45.663   5.517   9.901  0.00  0.00    +0.000 NA
ATOM     20  C   UNL     1      45.129   4.271   9.810  0.00  0.00    +0.000 A 
ATOM     21  C   UNL     1      44.878   3.513  10.951  0.00  0.00    +0.000 A 
ATOM     22  N   UNL     1      45.175   3.940  12.202  0.00  0.00    +0.000 NA
BRANCH  20  23
ATOM     23  C   UNL     1      44.811   3.739   8.435  0.00  0.00    +0.000 C 
BRANCH  23  24
ATOM     24  C   UNL     1      45.904   2.883   7.841  0.00  0.00    +0.000 A 
ATOM     25  C   UNL     1      46.825   3.427   6.939  0.00  0.00    +0.000 A 
ATOM     26  C   UNL     1      47.789   2.599   6.386  0.00  0.00    +0.000 A 
ATOM     27  N   UNL     1      47.911   1.287   6.682  0.00  0.00    +0.000 NA
ATOM     28  C   UNL     1      47.031   0.786   7.575  0.00  0.00    +0.000 A 
ATOM     29  C   UNL     1      46.028   1.532   8.176  0.00  0.00    +0.000 A 
ENDBRANCH  23  24
ENDBRANCH  20  23
ENDBRANCH  16  17
ENDBRANCH   3  16
TORSDOF 5
ENDMDL
MODEL 7
REMARK VINA RESULT:    -7.652      2.141      3.268
REMARK INTER + INTRA:         -10.244
REMARK INTER:                  -9.453
REMARK INTRA:                  -0.791
REMARK UNBOUND:                -0.355
REMARK  Name = 
REMARK  5 active torsions:
REMARK  status: ('A' for Active; 'I' for Inactive)
REMARK    1  A    between atoms: C_2  and  C_18
REMARK    2  A    between atoms: N_3  and  C_4
REMARK    3  A    between atoms: C_4  and  C_5
REMARK    4  A    between atoms: C_8  and  C_9
REMARK    5  A    between atoms: C_9  and  C_10
REMARK                            x       y       z     vdW  Elec       q    Type
REMARK                         _______ _______ _______ _____ _____    ______ ____
ROOT
ATOM      1  O   UNL     1      49.804   7.434  14.065  0.00  0.00    +0.000 OA
ATOM      2  C   UNL     1      48.955   7.280  14.939  0.00  0.00    +0.000 C 
ATOM      3  N   UNL     1      47.641   7.625  14.751  0.00  0.00    +0.000 N 
ATOM      4  H   UNL     1      47.034   7.737  15.557  0.00  0.00    +0.000 HD
ENDROOT
BRANCH   2   5
ATOM      5  C   UNL     1      49.284   6.672  16.230  0.00  0.00    +0.000 A 
ATOM      6  C   UNL     1      50.124   7.322  17.121  0.00  0.00    +0.000 A 
ATOM      7  S   UNL     1      50.360   6.460  18.576  0.00  0.00    +0.000 S 
ATOM      8  C   UNL     1      49.328   5.208  18.069  0.00  0.00    +0.000 A 
ATOM      9  N   UNL     1      49.055   4.144  18.873  0.00  0.00    +0.000 NA
ATOM     10  C   UNL     1      48.229   3.289  18.368  0.00  0.00    +0.000 A 
ATOM     11  N   UNL     1      47.664   3.393  17.123  0.00  0.00    +0.000 N 
ATOM     12  C   UNL     1      47.958   4.407  16.253  0.00  0.00    +0.000 A 
ATOM     13  O   UNL     1      47.534   4.403  15.108  0.00  0.00    +0.000 OA
ATOM     14  C   UNL     1      48.840   5.425  16.794  0.00  0.00    +0.000 A 
ATOM     15  H   UNL     1      47.051   2.671  16.765  0.00  0.00    +0.000 HD
ENDBRANCH   2   5
BRANCH   3  16
ATOM     16  C   UNL     1      47.190   8.274  13.544  0.00  0.00    +0.000 C 
BRANCH  16  17
ATOM     17  C   UNL     1      46.361   7.360  12.682  0.00  0.00    +0.000 A 
ATOM     18  C   UNL     1      46.739   6.035  12.501  0.00  0.00    +0.000 A 
ATOM     19  N   UNL     1      46.020   5.158  11.760  0.00  0.00    +0.000 NA
ATOM     20  C   UNL     1      44.903   5.655  11.168  0.00  0.00    +0.000 A 
ATOM     21  C   UNL     1      44.547   6.993  11.317  0.00  0.00    +0.000 A 
ATOM     22  N   UNL     1      45.253   7.865  12.077  0.00  0.00    +0.000 NA
BRANCH  20  23
ATOM     23  C   UNL     1      44.067   4.714  10.338  0.00  0.00    +0.000 C 
BRANCH  23  24
ATOM     24  C   UNL     1      44.869   3.854   9.390  0.00  0.00    +0.000 A 
ATOM     25  C   UNL     1      45.614   4.435   8.358  0.00  0.00    +0.000 A 
ATOM     26  C   UNL     1      46.305   3.610   7.485  0.00  0.00    +0.000 A 
ATOM     27  N   UNL     1      46.323   2.263   7.581  0.00  0.00    +0.000 NA
ATOM     28  C   UNL     1      45.622   1.721   8.599  0.00  0.00    +0.000 A 
ATOM     29  C   UNL     1      44.893   2.463   9.518  0.00  0.00    +0.000 A 
ENDBRANCH  23  24
ENDBRANCH  20  23
ENDBRANCH  16  17
ENDBRANCH   3  16
TORSDOF 5
ENDMDL
MODEL 8
REMARK VINA RESULT:    -7.238      3.199      8.465
REMARK INTER + INTRA:          -9.709
REMARK INTER:                  -8.941
REMARK INTRA:                  -0.768
REMARK UNBOUND:                -0.355
REMARK  Name = 
REMARK  5 active torsions:
REMARK  status: ('A' for Active; 'I' for Inactive)
REMARK    1  A    between atoms: C_2  and  C_18
REMARK    2  A    between atoms: N_3  and  C_4
REMARK    3  A    between atoms: C_4  and  C_5
REMARK    4  A    between atoms: C_8  and  C_9
REMARK    5  A    between atoms: C_9  and  C_10
REMARK                            x       y       z     vdW  Elec       q    Type
REMARK                         _______ _______ _______ _____ _____    ______ ____
ROOT
ATOM      1  O   UNL     1      46.096   7.818  11.503  0.00  0.00    +0.000 OA
ATOM      2  C   UNL     1      46.371   6.632  11.660  0.00  0.00    +0.000 C 
ATOM      3  N   UNL     1      47.308   6.213  12.568  0.00  0.00    +0.000 N 
ATOM      4  H   UNL     1      47.699   5.279  12.488  0.00  0.00    +0.000 HD
ENDROOT
BRANCH   2   5
ATOM      5  C   UNL     1      45.679   5.579  10.914  0.00  0.00    +0.000 A 
ATOM      6  C   UNL     1      45.798   5.498   9.534  0.00  0.00    +0.000 A 
ATOM      7  S   UNL     1      44.937   4.187   8.859  0.00  0.00    +0.000 S 
ATOM      8  C   UNL     1      44.403   3.675  10.389  0.00  0.00    +0.000 A 
ATOM      9  N   UNL     1      43.634   2.561  10.536  0.00  0.00    +0.000 NA
ATOM     10  C   UNL     1      43.332   2.277  11.759  0.00  0.00    +0.000 A 
ATOM     11  N   UNL     1      43.716   3.015  12.849  0.00  0.00    +0.000 N 
ATOM     12  C   UNL     1      44.431   4.177  12.748  0.00  0.00    +0.000 A 
ATOM     13  O   UNL     1      44.648   4.875  13.726  0.00  0.00    +0.000 OA
ATOM     14  C   UNL     1      44.843   4.512  11.397  0.00  0.00    +0.000 A 
ATOM     15  H   UNL     1      43.416   2.763  13.782  0.00  0.00    +0.000 HD
ENDBRANCH   2   5
BRANCH   3  16
ATOM     16  C   UNL     1      48.095   7.147  13.337  0.00  0.00    +0.000 C 
BRANCH  16  17
ATOM     17  C   UNL     1      48.620   6.537  14.609  0.00  0.00    +0.000 A 
ATOM     18  C   UNL     1      49.823   6.975  15.151  0.00  0.00    +0.000 A 
ATOM     19  N   UNL     1      50.334   6.484  16.305  0.00  0.00    +0.000 NA
ATOM     20  C   UNL     1      49.610   5.503  16.906  0.00  0.00    +0.000 A 
ATOM     21  C   UNL     1      48.425   5.038  16.341  0.00  0.00    +0.000 A 
ATOM     22  N   UNL     1      47.903   5.544  15.199  0.00  0.00    +0.000 NA
BRANCH  20  23
ATOM     23  C   UNL     1      50.135   4.931  18.199  0.00  0.00    +0.000 C 
BRANCH  23  24
ATOM     24  C   UNL     1      51.018   3.719  18.018  0.00  0.00    +0.000 A 
ATOM     25  C   UNL     1      50.507   2.540  17.464  0.00  0.00    +0.000 A 
ATOM     26  C   UNL     1      51.339   1.438  17.352  0.00  0.00    +0.000 A 
ATOM     27  N   UNL     1      52.635   1.435  17.728  0.00  0.00    +0.000 NA
ATOM     28  C   UNL     1      53.120   2.588  18.235  0.00  0.00    +0.000 A 
ATOM     29  C   UNL     1      52.364   3.741  18.394  0.00  0.00    +0.000 A 
ENDBRANCH  23  24
ENDBRANCH  20  23
ENDBRANCH  16  17
ENDBRANCH   3  16
TORSDOF 5
ENDMDL
MODEL 9
REMARK VINA RESULT:    -7.141      2.747      4.247
REMARK INTER + INTRA:          -9.584
REMARK INTER:                  -8.789
REMARK INTRA:                  -0.795
REMARK UNBOUND:                -0.355
REMARK  Name = 
REMARK  5 active torsions:
REMARK  status: ('A' for Active; 'I' for Inactive)
REMARK    1  A    between atoms: C_2  and  C_18
REMARK    2  A    between atoms: N_3  and  C_4
REMARK    3  A    between atoms: C_4  and  C_5
REMARK    4  A    between atoms: C_8  and  C_9
REMARK    5  A    between atoms: C_9  and  C_10
REMARK                            x       y       z     vdW  Elec       q    Type
REMARK                         _______ _______ _______ _____ _____    ______ ____
ROOT
ATOM      1  O   UNL     1      50.288   5.920  16.308  0.00  0.00    +0.000 OA
ATOM      2  C   UNL     1      49.172   6.330  16.613  0.00  0.00    +0.000 C 
ATOM      3  N   UNL     1      48.274   6.771  15.676  0.00  0.00    +0.000 N 
ATOM      4  H   UNL     1      47.486   7.341  15.969  0.00  0.00    +0.000 HD
ENDROOT
BRANCH   2   5
ATOM      5  C   UNL     1      48.709   6.332  18.002  0.00  0.00    +0.000 A 
ATOM      6  C   UNL     1      48.792   5.183  18.775  0.00  0.00    +0.000 A 
ATOM      7  S   UNL     1      48.226   5.401  20.371  0.00  0.00    +0.000 S 
ATOM      8  C   UNL     1      47.876   7.040  20.084  0.00  0.00    +0.000 A 
ATOM      9  N   UNL     1      47.384   7.844  21.067  0.00  0.00    +0.000 NA
ATOM     10  C   UNL     1      47.199   9.071  20.712  0.00  0.00    +0.000 A 
ATOM     11  N   UNL     1      47.445   9.566  19.457  0.00  0.00    +0.000 N 
ATOM     12  C   UNL     1      47.876   8.786  18.419  0.00  0.00    +0.000 A 
ATOM     13  O   UNL     1      47.966   9.231  17.286  0.00  0.00    +0.000 OA
ATOM     14  C   UNL     1      48.153   7.407  18.781  0.00  0.00    +0.000 A 
ATOM     15  H   UNL     1      47.245  10.531  19.227  0.00  0.00    +0.000 HD
ENDBRANCH   2   5
BRANCH   3  16
ATOM     16  C   UNL     1      48.616   6.864  14.278  0.00  0.00    +0.000 C 
BRANCH  16  17
ATOM     17  C   UNL     1      47.523   6.337  13.388  0.00  0.00    +0.000 A 
ATOM     18  C   UNL     1      47.158   7.031  12.240  0.00  0.00    +0.000 A 
ATOM     19  N   UNL     1      46.201   6.594  11.386  0.00  0.00    +0.000 NA
ATOM     20  C   UNL     1      45.584   5.434  11.729  0.00  0.00    +0.000 A 
ATOM     21  C   UNL     1      45.922   4.760  12.900  0.00  0.00    +0.000 A 
ATOM     22  N   UNL     1      46.894   5.185  13.742  0.00  0.00    +0.000 NA
BRANCH  20  23
ATOM     23  C   UNL     1      44.517   4.904  10.805  0.00  0.00    +0.000 C 
BRANCH  23  24
ATOM     24  C   UNL     1      45.043   4.003   9.713  0.00  0.00    +0.000 A 
ATOM     25  C   UNL     1      45.657   4.542   8.577  0.00  0.00    +0.000 A 
ATOM     26  C   UNL     1      46.091   3.684   7.580  0.00  0.00    +0.000 A 
ATOM     27  N   UNL     1      45.977   2.341   7.644  0.00  0.00    +0.000 NA
ATOM     28  C   UNL     1      45.408   1.836   8.759  0.00  0.00    +0.000 A 
ATOM     29  C   UNL     1      44.935   2.613   9.806  0.00  0.00    +0.000 A 
ENDBRANCH  23  24
ENDBRANCH  20  23
ENDBRANCH  16  17
ENDBRANCH   3  16
TORSDOF 5
ENDMDL
