MODEL 1
REMARK VINA RESULT:    -8.610      0.000      0.000
REMARK INTER + INTRA:         -13.149
REMARK INTER:                 -12.133
REMARK INTRA:                  -1.016
REMARK UNBOUND:                -1.016
REMARK  Name = 
REMARK  8 active torsions:
REMARK  status: ('A' for Active; 'I' for Inactive)
REMARK    1  A    between atoms: C_1  and  C_2
REMARK    2  A    between atoms: C_5  and  C_6
REMARK    3  A    between atoms: C_6  and  N_7
REMARK    4  A    between atoms: N_7  and  C_8
REMARK    5  A    between atoms: C_8  and  C_9
REMARK    6  A    between atoms: C_12  and  C_13
REMARK    7  A    between atoms: C_13  and  N_14
REMARK    8  A    between atoms: C_15  and  C_17
REMARK                            x       y       z     vdW  Elec       q    Type
REMARK                         _______ _______ _______ _____ _____    ______ ____
ROOT
ATOM      1  C   UNL     1      44.525   5.292  11.811  0.00  0.00    +0.000 A 
ATOM      2  C   UNL     1      44.917   4.749  13.045  0.00  0.00    +0.000 A 
ATOM      3  C   UNL     1      46.115   5.133  13.658  0.00  0.00    +0.000 A 
ATOM      4  C   UNL     1      46.954   6.072  13.046  0.00  0.00    +0.000 A 
ATOM      5  C   UNL     1      46.588   6.582  11.792  0.00  0.00    +0.000 A 
ATOM      6  C   UNL     1      45.382   6.206  11.185  0.00  0.00    +0.000 A 
ENDROOT
BRANCH   1   7
ATOM      7  C   UNL     1      43.205   4.883  11.188  0.00  0.00    +0.000 C 
BRANCH   7   8
ATOM      8  N   UNL     1      43.429   4.219   9.906  0.00  0.00    +0.000 NA
ATOM      9  H   UNL     1      42.528   3.996   9.485  0.00  0.00    +0.000 HD
BRANCH   8  10
ATOM     10  C   UNL     1      44.162   2.957  10.046  0.00  0.00    +0.000 C 
BRANCH  10  15
ATOM     11  C   UNL     1      48.019   2.201   5.816  0.00  0.00    +0.000 C 
ATOM     12  C   UNL     1      47.024   2.446   6.906  0.00  0.00    +0.000 A 
ATOM     13  C   UNL     1      46.466   3.705   7.115  0.00  0.00    +0.000 A 
ATOM     14  C   UNL     1      45.549   3.888   8.148  0.00  0.00    +0.000 A 
ATOM     15  C   UNL     1      45.198   2.798   8.945  0.00  0.00    +0.000 A 
ATOM     16  N   UNL     1      45.730   1.564   8.759  0.00  0.00    +0.000 NA
ATOM     17  C   UNL     1      46.628   1.421   7.757  0.00  0.00    +0.000 A 
ENDBRANCH  10  15
ENDBRANCH   8  10
ENDBRANCH   7   8
ENDBRANCH   1   7
BRANCH   4  18
ATOM     18  C   UNL     1      48.238   6.524  13.698  0.00  0.00    +0.000 C 
BRANCH  18  19
ATOM     19  N   UNL     1      48.099   6.633  15.127  0.00  0.00    +0.000 N 
ATOM     20  C   UNL     1      49.185   6.643  15.961  0.00  0.00    +0.000 C 
ATOM     21  O   UNL     1      50.337   6.585  15.552  0.00  0.00    +0.000 OA
ATOM     22  H   UNL     1      47.193   6.371  15.506  0.00  0.00    +0.000 HD
BRANCH  20  23
ATOM     23  C   UNL     1      48.878   6.803  17.390  0.00  0.00    +0.000 A 
ATOM     24  C   UNL     1      48.688   8.068  17.925  0.00  0.00    +0.000 A 
ATOM     25  S   UNL     1      48.299   8.054  19.588  0.00  0.00    +0.000 S 
ATOM     26  C   UNL     1      48.419   6.356  19.658  0.00  0.00    +0.000 A 
ATOM     27  N   UNL     1      48.235   5.689  20.829  0.00  0.00    +0.000 NA
ATOM     28  C   UNL     1      48.391   4.408  20.744  0.00  0.00    +0.000 A 
ATOM     29  N   UNL     1      48.705   3.736  19.591  0.00  0.00    +0.000 N 
ATOM     30  C   UNL     1      48.848   4.362  18.379  0.00  0.00    +0.000 A 
ATOM     31  O   UNL     1      49.048   3.720  17.351  0.00  0.00    +0.000 OA
ATOM     32  C   UNL     1      48.718   5.807  18.426  0.00  0.00    +0.000 A 
ATOM     33  H   UNL     1      48.789   2.730  19.585  0.00  0.00    +0.000 HD
ENDBRANCH  20  23
ENDBRANCH  18  19
ENDBRANCH   4  18
TORSDOF 7
ENDMDL
MODEL 2
REMARK VINA RESULT:    -7.994      1.449      1.732
REMARK INTER + INTRA:         -12.282
REMARK INTER:                 -11.274
REMARK INTRA:                  -1.008
REMARK UNBOUND:                -1.016
REMARK  Name = 
REMARK  8 active torsions:
REMARK  status: ('A' for Active; 'I' for Inactive)
REMARK    1  A    between atoms: C_1  and  C_2
REMARK    2  A    between atoms: C_5  and  C_6
REMARK    3  A    between atoms: C_6  and  N_7
REMARK    4  A    between atoms: N_7  and  C_8
REMARK    5  A    between atoms: C_8  and  C_9
REMARK    6  A    between atoms: C_12  and  C_13
REMARK    7  A    between atoms: C_13  and  N_14
REMARK    8  A    between atoms: C_15  and  C_17
REMARK                            x       y       z     vdW  Elec       q    Type
REMARK                         _______ _______ _______ _____ _____    ______ ____
ROOT
ATOM      1  C   UNL     1      44.644   5.914  11.725  0.00  0.00    +0.000 A 
ATOM      2  C   UNL     1      44.850   7.302  11.734  0.00  0.00    +0.000 A 
ATOM      3  C   UNL     1      46.083   7.849  12.109  0.00  0.00    +0.000 A 
ATOM      4  C   UNL     1      47.142   7.015  12.487  0.00  0.00    +0.000 A 
ATOM      5  C   UNL     1      46.924   5.629  12.523  0.00  0.00    +0.000 A 
ATOM      6  C   UNL     1      45.694   5.083  12.136  0.00  0.00    +0.000 A 
ENDROOT
BRANCH   1   7
ATOM      7  C   UNL     1      43.309   5.350  11.281  0.00  0.00    +0.000 C 
BRANCH   7   8
ATOM      8  N   UNL     1      43.438   4.699   9.978  0.00  0.00    +0.000 NA
ATOM      9  H   UNL     1      42.518   4.639   9.544  0.00  0.00    +0.000 HD
BRANCH   8  10
ATOM     10  C   UNL     1      43.953   3.329  10.082  0.00  0.00    +0.000 C 
BRANCH  10  15
ATOM     11  C   UNL     1      47.920   2.170   6.051  0.00  0.00    +0.000 C 
ATOM     12  C   UNL     1      46.901   2.519   7.088  0.00  0.00    +0.000 A 
ATOM     13  C   UNL     1      46.434   3.822   7.243  0.00  0.00    +0.000 A 
ATOM     14  C   UNL     1      45.490   4.101   8.229  0.00  0.00    +0.000 A 
ATOM     15  C   UNL     1      45.020   3.063   9.034  0.00  0.00    +0.000 A 
ATOM     16  N   UNL     1      45.462   1.788   8.900  0.00  0.00    +0.000 NA
ATOM     17  C   UNL     1      46.389   1.550   7.943  0.00  0.00    +0.000 A 
ENDBRANCH  10  15
ENDBRANCH   8  10
ENDBRANCH   7   8
ENDBRANCH   1   7
BRANCH   4  18
ATOM     18  C   UNL     1      48.490   7.576  12.869  0.00  0.00    +0.000 C 
BRANCH  18  19
ATOM     19  N   UNL     1      48.956   7.035  14.118  0.00  0.00    +0.000 N 
ATOM     20  C   UNL     1      48.730   7.668  15.312  0.00  0.00    +0.000 C 
ATOM     21  O   UNL     1      48.103   8.715  15.400  0.00  0.00    +0.000 OA
ATOM     22  H   UNL     1      49.721   6.368  14.055  0.00  0.00    +0.000 HD
BRANCH  20  23
ATOM     23  C   UNL     1      49.233   6.965  16.502  0.00  0.00    +0.000 A 
ATOM     24  C   UNL     1      50.214   7.546  17.292  0.00  0.00    +0.000 A 
ATOM     25  S   UNL     1      50.641   6.604  18.650  0.00  0.00    +0.000 S 
ATOM     26  C   UNL     1      49.562   5.365  18.200  0.00  0.00    +0.000 A 
ATOM     27  N   UNL     1      49.460   4.224  18.933  0.00  0.00    +0.000 NA
ATOM     28  C   UNL     1      48.629   3.355  18.456  0.00  0.00    +0.000 A 
ATOM     29  N   UNL     1      47.886   3.530  17.318  0.00  0.00    +0.000 N 
ATOM     30  C   UNL     1      47.919   4.684  16.578  0.00  0.00    +0.000 A 
ATOM     31  O   UNL     1      47.177   4.840  15.610  0.00  0.00    +0.000 OA
ATOM     32  C   UNL     1      48.863   5.680  17.051  0.00  0.00    +0.000 A 
ATOM     33  H   UNL     1      47.235   2.823  17.012  0.00  0.00    +0.000 HD
ENDBRANCH  20  23
ENDBRANCH  18  19
ENDBRANCH   4  18
TORSDOF 7
ENDMDL
MODEL 3
REMARK VINA RESULT:    -7.564      2.268      3.103
REMARK INTER + INTRA:         -11.676
REMARK INTER:                 -10.573
REMARK INTRA:                  -1.103
REMARK UNBOUND:                -1.016
REMARK  Name = 
REMARK  8 active torsions:
REMARK  status: ('A' for Active; 'I' for Inactive)
REMARK    1  A    between atoms: C_1  and  C_2
REMARK    2  A    between atoms: C_5  and  C_6
REMARK    3  A    between atoms: C_6  and  N_7
REMARK    4  A    between atoms: N_7  and  C_8
REMARK    5  A    between atoms: C_8  and  C_9
REMARK    6  A    between atoms: C_12  and  C_13
REMARK    7  A    between atoms: C_13  and  N_14
REMARK    8  A    between atoms: C_15  and  C_17
REMARK                            x       y       z     vdW  Elec       q    Type
REMARK                         _______ _______ _______ _____ _____    ______ ____
ROOT
ATOM      1  C   UNL     1      44.877   4.746  11.970  0.00  0.00    +0.000 A 
ATOM      2  C   UNL     1      45.214   5.799  11.105  0.00  0.00    +0.000 A 
ATOM      3  C   UNL     1      46.294   6.646  11.380  0.00  0.00    +0.000 A 
ATOM      4  C   UNL     1      47.063   6.459  12.535  0.00  0.00    +0.000 A 
ATOM      5  C   UNL     1      46.701   5.437  13.424  0.00  0.00    +0.000 A 
ATOM      6  C   UNL     1      45.628   4.582  13.141  0.00  0.00    +0.000 A 
ENDROOT
BRANCH   1   7
ATOM      7  C   UNL     1      43.724   3.824  11.627  0.00  0.00    +0.000 C 
BRANCH   7   8
ATOM      8  N   UNL     1      43.747   3.485  10.205  0.00  0.00    +0.000 NA
ATOM      9  H   UNL     1      42.788   3.416   9.865  0.00  0.00    +0.000 HD
BRANCH   8  10
ATOM     10  C   UNL     1      44.390   2.193   9.944  0.00  0.00    +0.000 C 
BRANCH  10  15
ATOM     11  C   UNL     1      47.963   2.376   5.413  0.00  0.00    +0.000 C 
ATOM     12  C   UNL     1      47.034   2.378   6.584  0.00  0.00    +0.000 A 
ATOM     13  C   UNL     1      46.292   3.507   6.925  0.00  0.00    +0.000 A 
ATOM     14  C   UNL     1      45.444   3.465   8.029  0.00  0.00    +0.000 A 
ATOM     15  C   UNL     1      45.345   2.284   8.765  0.00  0.00    +0.000 A 
ATOM     16  N   UNL     1      46.058   1.174   8.451  0.00  0.00    +0.000 NA
ATOM     17  C   UNL     1      46.883   1.250   7.381  0.00  0.00    +0.000 A 
ENDBRANCH  10  15
ENDBRANCH   8  10
ENDBRANCH   7   8
ENDBRANCH   1   7
BRANCH   4  18
ATOM     18  C   UNL     1      48.249   7.341  12.842  0.00  0.00    +0.000 C 
BRANCH  18  19
ATOM     19  N   UNL     1      49.062   6.790  13.895  0.00  0.00    +0.000 N 
ATOM     20  C   UNL     1      49.048   7.304  15.165  0.00  0.00    +0.000 C 
ATOM     21  O   UNL     1      48.333   8.241  15.494  0.00  0.00    +0.000 OA
ATOM     22  H   UNL     1      49.868   6.247  13.595  0.00  0.00    +0.000 HD
BRANCH  20  23
ATOM     23  C   UNL     1      49.902   6.603  16.135  0.00  0.00    +0.000 A 
ATOM     24  C   UNL     1      49.334   5.790  17.104  0.00  0.00    +0.000 A 
ATOM     25  S   UNL     1      50.482   5.028  18.112  0.00  0.00    +0.000 S 
ATOM     26  C   UNL     1      51.776   5.798  17.316  0.00  0.00    +0.000 A 
ATOM     27  N   UNL     1      53.060   5.605  17.718  0.00  0.00    +0.000 NA
ATOM     28  C   UNL     1      53.937   6.279  17.047  0.00  0.00    +0.000 A 
ATOM     29  N   UNL     1      53.643   7.120  16.006  0.00  0.00    +0.000 N 
ATOM     30  C   UNL     1      52.368   7.305  15.535  0.00  0.00    +0.000 A 
ATOM     31  O   UNL     1      52.151   8.002  14.547  0.00  0.00    +0.000 OA
ATOM     32  C   UNL     1      51.341   6.597  16.277  0.00  0.00    +0.000 A 
ATOM     33  H   UNL     1      54.377   7.600  15.506  0.00  0.00    +0.000 HD
ENDBRANCH  20  23
ENDBRANCH  18  19
ENDBRANCH   4  18
TORSDOF 7
ENDMDL
MODEL 4
REMARK VINA RESULT:    -7.132      4.598      6.670
REMARK INTER + INTRA:         -11.066
REMARK INTER:                  -9.770
REMARK INTRA:                  -1.296
REMARK UNBOUND:                -1.016
REMARK  Name = 
REMARK  8 active torsions:
REMARK  status: ('A' for Active; 'I' for Inactive)
REMARK    1  A    between atoms: C_1  and  C_2
REMARK    2  A    between atoms: C_5  and  C_6
REMARK    3  A    between atoms: C_6  and  N_7
REMARK    4  A    between atoms: N_7  and  C_8
REMARK    5  A    between atoms: C_8  and  C_9
REMARK    6  A    between atoms: C_12  and  C_13
REMARK    7  A    between atoms: C_13  and  N_14
REMARK    8  A    between atoms: C_15  and  C_17
REMARK                            x       y       z     vdW  Elec       q    Type
REMARK                         _______ _______ _______ _____ _____    ______ ____
ROOT
ATOM      1  C   UNL     1      45.325   6.026  12.221  0.00  0.00    +0.000 A 
ATOM      2  C   UNL     1      45.961   7.059  11.515  0.00  0.00    +0.000 A 
ATOM      3  C   UNL     1      47.291   7.406  11.781  0.00  0.00    +0.000 A 
ATOM      4  C   UNL     1      48.017   6.725  12.766  0.00  0.00    +0.000 A 
ATOM      5  C   UNL     1      47.369   5.724  13.505  0.00  0.00    +0.000 A 
ATOM      6  C   UNL     1      46.042   5.370  13.229  0.00  0.00    +0.000 A 
ENDROOT
BRANCH   1   7
ATOM      7  C   UNL     1      43.895   5.649  11.886  0.00  0.00    +0.000 C 
BRANCH   7   8
ATOM      8  N   UNL     1      43.783   5.272  10.478  0.00  0.00    +0.000 NA
ATOM      9  H   UNL     1      42.895   5.614  10.113  0.00  0.00    +0.000 HD
BRANCH   8  10
ATOM     10  C   UNL     1      43.798   3.819  10.282  0.00  0.00    +0.000 C 
BRANCH  10  15
ATOM     11  C   UNL     1      47.752   2.137   6.426  0.00  0.00    +0.000 C 
ATOM     12  C   UNL     1      46.744   2.619   7.418  0.00  0.00    +0.000 A 
ATOM     13  C   UNL     1      46.451   3.974   7.562  0.00  0.00    +0.000 A 
ATOM     14  C   UNL     1      45.509   4.377   8.506  0.00  0.00    +0.000 A 
ATOM     15  C   UNL     1      44.867   3.411   9.281  0.00  0.00    +0.000 A 
ATOM     16  N   UNL     1      45.137   2.088   9.157  0.00  0.00    +0.000 NA
ATOM     17  C   UNL     1      46.066   1.728   8.241  0.00  0.00    +0.000 A 
ENDBRANCH  10  15
ENDBRANCH   8  10
ENDBRANCH   7   8
ENDBRANCH   1   7
BRANCH   4  18
ATOM     18  C   UNL     1      49.460   7.061  13.054  0.00  0.00    +0.000 C 
BRANCH  18  19
ATOM     19  N   UNL     1      50.040   7.858  12.005  0.00  0.00    +0.000 N 
ATOM     20  C   UNL     1      51.004   8.798  12.259  0.00  0.00    +0.000 C 
ATOM     21  O   UNL     1      51.450   9.005  13.379  0.00  0.00    +0.000 OA
ATOM     22  H   UNL     1      49.492   7.937  11.153  0.00  0.00    +0.000 HD
BRANCH  20  23
ATOM     23  C   UNL     1      51.525   9.498  11.076  0.00  0.00    +0.000 A 
ATOM     24  C   UNL     1      51.392  10.874  10.966  0.00  0.00    +0.000 A 
ATOM     25  S   UNL     1      52.094  11.515   9.547  0.00  0.00    +0.000 S 
ATOM     26  C   UNL     1      52.557   9.966   9.010  0.00  0.00    +0.000 A 
ATOM     27  N   UNL     1      53.185   9.799   7.815  0.00  0.00    +0.000 NA
ATOM     28  C   UNL     1      53.446   8.567   7.518  0.00  0.00    +0.000 A 
ATOM     29  N   UNL     1      53.144   7.492   8.312  0.00  0.00    +0.000 N 
ATOM     30  C   UNL     1      52.559   7.620   9.546  0.00  0.00    +0.000 A 
ATOM     31  O   UNL     1      52.378   6.642  10.268  0.00  0.00    +0.000 OA
ATOM     32  C   UNL     1      52.212   8.981   9.913  0.00  0.00    +0.000 A 
ATOM     33  H   UNL     1      53.397   6.556   8.034  0.00  0.00    +0.000 HD
ENDBRANCH  20  23
ENDBRANCH  18  19
ENDBRANCH   4  18
TORSDOF 7
ENDMDL
MODEL 5
REMARK VINA RESULT:    -7.099      3.420      8.484
REMARK INTER + INTRA:         -11.021
REMARK INTER:                  -9.774
REMARK INTRA:                  -1.247
REMARK UNBOUND:                -1.016
REMARK  Name = 
REMARK  8 active torsions:
REMARK  status: ('A' for Active; 'I' for Inactive)
REMARK    1  A    between atoms: C_1  and  C_2
REMARK    2  A    between atoms: C_5  and  C_6
REMARK    3  A    between atoms: C_6  and  N_7
REMARK    4  A    between atoms: N_7  and  C_8
REMARK    5  A    between atoms: C_8  and  C_9
REMARK    6  A    between atoms: C_12  and  C_13
REMARK    7  A    between atoms: C_13  and  N_14
REMARK    8  A    between atoms: C_15  and  C_17
REMARK                            x       y       z     vdW  Elec       q    Type
REMARK                         _______ _______ _______ _____ _____    ______ ____
ROOT
ATOM      1  C   UNL     1      48.644   7.996  16.250  0.00  0.00    +0.000 A 
ATOM      2  C   UNL     1      48.764   6.816  15.500  0.00  0.00    +0.000 A 
ATOM      3  C   UNL     1      48.654   6.830  14.104  0.00  0.00    +0.000 A 
ATOM      4  C   UNL     1      48.417   8.032  13.425  0.00  0.00    +0.000 A 
ATOM      5  C   UNL     1      48.251   9.205  14.176  0.00  0.00    +0.000 A 
ATOM      6  C   UNL     1      48.374   9.191  15.571  0.00  0.00    +0.000 A 
ENDROOT
BRANCH   1   7
ATOM      7  C   UNL     1      48.804   7.955  17.757  0.00  0.00    +0.000 C 
BRANCH   7   8
ATOM      8  N   UNL     1      47.524   7.664  18.398  0.00  0.00    +0.000 NA
ATOM      9  H   UNL     1      47.248   8.462  18.970  0.00  0.00    +0.000 HD
BRANCH   8  10
ATOM     10  C   UNL     1      47.593   6.501  19.290  0.00  0.00    +0.000 C 
BRANCH  10  15
ATOM     11  C   UNL     1      49.647   1.797  16.646  0.00  0.00    +0.000 C 
ATOM     12  C   UNL     1      49.074   3.013  17.303  0.00  0.00    +0.000 A 
ATOM     13  C   UNL     1      47.738   3.370  17.139  0.00  0.00    +0.000 A 
ATOM     14  C   UNL     1      47.250   4.515  17.763  0.00  0.00    +0.000 A 
ATOM     15  C   UNL     1      48.111   5.276  18.555  0.00  0.00    +0.000 A 
ATOM     16  N   UNL     1      49.415   4.946  18.729  0.00  0.00    +0.000 NA
ATOM     17  C   UNL     1      49.863   3.836  18.097  0.00  0.00    +0.000 A 
ENDBRANCH  10  15
ENDBRANCH   8  10
ENDBRANCH   7   8
ENDBRANCH   1   7
BRANCH   4  18
ATOM     18  C   UNL     1      48.321   8.079  11.920  0.00  0.00    +0.000 C 
BRANCH  18  19
ATOM     19  N   UNL     1      47.589   6.955  11.398  0.00  0.00    +0.000 N 
ATOM     20  C   UNL     1      46.220   6.932  11.370  0.00  0.00    +0.000 C 
ATOM     21  O   UNL     1      45.532   7.865  11.760  0.00  0.00    +0.000 OA
ATOM     22  H   UNL     1      48.094   6.073  11.365  0.00  0.00    +0.000 HD
BRANCH  20  23
ATOM     23  C   UNL     1      45.624   5.730  10.768  0.00  0.00    +0.000 A 
ATOM     24  C   UNL     1      45.780   5.478   9.413  0.00  0.00    +0.000 A 
ATOM     25  S   UNL     1      45.057   4.018   8.903  0.00  0.00    +0.000 S 
ATOM     26  C   UNL     1      44.470   3.697  10.470  0.00  0.00    +0.000 A 
ATOM     27  N   UNL     1      43.717   2.593  10.723  0.00  0.00    +0.000 NA
ATOM     28  C   UNL     1      43.309   2.494  11.946  0.00  0.00    +0.000 A 
ATOM     29  N   UNL     1      43.595   3.395  12.938  0.00  0.00    +0.000 N 
ATOM     30  C   UNL     1      44.392   4.494  12.740  0.00  0.00    +0.000 A 
ATOM     31  O   UNL     1      44.695   5.235  13.671  0.00  0.00    +0.000 OA
ATOM     32  C   UNL     1      44.847   4.671  11.373  0.00  0.00    +0.000 A 
ATOM     33  H   UNL     1      43.266   3.247  13.881  0.00  0.00    +0.000 HD
ENDBRANCH  20  23
ENDBRANCH  18  19
ENDBRANCH   4  18
TORSDOF 7
ENDMDL
MODEL 6
REMARK VINA RESULT:    -7.058      3.198      8.968
REMARK INTER + INTRA:         -10.962
REMARK INTER:                  -9.516
REMARK INTRA:                  -1.445
REMARK UNBOUND:                -1.016
REMARK  Name = 
REMARK  8 active torsions:
REMARK  status: ('A' for Active; 'I' for Inactive)
REMARK    1  A    between atoms: C_1  and  C_2
REMARK    2  A    between atoms: C_5  and  C_6
REMARK    3  A    between atoms: C_6  and  N_7
REMARK    4  A    between atoms: N_7  and  C_8
REMARK    5  A    between atoms: C_8  and  C_9
REMARK    6  A    between atoms: C_12  and  C_13
REMARK    7  A    between atoms: C_13  and  N_14
REMARK    8  A    between atoms: C_15  and  C_17
REMARK                            x       y       z     vdW  Elec       q    Type
REMARK                         _______ _______ _______ _____ _____    ______ ____
ROOT
ATOM      1  C   UNL     1      48.904   8.134  16.103  0.00  0.00    +0.000 A 
ATOM      2  C   UNL     1      48.135   9.119  15.465  0.00  0.00    +0.000 A 
ATOM      3  C   UNL     1      47.755   8.987  14.124  0.00  0.00    +0.000 A 
ATOM      4  C   UNL     1      48.139   7.860  13.387  0.00  0.00    +0.000 A 
ATOM      5  C   UNL     1      48.947   6.896  14.009  0.00  0.00    +0.000 A 
ATOM      6  C   UNL     1      49.316   7.024  15.354  0.00  0.00    +0.000 A 
ENDROOT
BRANCH   1   7
ATOM      7  C   UNL     1      49.270   8.288  17.566  0.00  0.00    +0.000 C 
BRANCH   7   8
ATOM      8  N   UNL     1      48.078   8.184  18.404  0.00  0.00    +0.000 NA
ATOM      9  H   UNL     1      47.976   9.042  18.946  0.00  0.00    +0.000 HD
BRANCH   8  10
ATOM     10  C   UNL     1      48.159   7.078  19.364  0.00  0.00    +0.000 C 
BRANCH  10  15
ATOM     11  C   UNL     1      48.994   2.112  16.540  0.00  0.00    +0.000 C 
ATOM     12  C   UNL     1      48.822   3.392  17.293  0.00  0.00    +0.000 A 
ATOM     13  C   UNL     1      49.882   3.987  17.974  0.00  0.00    +0.000 A 
ATOM     14  C   UNL     1      49.673   5.175  18.669  0.00  0.00    +0.000 A 
ATOM     15  C   UNL     1      48.404   5.755  18.657  0.00  0.00    +0.000 A 
ATOM     16  N   UNL     1      47.358   5.192  18.001  0.00  0.00    +0.000 NA
ATOM     17  C   UNL     1      47.589   4.030  17.347  0.00  0.00    +0.000 A 
ENDBRANCH  10  15
ENDBRANCH   8  10
ENDBRANCH   7   8
ENDBRANCH   1   7
BRANCH   4  18
ATOM     18  C   UNL     1      47.721   7.679  11.949  0.00  0.00    +0.000 C 
BRANCH  18  19
ATOM     19  N   UNL     1      46.963   6.470  11.764  0.00  0.00    +0.000 N 
ATOM     20  C   UNL     1      45.594   6.456  11.827  0.00  0.00    +0.000 C 
ATOM     21  O   UNL     1      44.928   7.464  12.020  0.00  0.00    +0.000 OA
ATOM     22  H   UNL     1      47.468   5.601  11.916  0.00  0.00    +0.000 HD
BRANCH  20  23
ATOM     23  C   UNL     1      44.966   5.150  11.574  0.00  0.00    +0.000 A 
ATOM     24  C   UNL     1      44.246   4.518  12.577  0.00  0.00    +0.000 A 
ATOM     25  S   UNL     1      43.555   3.035  12.087  0.00  0.00    +0.000 S 
ATOM     26  C   UNL     1      44.238   3.167  10.532  0.00  0.00    +0.000 A 
ATOM     27  N   UNL     1      44.061   2.188   9.604  0.00  0.00    +0.000 NA
ATOM     28  C   UNL     1      44.665   2.402   8.480  0.00  0.00    +0.000 A 
ATOM     29  N   UNL     1      45.419   3.511   8.200  0.00  0.00    +0.000 N 
ATOM     30  C   UNL     1      45.581   4.546   9.086  0.00  0.00    +0.000 A 
ATOM     31  O   UNL     1      46.195   5.562   8.771  0.00  0.00    +0.000 OA
ATOM     32  C   UNL     1      44.953   4.339  10.378  0.00  0.00    +0.000 A 
ATOM     33  H   UNL     1      45.844   3.632   7.292  0.00  0.00    +0.000 HD
ENDBRANCH  20  23
ENDBRANCH  18  19
ENDBRANCH   4  18
TORSDOF 7
ENDMDL
MODEL 7
REMARK VINA RESULT:    -6.875      3.583      9.037
REMARK INTER + INTRA:         -10.704
REMARK INTER:                  -9.483
REMARK INTRA:                  -1.220
REMARK UNBOUND:                -1.016
REMARK  Name = 
REMARK  8 active torsions:
REMARK  status: ('A' for Active; 'I' for Inactive)
REMARK    1  A    between atoms: C_1  and  C_2
REMARK    2  A    between atoms: C_5  and  C_6
REMARK    3  A    between atoms: C_6  and  N_7
REMARK    4  A    between atoms: N_7  and  C_8
REMARK    5  A    between atoms: C_8  and  C_9
REMARK    6  A    between atoms: C_12  and  C_13
REMARK    7  A    between atoms: C_13  and  N_14
REMARK    8  A    between atoms: C_15  and  C_17
REMARK                            x       y       z     vdW  Elec       q    Type
REMARK                         _______ _______ _______ _____ _____    ______ ____
ROOT
ATOM      1  C   UNL     1      50.282   8.218  14.005  0.00  0.00    +0.000 A 
ATOM      2  C   UNL     1      49.094   8.601  14.647  0.00  0.00    +0.000 A 
ATOM      3  C   UNL     1      47.868   8.587  13.970  0.00  0.00    +0.000 A 
ATOM      4  C   UNL     1      47.804   8.189  12.629  0.00  0.00    +0.000 A 
ATOM      5  C   UNL     1      48.997   7.850  11.973  0.00  0.00    +0.000 A 
ATOM      6  C   UNL     1      50.220   7.854  12.654  0.00  0.00    +0.000 A 
ENDROOT
BRANCH   1   7
ATOM      7  C   UNL     1      51.589   8.210  14.773  0.00  0.00    +0.000 C 
BRANCH   7   8
ATOM      8  N   UNL     1      51.785   6.921  15.434  0.00  0.00    +0.000 NA
ATOM      9  H   UNL     1      51.259   6.207  14.931  0.00  0.00    +0.000 HD
BRANCH   8  10
ATOM     10  C   UNL     1      51.298   6.919  16.818  0.00  0.00    +0.000 C 
BRANCH  10  15
ATOM     11  C   UNL     1      47.378   2.778  17.722  0.00  0.00    +0.000 C 
ATOM     12  C   UNL     1      48.356   3.882  17.479  0.00  0.00    +0.000 A 
ATOM     13  C   UNL     1      47.951   5.213  17.407  0.00  0.00    +0.000 A 
ATOM     14  C   UNL     1      48.897   6.208  17.171  0.00  0.00    +0.000 A 
ATOM     15  C   UNL     1      50.238   5.850  17.025  0.00  0.00    +0.000 A 
ATOM     16  N   UNL     1      50.653   4.561  17.092  0.00  0.00    +0.000 NA
ATOM     17  C   UNL     1      49.709   3.615  17.308  0.00  0.00    +0.000 A 
ENDBRANCH  10  15
ENDBRANCH   8  10
ENDBRANCH   7   8
ENDBRANCH   1   7
BRANCH   4  18
ATOM     18  C   UNL     1      46.492   8.138  11.885  0.00  0.00    +0.000 C 
BRANCH  18  19
ATOM     19  N   UNL     1      46.049   6.784  11.681  0.00  0.00    +0.000 N 
ATOM     20  C   UNL     1      44.733   6.479  11.455  0.00  0.00    +0.000 C 
ATOM     21  O   UNL     1      43.856   7.331  11.388  0.00  0.00    +0.000 OA
ATOM     22  H   UNL     1      46.666   6.057  12.033  0.00  0.00    +0.000 HD
BRANCH  20  23
ATOM     23  C   UNL     1      44.448   5.055  11.224  0.00  0.00    +0.000 A 
ATOM     24  C   UNL     1      43.677   4.342  12.130  0.00  0.00    +0.000 A 
ATOM     25  S   UNL     1      43.418   2.718  11.673  0.00  0.00    +0.000 S 
ATOM     26  C   UNL     1      44.368   2.901  10.272  0.00  0.00    +0.000 A 
ATOM     27  N   UNL     1      44.590   1.853   9.434  0.00  0.00    +0.000 NA
ATOM     28  C   UNL     1      45.359   2.126   8.430  0.00  0.00    +0.000 A 
ATOM     29  N   UNL     1      45.916   3.354   8.186  0.00  0.00    +0.000 N 
ATOM     30  C   UNL     1      45.677   4.450   8.975  0.00  0.00    +0.000 A 
ATOM     31  O   UNL     1      46.125   5.555   8.679  0.00  0.00    +0.000 OA
ATOM     32  C   UNL     1      44.848   4.189  10.137  0.00  0.00    +0.000 A 
ATOM     33  H   UNL     1      46.488   3.509   7.368  0.00  0.00    +0.000 HD
ENDBRANCH  20  23
ENDBRANCH  18  19
ENDBRANCH   4  18
TORSDOF 7
ENDMDL
MODEL 8
REMARK VINA RESULT:    -6.761      4.835      5.944
REMARK INTER + INTRA:         -10.544
REMARK INTER:                  -9.533
REMARK INTRA:                  -1.011
REMARK UNBOUND:                -1.016
REMARK  Name = 
REMARK  8 active torsions:
REMARK  status: ('A' for Active; 'I' for Inactive)
REMARK    1  A    between atoms: C_1  and  C_2
REMARK    2  A    between atoms: C_5  and  C_6
REMARK    3  A    between atoms: C_6  and  N_7
REMARK    4  A    between atoms: N_7  and  C_8
REMARK    5  A    between atoms: C_8  and  C_9
REMARK    6  A    between atoms: C_12  and  C_13
REMARK    7  A    between atoms: C_13  and  N_14
REMARK    8  A    between atoms: C_15  and  C_17
REMARK                            x       y       z     vdW  Elec       q    Type
REMARK                         _______ _______ _______ _____ _____    ______ ____
ROOT
ATOM      1  C   UNL     1      45.572   6.563  12.541  0.00  0.00    +0.000 A 
ATOM      2  C   UNL     1      45.280   7.936  12.557  0.00  0.00    +0.000 A 
ATOM      3  C   UNL     1      46.278   8.892  12.336  0.00  0.00    +0.000 A 
ATOM      4  C   UNL     1      47.599   8.494  12.094  0.00  0.00    +0.000 A 
ATOM      5  C   UNL     1      47.902   7.124  12.123  0.00  0.00    +0.000 A 
ATOM      6  C   UNL     1      46.900   6.168  12.332  0.00  0.00    +0.000 A 
ENDROOT
BRANCH   1   7
ATOM      7  C   UNL     1      44.464   5.550  12.748  0.00  0.00    +0.000 C 
BRANCH   7   8
ATOM      8  N   UNL     1      44.615   4.430  11.822  0.00  0.00    +0.000 NA
ATOM      9  H   UNL     1      45.602   4.180  11.760  0.00  0.00    +0.000 HD
BRANCH   8  10
ATOM     10  C   UNL     1      44.170   4.759  10.464  0.00  0.00    +0.000 C 
BRANCH  10  15
ATOM     11  C   UNL     1      47.191   1.797   6.535  0.00  0.00    +0.000 C 
ATOM     12  C   UNL     1      46.387   2.522   7.566  0.00  0.00    +0.000 A 
ATOM     13  C   UNL     1      45.677   1.839   8.551  0.00  0.00    +0.000 A 
ATOM     14  C   UNL     1      44.935   2.556   9.487  0.00  0.00    +0.000 A 
ATOM     15  C   UNL     1      44.929   3.950   9.425  0.00  0.00    +0.000 A 
ATOM     16  N   UNL     1      45.613   4.634   8.475  0.00  0.00    +0.000 NA
ATOM     17  C   UNL     1      46.313   3.909   7.572  0.00  0.00    +0.000 A 
ENDBRANCH  10  15
ENDBRANCH   8  10
ENDBRANCH   7   8
ENDBRANCH   1   7
BRANCH   4  18
ATOM     18  C   UNL     1      48.689   9.502  11.825  0.00  0.00    +0.000 C 
BRANCH  18  19
ATOM     19  N   UNL     1      49.954   8.863  11.575  0.00  0.00    +0.000 N 
ATOM     20  C   UNL     1      51.001   9.532  10.997  0.00  0.00    +0.000 C 
ATOM     21  O   UNL     1      50.941  10.712  10.679  0.00  0.00    +0.000 OA
ATOM     22  H   UNL     1      49.938   7.848  11.531  0.00  0.00    +0.000 HD
BRANCH  20  23
ATOM     23  C   UNL     1      52.239   8.752  10.847  0.00  0.00    +0.000 A 
ATOM     24  C   UNL     1      52.732   8.464   9.584  0.00  0.00    +0.000 A 
ATOM     25  S   UNL     1      54.198   7.588   9.609  0.00  0.00    +0.000 S 
ATOM     26  C   UNL     1      54.196   7.525  11.311  0.00  0.00    +0.000 A 
ATOM     27  N   UNL     1      55.177   6.871  11.988  0.00  0.00    +0.000 NA
ATOM     28  C   UNL     1      55.031   6.872  13.274  0.00  0.00    +0.000 A 
ATOM     29  N   UNL     1      53.997   7.477  13.939  0.00  0.00    +0.000 N 
ATOM     30  C   UNL     1      53.015   8.190  13.300  0.00  0.00    +0.000 A 
ATOM     31  O   UNL     1      52.149   8.788  13.934  0.00  0.00    +0.000 OA
ATOM     32  C   UNL     1      53.113   8.189  11.852  0.00  0.00    +0.000 A 
ATOM     33  H   UNL     1      53.953   7.463  14.948  0.00  0.00    +0.000 HD
ENDBRANCH  20  23
ENDBRANCH  18  19
ENDBRANCH   4  18
TORSDOF 7
ENDMDL
MODEL 9
REMARK VINA RESULT:    -6.563      3.575      8.820
REMARK INTER + INTRA:         -10.265
REMARK INTER:                  -8.515
REMARK INTRA:                  -1.750
REMARK UNBOUND:                -1.016
REMARK  Name = 
REMARK  8 active torsions:
REMARK  status: ('A' for Active; 'I' for Inactive)
REMARK    1  A    between atoms: C_1  and  C_2
REMARK    2  A    between atoms: C_5  and  C_6
REMARK    3  A    between atoms: C_6  and  N_7
REMARK    4  A    between atoms: N_7  and  C_8
REMARK    5  A    between atoms: C_8  and  C_9
REMARK    6  A    between atoms: C_12  and  C_13
REMARK    7  A    between atoms: C_13  and  N_14
REMARK    8  A    between atoms: C_15  and  C_17
REMARK                            x       y       z     vdW  Elec       q    Type
REMARK                         _______ _______ _______ _____ _____    ______ ____
ROOT
ATOM      1  C   UNL     1      49.018   8.602  18.896  0.00  0.00    +0.000 A 
ATOM      2  C   UNL     1      47.965   9.272  18.254  0.00  0.00    +0.000 A 
ATOM      3  C   UNL     1      47.848   9.270  16.859  0.00  0.00    +0.000 A 
ATOM      4  C   UNL     1      48.787   8.594  16.070  0.00  0.00    +0.000 A 
ATOM      5  C   UNL     1      49.866   7.963  16.707  0.00  0.00    +0.000 A 
ATOM      6  C   UNL     1      49.975   7.956  18.103  0.00  0.00    +0.000 A 
ENDROOT
BRANCH   1   7
ATOM      7  C   UNL     1      49.099   8.592  20.409  0.00  0.00    +0.000 C 
BRANCH   7   8
ATOM      8  N   UNL     1      49.226   7.223  20.905  0.00  0.00    +0.000 NA
ATOM      9  H   UNL     1      49.932   6.734  20.355  0.00  0.00    +0.000 HD
BRANCH   8  10
ATOM     10  C   UNL     1      47.980   6.460  20.778  0.00  0.00    +0.000 C 
BRANCH  10  15
ATOM     11  C   UNL     1      48.300   2.576  16.519  0.00  0.00    +0.000 C 
ATOM     12  C   UNL     1      48.184   3.607  17.594  0.00  0.00    +0.000 A 
ATOM     13  C   UNL     1      47.175   4.567  17.580  0.00  0.00    +0.000 A 
ATOM     14  C   UNL     1      47.111   5.514  18.600  0.00  0.00    +0.000 A 
ATOM     15  C   UNL     1      48.056   5.472  19.626  0.00  0.00    +0.000 A 
ATOM     16  N   UNL     1      49.046   4.546  19.659  0.00  0.00    +0.000 NA
ATOM     17  C   UNL     1      49.090   3.649  18.647  0.00  0.00    +0.000 A 
ENDBRANCH  10  15
ENDBRANCH   8  10
ENDBRANCH   7   8
ENDBRANCH   1   7
BRANCH   4  18
ATOM     18  C   UNL     1      48.669   8.553  14.566  0.00  0.00    +0.000 C 
BRANCH  18  19
ATOM     19  N   UNL     1      47.628   7.656  14.139  0.00  0.00    +0.000 N 
ATOM     20  C   UNL     1      47.882   6.589  13.319  0.00  0.00    +0.000 C 
ATOM     21  O   UNL     1      49.005   6.314  12.916  0.00  0.00    +0.000 OA
ATOM     22  H   UNL     1      46.680   8.021  14.188  0.00  0.00    +0.000 HD
BRANCH  20  23
ATOM     23  C   UNL     1      46.720   5.744  13.009  0.00  0.00    +0.000 A 
ATOM     24  C   UNL     1      46.743   4.390  13.309  0.00  0.00    +0.000 A 
ATOM     25  S   UNL     1      45.291   3.581  12.917  0.00  0.00    +0.000 S 
ATOM     26  C   UNL     1      44.601   5.006  12.288  0.00  0.00    +0.000 A 
ATOM     27  N   UNL     1      43.355   4.999  11.743  0.00  0.00    +0.000 NA
ATOM     28  C   UNL     1      42.972   6.142  11.273  0.00  0.00    +0.000 A 
ATOM     29  N   UNL     1      43.720   7.290  11.309  0.00  0.00    +0.000 N 
ATOM     30  C   UNL     1      44.959   7.353  11.894  0.00  0.00    +0.000 A 
ATOM     31  O   UNL     1      45.566   8.418  11.982  0.00  0.00    +0.000 OA
ATOM     32  C   UNL     1      45.451   6.088  12.406  0.00  0.00    +0.000 A 
ATOM     33  H   UNL     1      43.353   8.158  10.947  0.00  0.00    +0.000 HD
ENDBRANCH  20  23
ENDBRANCH  18  19
ENDBRANCH   4  18
TORSDOF 7
ENDMDL
