MODEL 1
REMARK VINA RESULT:    -8.709      0.000      0.000
REMARK INTER + INTRA:         -13.833
REMARK INTER:                 -12.273
REMARK INTRA:                  -1.560
REMARK UNBOUND:                -1.560
REMARK  Name = 
REMARK  9 active torsions:
REMARK  status: ('A' for Active; 'I' for Inactive)
REMARK    1  A    between atoms: C_1  and  C_2
REMARK    2  A    between atoms: C_2  and  N_3
REMARK    3  A    between atoms: C_2  and  C_17
REMARK    4  A    between atoms: C_4  and  C_6
REMARK    5  A    between atoms: N_12  and  C_13
REMARK    6  A    between atoms: C_20  and  C_21
REMARK    7  A    between atoms: C_21  and  N_22
REMARK    8  A    between atoms: N_22  and  C_23
REMARK    9  A    between atoms: C_23  and  C_24
REMARK                            x       y       z     vdW  Elec       q    Type
REMARK                         _______ _______ _______ _____ _____    ______ ____
ROOT
ATOM      1  C   UNL     1      46.687   8.992  12.936  0.00  0.00    +0.000 C 
ATOM      2  C   UNL     1      47.361   7.620  13.043  0.00  0.00    +0.000 C 
ENDROOT
BRANCH   2   3
ATOM      3  C   UNL     1      46.451   6.519  12.525  0.00  0.00    +0.000 A 
ATOM      4  C   UNL     1      46.081   6.514  11.174  0.00  0.00    +0.000 A 
ATOM      5  C   UNL     1      45.176   5.570  10.684  0.00  0.00    +0.000 A 
ATOM      6  C   UNL     1      44.628   4.595  11.531  0.00  0.00    +0.000 A 
ATOM      7  C   UNL     1      45.040   4.561  12.869  0.00  0.00    +0.000 A 
ATOM      8  C   UNL     1      45.945   5.509  13.359  0.00  0.00    +0.000 A 
BRANCH   6   9
ATOM      9  C   UNL     1      43.584   3.634  11.013  0.00  0.00    +0.000 C 
BRANCH   9  10
ATOM     10  N   UNL     1      43.820   3.298   9.614  0.00  0.00    +0.000 NA
ATOM     11  H   UNL     1      44.288   4.077   9.153  0.00  0.00    +0.000 HD
BRANCH  10  12
ATOM     12  C   UNL     1      44.647   2.099   9.486  0.00  0.00    +0.000 C 
BRANCH  12  13
ATOM     13  C   UNL     1      45.642   2.247   8.360  0.00  0.00    +0.000 A 
ATOM     14  C   UNL     1      45.766   3.454   7.657  0.00  0.00    +0.000 A 
ATOM     15  C   UNL     1      46.695   3.581   6.623  0.00  0.00    +0.000 A 
ATOM     16  C   UNL     1      47.516   2.506   6.283  0.00  0.00    +0.000 A 
ATOM     17  C   UNL     1      47.406   1.302   6.976  0.00  0.00    +0.000 A 
ATOM     18  C   UNL     1      46.477   1.175   8.010  0.00  0.00    +0.000 A 
ENDBRANCH  12  13
ENDBRANCH  10  12
ENDBRANCH   9  10
ENDBRANCH   6   9
ENDBRANCH   2   3
BRANCH   2  19
ATOM     19  N   UNL     1      47.750   7.344  14.409  0.00  0.00    +0.000 N 
ATOM     20  C   UNL     1      49.046   7.415  14.849  0.00  0.00    +0.000 C 
ATOM     21  O   UNL     1      50.002   7.530  14.089  0.00  0.00    +0.000 OA
ATOM     22  H   UNL     1      47.005   7.423  15.090  0.00  0.00    +0.000 HD
BRANCH  20  23
ATOM     23  C   UNL     1      49.227   7.296  16.302  0.00  0.00    +0.000 A 
ATOM     24  C   UNL     1      49.715   8.366  17.040  0.00  0.00    +0.000 A 
ATOM     25  S   UNL     1      49.878   8.024  18.704  0.00  0.00    +0.000 S 
ATOM     26  C   UNL     1      49.255   6.452  18.502  0.00  0.00    +0.000 A 
ATOM     27  N   UNL     1      49.102   5.615  19.559  0.00  0.00    +0.000 NA
ATOM     28  C   UNL     1      48.590   4.464  19.264  0.00  0.00    +0.000 A 
ATOM     29  N   UNL     1      48.214   4.056  18.002  0.00  0.00    +0.000 N 
ATOM     30  C   UNL     1      47.664   2.738  17.774  0.00  0.00    +0.000 C 
ATOM     31  C   UNL     1      48.385   4.877  16.894  0.00  0.00    +0.000 A 
ATOM     32  O   UNL     1      48.107   4.510  15.754  0.00  0.00    +0.000 OA
ATOM     33  C   UNL     1      48.946   6.186  17.183  0.00  0.00    +0.000 A 
ENDBRANCH  20  23
ENDBRANCH   2  19
TORSDOF 7
ENDMDL
MODEL 2
REMARK VINA RESULT:    -8.429      2.036      3.094
REMARK INTER + INTRA:         -13.438
REMARK INTER:                 -11.878
REMARK INTRA:                  -1.560
REMARK UNBOUND:                -1.560
REMARK  Name = 
REMARK  9 active torsions:
REMARK  status: ('A' for Active; 'I' for Inactive)
REMARK    1  A    between atoms: C_1  and  C_2
REMARK    2  A    between atoms: C_2  and  N_3
REMARK    3  A    between atoms: C_2  and  C_17
REMARK    4  A    between atoms: C_4  and  C_6
REMARK    5  A    between atoms: N_12  and  C_13
REMARK    6  A    between atoms: C_20  and  C_21
REMARK    7  A    between atoms: C_21  and  N_22
REMARK    8  A    between atoms: N_22  and  C_23
REMARK    9  A    between atoms: C_23  and  C_24
REMARK                            x       y       z     vdW  Elec       q    Type
REMARK                         _______ _______ _______ _____ _____    ______ ____
ROOT
ATOM      1  C   UNL     1      48.983   7.619  13.595  0.00  0.00    +0.000 C 
ATOM      2  C   UNL     1      48.370   6.291  14.055  0.00  0.00    +0.000 C 
ENDROOT
BRANCH   2   3
ATOM      3  C   UNL     1      47.144   5.937  13.231  0.00  0.00    +0.000 A 
ATOM      4  C   UNL     1      46.950   6.556  11.989  0.00  0.00    +0.000 A 
ATOM      5  C   UNL     1      45.791   6.321  11.248  0.00  0.00    +0.000 A 
ATOM      6  C   UNL     1      44.800   5.449  11.721  0.00  0.00    +0.000 A 
ATOM      7  C   UNL     1      45.016   4.784  12.935  0.00  0.00    +0.000 A 
ATOM      8  C   UNL     1      46.178   5.021  13.679  0.00  0.00    +0.000 A 
BRANCH   6   9
ATOM      9  C   UNL     1      43.510   5.269  10.955  0.00  0.00    +0.000 C 
BRANCH   9  10
ATOM     10  N   UNL     1      43.751   4.681   9.643  0.00  0.00    +0.000 NA
ATOM     11  H   UNL     1      44.494   5.196   9.173  0.00  0.00    +0.000 HD
BRANCH  10  12
ATOM     12  C   UNL     1      44.137   3.275   9.752  0.00  0.00    +0.000 C 
BRANCH  12  13
ATOM     13  C   UNL     1      45.233   2.938   8.770  0.00  0.00    +0.000 A 
ATOM     14  C   UNL     1      45.693   1.622   8.623  0.00  0.00    +0.000 A 
ATOM     15  C   UNL     1      46.701   1.321   7.706  0.00  0.00    +0.000 A 
ATOM     16  C   UNL     1      47.259   2.330   6.921  0.00  0.00    +0.000 A 
ATOM     17  C   UNL     1      46.808   3.642   7.054  0.00  0.00    +0.000 A 
ATOM     18  C   UNL     1      45.800   3.943   7.970  0.00  0.00    +0.000 A 
ENDBRANCH  12  13
ENDBRANCH  10  12
ENDBRANCH   9  10
ENDBRANCH   6   9
ENDBRANCH   2   3
BRANCH   2  19
ATOM     19  N   UNL     1      48.030   6.343  15.461  0.00  0.00    +0.000 N 
ATOM     20  C   UNL     1      48.941   6.134  16.462  0.00  0.00    +0.000 C 
ATOM     21  O   UNL     1      50.070   5.702  16.255  0.00  0.00    +0.000 OA
ATOM     22  H   UNL     1      47.186   6.858  15.677  0.00  0.00    +0.000 HD
BRANCH  20  23
ATOM     23  C   UNL     1      48.463   6.418  17.821  0.00  0.00    +0.000 A 
ATOM     24  C   UNL     1      48.370   5.402  18.762  0.00  0.00    +0.000 A 
ATOM     25  S   UNL     1      47.770   5.926  20.271  0.00  0.00    +0.000 S 
ATOM     26  C   UNL     1      47.661   7.538  19.733  0.00  0.00    +0.000 A 
ATOM     27  N   UNL     1      47.231   8.526  20.559  0.00  0.00    +0.000 NA
ATOM     28  C   UNL     1      47.227   9.706  20.027  0.00  0.00    +0.000 A 
ATOM     29  N   UNL     1      47.610  10.003  18.736  0.00  0.00    +0.000 N 
ATOM     30  C   UNL     1      47.554  11.358  18.231  0.00  0.00    +0.000 C 
ATOM     31  C   UNL     1      48.026   9.011  17.857  0.00  0.00    +0.000 A 
ATOM     32  O   UNL     1      48.318   9.249  16.687  0.00  0.00    +0.000 OA
ATOM     33  C   UNL     1      48.058   7.671  18.418  0.00  0.00    +0.000 A 
ENDBRANCH  20  23
ENDBRANCH   2  19
TORSDOF 7
ENDMDL
MODEL 3
REMARK VINA RESULT:    -7.559      1.978      3.219
REMARK INTER + INTRA:         -12.213
REMARK INTER:                 -10.900
REMARK INTRA:                  -1.313
REMARK UNBOUND:                -1.560
REMARK  Name = 
REMARK  9 active torsions:
REMARK  status: ('A' for Active; 'I' for Inactive)
REMARK    1  A    between atoms: C_1  and  C_2
REMARK    2  A    between atoms: C_2  and  N_3
REMARK    3  A    between atoms: C_2  and  C_17
REMARK    4  A    between atoms: C_4  and  C_6
REMARK    5  A    between atoms: N_12  and  C_13
REMARK    6  A    between atoms: C_20  and  C_21
REMARK    7  A    between atoms: C_21  and  N_22
REMARK    8  A    between atoms: N_22  and  C_23
REMARK    9  A    between atoms: C_23  and  C_24
REMARK                            x       y       z     vdW  Elec       q    Type
REMARK                         _______ _______ _______ _____ _____    ______ ____
ROOT
ATOM      1  C   UNL     1      48.046   2.899  15.491  0.00  0.00    +0.000 C 
ATOM      2  C   UNL     1      47.113   4.113  15.550  0.00  0.00    +0.000 C 
ENDROOT
BRANCH   2   3
ATOM      3  C   UNL     1      46.665   4.531  14.160  0.00  0.00    +0.000 A 
ATOM      4  C   UNL     1      47.069   5.773  13.653  0.00  0.00    +0.000 A 
ATOM      5  C   UNL     1      46.603   6.226  12.418  0.00  0.00    +0.000 A 
ATOM      6  C   UNL     1      45.731   5.442  11.648  0.00  0.00    +0.000 A 
ATOM      7  C   UNL     1      45.371   4.176  12.124  0.00  0.00    +0.000 A 
ATOM      8  C   UNL     1      45.837   3.723  13.363  0.00  0.00    +0.000 A 
BRANCH   6   9
ATOM      9  C   UNL     1      45.163   5.978  10.354  0.00  0.00    +0.000 C 
BRANCH   9  10
ATOM     10  N   UNL     1      45.804   5.362   9.198  0.00  0.00    +0.000 NA
ATOM     11  H   UNL     1      46.683   4.935   9.487  0.00  0.00    +0.000 HD
BRANCH  10  12
ATOM     12  C   UNL     1      44.949   4.340   8.597  0.00  0.00    +0.000 C 
BRANCH  12  13
ATOM     13  C   UNL     1      45.777   3.248   7.963  0.00  0.00    +0.000 A 
ATOM     14  C   UNL     1      45.782   1.948   8.487  0.00  0.00    +0.000 A 
ATOM     15  C   UNL     1      46.546   0.944   7.888  0.00  0.00    +0.000 A 
ATOM     16  C   UNL     1      47.309   1.226   6.755  0.00  0.00    +0.000 A 
ATOM     17  C   UNL     1      47.310   2.514   6.222  0.00  0.00    +0.000 A 
ATOM     18  C   UNL     1      46.547   3.517   6.821  0.00  0.00    +0.000 A 
ENDBRANCH  12  13
ENDBRANCH  10  12
ENDBRANCH   9  10
ENDBRANCH   6   9
ENDBRANCH   2   3
BRANCH   2  19
ATOM     19  N   UNL     1      47.756   5.223  16.221  0.00  0.00    +0.000 N 
ATOM     20  C   UNL     1      47.637   5.457  17.567  0.00  0.00    +0.000 C 
ATOM     21  O   UNL     1      46.832   4.865  18.276  0.00  0.00    +0.000 OA
ATOM     22  H   UNL     1      48.550   5.617  15.732  0.00  0.00    +0.000 HD
BRANCH  20  23
ATOM     23  C   UNL     1      48.513   6.506  18.105  0.00  0.00    +0.000 A 
ATOM     24  C   UNL     1      47.972   7.621  18.730  0.00  0.00    +0.000 A 
ATOM     25  S   UNL     1      49.149   8.737  19.264  0.00  0.00    +0.000 S 
ATOM     26  C   UNL     1      50.421   7.743  18.721  0.00  0.00    +0.000 A 
ATOM     27  N   UNL     1      51.718   8.106  18.893  0.00  0.00    +0.000 NA
ATOM     28  C   UNL     1      52.579   7.243  18.459  0.00  0.00    +0.000 A 
ATOM     29  N   UNL     1      52.273   6.040  17.860  0.00  0.00    +0.000 N 
ATOM     30  C   UNL     1      53.314   5.149  17.394  0.00  0.00    +0.000 C 
ATOM     31  C   UNL     1      50.957   5.653  17.641  0.00  0.00    +0.000 A 
ATOM     32  O   UNL     1      50.665   4.611  17.059  0.00  0.00    +0.000 OA
ATOM     33  C   UNL     1      49.955   6.588  18.125  0.00  0.00    +0.000 A 
ENDBRANCH  20  23
ENDBRANCH   2  19
TORSDOF 7
ENDMDL
MODEL 4
REMARK VINA RESULT:    -7.510      2.828      8.629
REMARK INTER + INTRA:         -12.144
REMARK INTER:                 -10.320
REMARK INTRA:                  -1.824
REMARK UNBOUND:                -1.560
REMARK  Name = 
REMARK  9 active torsions:
REMARK  status: ('A' for Active; 'I' for Inactive)
REMARK    1  A    between atoms: C_1  and  C_2
REMARK    2  A    between atoms: C_2  and  N_3
REMARK    3  A    between atoms: C_2  and  C_17
REMARK    4  A    between atoms: C_4  and  C_6
REMARK    5  A    between atoms: N_12  and  C_13
REMARK    6  A    between atoms: C_20  and  C_21
REMARK    7  A    between atoms: C_21  and  N_22
REMARK    8  A    between atoms: N_22  and  C_23
REMARK    9  A    between atoms: C_23  and  C_24
REMARK                            x       y       z     vdW  Elec       q    Type
REMARK                         _______ _______ _______ _____ _____    ______ ____
ROOT
ATOM      1  C   UNL     1      48.625   7.790  11.374  0.00  0.00    +0.000 C 
ATOM      2  C   UNL     1      47.520   7.785  12.436  0.00  0.00    +0.000 C 
ENDROOT
BRANCH   2   3
ATOM      3  C   UNL     1      48.102   7.874  13.836  0.00  0.00    +0.000 A 
ATOM      4  C   UNL     1      48.946   6.855  14.294  0.00  0.00    +0.000 A 
ATOM      5  C   UNL     1      49.426   6.859  15.605  0.00  0.00    +0.000 A 
ATOM      6  C   UNL     1      49.087   7.893  16.490  0.00  0.00    +0.000 A 
ATOM      7  C   UNL     1      48.291   8.944  16.019  0.00  0.00    +0.000 A 
ATOM      8  C   UNL     1      47.808   8.938  14.705  0.00  0.00    +0.000 A 
BRANCH   6   9
ATOM      9  C   UNL     1      49.539   7.844  17.931  0.00  0.00    +0.000 C 
BRANCH   9  10
ATOM     10  N   UNL     1      48.430   7.528  18.823  0.00  0.00    +0.000 NA
ATOM     11  H   UNL     1      47.570   7.454  18.281  0.00  0.00    +0.000 HD
BRANCH  10  12
ATOM     12  C   UNL     1      48.659   6.270  19.533  0.00  0.00    +0.000 C 
BRANCH  12  13
ATOM     13  C   UNL     1      48.509   5.090  18.603  0.00  0.00    +0.000 A 
ATOM     14  C   UNL     1      47.288   4.817  17.971  0.00  0.00    +0.000 A 
ATOM     15  C   UNL     1      47.163   3.727  17.108  0.00  0.00    +0.000 A 
ATOM     16  C   UNL     1      48.259   2.901  16.860  0.00  0.00    +0.000 A 
ATOM     17  C   UNL     1      49.481   3.163  17.478  0.00  0.00    +0.000 A 
ATOM     18  C   UNL     1      49.605   4.253  18.342  0.00  0.00    +0.000 A 
ENDBRANCH  12  13
ENDBRANCH  10  12
ENDBRANCH   9  10
ENDBRANCH   6   9
ENDBRANCH   2   3
BRANCH   2  19
ATOM     19  N   UNL     1      46.694   6.602  12.313  0.00  0.00    +0.000 N 
ATOM     20  C   UNL     1      45.466   6.604  11.704  0.00  0.00    +0.000 C 
ATOM     21  O   UNL     1      44.884   7.634  11.384  0.00  0.00    +0.000 OA
ATOM     22  H   UNL     1      47.191   5.724  12.394  0.00  0.00    +0.000 HD
BRANCH  20  23
ATOM     23  C   UNL     1      44.862   5.281  11.498  0.00  0.00    +0.000 A 
ATOM     24  C   UNL     1      44.043   4.723  12.469  0.00  0.00    +0.000 A 
ATOM     25  S   UNL     1      43.459   3.173  12.056  0.00  0.00    +0.000 S 
ATOM     26  C   UNL     1      44.242   3.218  10.544  0.00  0.00    +0.000 A 
ATOM     27  N   UNL     1      44.130   2.190   9.665  0.00  0.00    +0.000 NA
ATOM     28  C   UNL     1      44.753   2.371   8.545  0.00  0.00    +0.000 A 
ATOM     29  N   UNL     1      45.488   3.489   8.210  0.00  0.00    +0.000 N 
ATOM     30  C   UNL     1      46.160   3.587   6.933  0.00  0.00    +0.000 C 
ATOM     31  C   UNL     1      45.646   4.545   9.098  0.00  0.00    +0.000 A 
ATOM     32  O   UNL     1      46.343   5.524   8.839  0.00  0.00    +0.000 OA
ATOM     33  C   UNL     1      44.953   4.388  10.366  0.00  0.00    +0.000 A 
ENDBRANCH  20  23
ENDBRANCH   2  19
TORSDOF 7
ENDMDL
MODEL 5
REMARK VINA RESULT:    -7.427      2.006      3.949
REMARK INTER + INTRA:         -12.026
REMARK INTER:                 -10.613
REMARK INTRA:                  -1.413
REMARK UNBOUND:                -1.560
REMARK  Name = 
REMARK  9 active torsions:
REMARK  status: ('A' for Active; 'I' for Inactive)
REMARK    1  A    between atoms: C_1  and  C_2
REMARK    2  A    between atoms: C_2  and  N_3
REMARK    3  A    between atoms: C_2  and  C_17
REMARK    4  A    between atoms: C_4  and  C_6
REMARK    5  A    between atoms: N_12  and  C_13
REMARK    6  A    between atoms: C_20  and  C_21
REMARK    7  A    between atoms: C_21  and  N_22
REMARK    8  A    between atoms: N_22  and  C_23
REMARK    9  A    between atoms: C_23  and  C_24
REMARK                            x       y       z     vdW  Elec       q    Type
REMARK                         _______ _______ _______ _____ _____    ______ ____
ROOT
ATOM      1  C   UNL     1      47.761   3.295  15.365  0.00  0.00    +0.000 C 
ATOM      2  C   UNL     1      47.115   4.653  15.072  0.00  0.00    +0.000 C 
ENDROOT
BRANCH   2   3
ATOM      3  C   UNL     1      46.278   4.603  13.805  0.00  0.00    +0.000 A 
ATOM      4  C   UNL     1      45.761   5.793  13.277  0.00  0.00    +0.000 A 
ATOM      5  C   UNL     1      44.915   5.774  12.167  0.00  0.00    +0.000 A 
ATOM      6  C   UNL     1      44.575   4.564  11.545  0.00  0.00    +0.000 A 
ATOM      7  C   UNL     1      45.135   3.378  12.034  0.00  0.00    +0.000 A 
ATOM      8  C   UNL     1      45.982   3.398  13.148  0.00  0.00    +0.000 A 
BRANCH   6   9
ATOM      9  C   UNL     1      43.589   4.544  10.400  0.00  0.00    +0.000 C 
BRANCH   9  10
ATOM     10  N   UNL     1      44.023   3.640   9.342  0.00  0.00    +0.000 NA
ATOM     11  H   UNL     1      43.222   3.381   8.768  0.00  0.00    +0.000 HD
BRANCH  10  12
ATOM     12  C   UNL     1      45.040   4.260   8.494  0.00  0.00    +0.000 C 
BRANCH  12  13
ATOM     13  C   UNL     1      45.879   3.213   7.802  0.00  0.00    +0.000 A 
ATOM     14  C   UNL     1      46.584   3.511   6.628  0.00  0.00    +0.000 A 
ATOM     15  C   UNL     1      47.363   2.537   6.000  0.00  0.00    +0.000 A 
ATOM     16  C   UNL     1      47.451   1.255   6.542  0.00  0.00    +0.000 A 
ATOM     17  C   UNL     1      46.758   0.946   7.712  0.00  0.00    +0.000 A 
ATOM     18  C   UNL     1      45.979   1.920   8.338  0.00  0.00    +0.000 A 
ENDBRANCH  12  13
ENDBRANCH  10  12
ENDBRANCH   9  10
ENDBRANCH   6   9
ENDBRANCH   2   3
BRANCH   2  19
ATOM     19  N   UNL     1      48.123   5.687  14.964  0.00  0.00    +0.000 N 
ATOM     20  C   UNL     1      48.735   6.255  16.051  0.00  0.00    +0.000 C 
ATOM     21  O   UNL     1      48.350   6.075  17.201  0.00  0.00    +0.000 OA
ATOM     22  H   UNL     1      48.590   5.737  14.067  0.00  0.00    +0.000 HD
BRANCH  20  23
ATOM     23  C   UNL     1      49.866   7.142  15.747  0.00  0.00    +0.000 A 
ATOM     24  C   UNL     1      51.141   6.835  16.199  0.00  0.00    +0.000 A 
ATOM     25  S   UNL     1      52.313   7.999  15.766  0.00  0.00    +0.000 S 
ATOM     26  C   UNL     1      51.164   8.924  14.917  0.00  0.00    +0.000 A 
ATOM     27  N   UNL     1      51.519  10.065  14.272  0.00  0.00    +0.000 NA
ATOM     28  C   UNL     1      50.550  10.651  13.644  0.00  0.00    +0.000 A 
ATOM     29  N   UNL     1      49.245  10.209  13.597  0.00  0.00    +0.000 N 
ATOM     30  C   UNL     1      48.231  10.947  12.876  0.00  0.00    +0.000 C 
ATOM     31  C   UNL     1      48.843   9.062  14.270  0.00  0.00    +0.000 A 
ATOM     32  O   UNL     1      47.674   8.684  14.285  0.00  0.00    +0.000 OA
ATOM     33  C   UNL     1      49.903   8.366  14.979  0.00  0.00    +0.000 A 
ENDBRANCH  20  23
ENDBRANCH   2  19
TORSDOF 7
ENDMDL
MODEL 6
REMARK VINA RESULT:    -7.406      3.860      5.277
REMARK INTER + INTRA:         -11.996
REMARK INTER:                 -10.524
REMARK INTRA:                  -1.472
REMARK UNBOUND:                -1.560
REMARK  Name = 
REMARK  9 active torsions:
REMARK  status: ('A' for Active; 'I' for Inactive)
REMARK    1  A    between atoms: C_1  and  C_2
REMARK    2  A    between atoms: C_2  and  N_3
REMARK    3  A    between atoms: C_2  and  C_17
REMARK    4  A    between atoms: C_4  and  C_6
REMARK    5  A    between atoms: N_12  and  C_13
REMARK    6  A    between atoms: C_20  and  C_21
REMARK    7  A    between atoms: C_21  and  N_22
REMARK    8  A    between atoms: N_22  and  C_23
REMARK    9  A    between atoms: C_23  and  C_24
REMARK                            x       y       z     vdW  Elec       q    Type
REMARK                         _______ _______ _______ _____ _____    ______ ____
ROOT
ATOM      1  C   UNL     1      48.760   7.355  15.019  0.00  0.00    +0.000 C 
ATOM      2  C   UNL     1      48.563   7.464  13.503  0.00  0.00    +0.000 C 
ENDROOT
BRANCH   2   3
ATOM      3  C   UNL     1      47.538   6.459  13.007  0.00  0.00    +0.000 A 
ATOM      4  C   UNL     1      46.847   6.715  11.816  0.00  0.00    +0.000 A 
ATOM      5  C   UNL     1      45.835   5.858  11.378  0.00  0.00    +0.000 A 
ATOM      6  C   UNL     1      45.497   4.713  12.114  0.00  0.00    +0.000 A 
ATOM      7  C   UNL     1      46.224   4.423  13.275  0.00  0.00    +0.000 A 
ATOM      8  C   UNL     1      47.237   5.283  13.714  0.00  0.00    +0.000 A 
BRANCH   6   9
ATOM      9  C   UNL     1      44.343   3.840  11.680  0.00  0.00    +0.000 C 
BRANCH   9  10
ATOM     10  N   UNL     1      44.812   2.656  10.968  0.00  0.00    +0.000 NA
ATOM     11  H   UNL     1      44.511   1.820  11.467  0.00  0.00    +0.000 HD
BRANCH  10  12
ATOM     12  C   UNL     1      44.290   2.614   9.603  0.00  0.00    +0.000 C 
BRANCH  12  13
ATOM     13  C   UNL     1      45.414   2.583   8.596  0.00  0.00    +0.000 A 
ATOM     14  C   UNL     1      46.072   1.386   8.282  0.00  0.00    +0.000 A 
ATOM     15  C   UNL     1      47.105   1.369   7.343  0.00  0.00    +0.000 A 
ATOM     16  C   UNL     1      47.488   2.547   6.702  0.00  0.00    +0.000 A 
ATOM     17  C   UNL     1      46.838   3.744   7.001  0.00  0.00    +0.000 A 
ATOM     18  C   UNL     1      45.807   3.760   7.940  0.00  0.00    +0.000 A 
ENDBRANCH  12  13
ENDBRANCH  10  12
ENDBRANCH   9  10
ENDBRANCH   6   9
ENDBRANCH   2   3
BRANCH   2  19
ATOM     19  N   UNL     1      49.820   7.279  12.808  0.00  0.00    +0.000 N 
ATOM     20  C   UNL     1      50.241   8.094  11.790  0.00  0.00    +0.000 C 
ATOM     21  O   UNL     1      49.513   8.923  11.257  0.00  0.00    +0.000 OA
ATOM     22  H   UNL     1      50.513   6.743  13.315  0.00  0.00    +0.000 HD
BRANCH  20  23
ATOM     23  C   UNL     1      51.622   7.877  11.338  0.00  0.00    +0.000 A 
ATOM     24  C   UNL     1      51.877   7.379  10.068  0.00  0.00    +0.000 A 
ATOM     25  S   UNL     1      53.539   7.173   9.740  0.00  0.00    +0.000 S 
ATOM     26  C   UNL     1      53.975   7.790  11.266  0.00  0.00    +0.000 A 
ATOM     27  N   UNL     1      55.278   7.911  11.629  0.00  0.00    +0.000 NA
ATOM     28  C   UNL     1      55.463   8.422  12.803  0.00  0.00    +0.000 A 
ATOM     29  N   UNL     1      54.467   8.825  13.666  0.00  0.00    +0.000 N 
ATOM     30  C   UNL     1      54.780   9.372  14.969  0.00  0.00    +0.000 C 
ATOM     31  C   UNL     1      53.124   8.687  13.338  0.00  0.00    +0.000 A 
ATOM     32  O   UNL     1      52.222   8.990  14.116  0.00  0.00    +0.000 OA
ATOM     33  C   UNL     1      52.870   8.129  12.021  0.00  0.00    +0.000 A 
ENDBRANCH  20  23
ENDBRANCH   2  19
TORSDOF 7
ENDMDL
MODEL 7
REMARK VINA RESULT:    -6.822      2.106      2.940
REMARK INTER + INTRA:         -11.173
REMARK INTER:                 -10.558
REMARK INTRA:                  -0.615
REMARK UNBOUND:                -1.560
REMARK  Name = 
REMARK  9 active torsions:
REMARK  status: ('A' for Active; 'I' for Inactive)
REMARK    1  A    between atoms: C_1  and  C_2
REMARK    2  A    between atoms: C_2  and  N_3
REMARK    3  A    between atoms: C_2  and  C_17
REMARK    4  A    between atoms: C_4  and  C_6
REMARK    5  A    between atoms: N_12  and  C_13
REMARK    6  A    between atoms: C_20  and  C_21
REMARK    7  A    between atoms: C_21  and  N_22
REMARK    8  A    between atoms: N_22  and  C_23
REMARK    9  A    between atoms: C_23  and  C_24
REMARK                            x       y       z     vdW  Elec       q    Type
REMARK                         _______ _______ _______ _____ _____    ______ ____
ROOT
ATOM      1  C   UNL     1      45.984   8.847  13.260  0.00  0.00    +0.000 C 
ATOM      2  C   UNL     1      46.811   7.600  12.928  0.00  0.00    +0.000 C 
ENDROOT
BRANCH   2   3
ATOM      3  C   UNL     1      45.915   6.414  12.613  0.00  0.00    +0.000 A 
ATOM      4  C   UNL     1      46.376   5.117  12.877  0.00  0.00    +0.000 A 
ATOM      5  C   UNL     1      45.616   4.003  12.517  0.00  0.00    +0.000 A 
ATOM      6  C   UNL     1      44.368   4.155  11.897  0.00  0.00    +0.000 A 
ATOM      7  C   UNL     1      43.878   5.449  11.685  0.00  0.00    +0.000 A 
ATOM      8  C   UNL     1      44.641   6.566  12.044  0.00  0.00    +0.000 A 
BRANCH   6   9
ATOM      9  C   UNL     1      43.593   2.944  11.432  0.00  0.00    +0.000 C 
BRANCH   9  10
ATOM     10  N   UNL     1      44.263   2.282  10.319  0.00  0.00    +0.000 NA
ATOM     11  H   UNL     1      43.719   1.469  10.032  0.00  0.00    +0.000 HD
BRANCH  10  12
ATOM     12  C   UNL     1      44.416   3.183   9.178  0.00  0.00    +0.000 C 
BRANCH  12  13
ATOM     13  C   UNL     1      45.492   2.689   8.240  0.00  0.00    +0.000 A 
ATOM     14  C   UNL     1      46.023   3.523   7.246  0.00  0.00    +0.000 A 
ATOM     15  C   UNL     1      47.023   3.058   6.390  0.00  0.00    +0.000 A 
ATOM     16  C   UNL     1      47.509   1.757   6.521  0.00  0.00    +0.000 A 
ATOM     17  C   UNL     1      46.992   0.919   7.508  0.00  0.00    +0.000 A 
ATOM     18  C   UNL     1      45.992   1.384   8.363  0.00  0.00    +0.000 A 
ENDBRANCH  12  13
ENDBRANCH  10  12
ENDBRANCH   9  10
ENDBRANCH   6   9
ENDBRANCH   2   3
BRANCH   2  19
ATOM     19  N   UNL     1      47.707   7.274  14.018  0.00  0.00    +0.000 N 
ATOM     20  C   UNL     1      48.699   8.114  14.451  0.00  0.00    +0.000 C 
ATOM     21  O   UNL     1      49.034   9.121  13.836  0.00  0.00    +0.000 OA
ATOM     22  H   UNL     1      47.367   6.562  14.653  0.00  0.00    +0.000 HD
BRANCH  20  23
ATOM     23  C   UNL     1      49.378   7.704  15.687  0.00  0.00    +0.000 A 
ATOM     24  C   UNL     1      48.644   7.380  16.819  0.00  0.00    +0.000 A 
ATOM     25  S   UNL     1      49.613   6.954  18.158  0.00  0.00    +0.000 S 
ATOM     26  C   UNL     1      51.044   7.141  17.255  0.00  0.00    +0.000 A 
ATOM     27  N   UNL     1      52.260   6.903  17.810  0.00  0.00    +0.000 NA
ATOM     28  C   UNL     1      53.259   7.056  17.000  0.00  0.00    +0.000 A 
ATOM     29  N   UNL     1      53.165   7.431  15.677  0.00  0.00    +0.000 N 
ATOM     30  C   UNL     1      54.348   7.590  14.859  0.00  0.00    +0.000 C 
ATOM     31  C   UNL     1      51.939   7.712  15.088  0.00  0.00    +0.000 A 
ATOM     32  O   UNL     1      51.841   8.102  13.927  0.00  0.00    +0.000 OA
ATOM     33  C   UNL     1      50.788   7.541  15.959  0.00  0.00    +0.000 A 
ENDBRANCH  20  23
ENDBRANCH   2  19
TORSDOF 7
ENDMDL
MODEL 8
REMARK VINA RESULT:    -6.708      3.749      5.390
REMARK INTER + INTRA:         -11.012
REMARK INTER:                  -9.755
REMARK INTRA:                  -1.258
REMARK UNBOUND:                -1.560
REMARK  Name = 
REMARK  9 active torsions:
REMARK  status: ('A' for Active; 'I' for Inactive)
REMARK    1  A    between atoms: C_1  and  C_2
REMARK    2  A    between atoms: C_2  and  N_3
REMARK    3  A    between atoms: C_2  and  C_17
REMARK    4  A    between atoms: C_4  and  C_6
REMARK    5  A    between atoms: N_12  and  C_13
REMARK    6  A    between atoms: C_20  and  C_21
REMARK    7  A    between atoms: C_21  and  N_22
REMARK    8  A    between atoms: N_22  and  C_23
REMARK    9  A    between atoms: C_23  and  C_24
REMARK                            x       y       z     vdW  Elec       q    Type
REMARK                         _______ _______ _______ _____ _____    ______ ____
ROOT
ATOM      1  C   UNL     1      48.957   6.697  15.729  0.00  0.00    +0.000 C 
ATOM      2  C   UNL     1      48.893   7.471  14.407  0.00  0.00    +0.000 C 
ENDROOT
BRANCH   2   3
ATOM      3  C   UNL     1      47.869   6.864  13.463  0.00  0.00    +0.000 A 
ATOM      4  C   UNL     1      47.490   7.573  12.316  0.00  0.00    +0.000 A 
ATOM      5  C   UNL     1      46.487   7.087  11.475  0.00  0.00    +0.000 A 
ATOM      6  C   UNL     1      45.846   5.871  11.750  0.00  0.00    +0.000 A 
ATOM      7  C   UNL     1      46.262   5.131  12.864  0.00  0.00    +0.000 A 
ATOM      8  C   UNL     1      47.266   5.620  13.708  0.00  0.00    +0.000 A 
BRANCH   6   9
ATOM      9  C   UNL     1      44.702   5.396  10.884  0.00  0.00    +0.000 C 
BRANCH   9  10
ATOM     10  N   UNL     1      44.994   4.100  10.284  0.00  0.00    +0.000 NA
ATOM     11  H   UNL     1      44.423   3.384  10.730  0.00  0.00    +0.000 HD
BRANCH  10  12
ATOM     12  C   UNL     1      44.721   4.105   8.848  0.00  0.00    +0.000 C 
BRANCH  12  13
ATOM     13  C   UNL     1      45.604   3.116   8.126  0.00  0.00    +0.000 A 
ATOM     14  C   UNL     1      45.704   1.786   8.557  0.00  0.00    +0.000 A 
ATOM     15  C   UNL     1      46.519   0.879   7.877  0.00  0.00    +0.000 A 
ATOM     16  C   UNL     1      47.239   1.288   6.755  0.00  0.00    +0.000 A 
ATOM     17  C   UNL     1      47.145   2.607   6.313  0.00  0.00    +0.000 A 
ATOM     18  C   UNL     1      46.331   3.514   6.993  0.00  0.00    +0.000 A 
ENDBRANCH  12  13
ENDBRANCH  10  12
ENDBRANCH   9  10
ENDBRANCH   6   9
ENDBRANCH   2   3
BRANCH   2  19
ATOM     19  N   UNL     1      50.194   7.512  13.774  0.00  0.00    +0.000 N 
ATOM     20  C   UNL     1      50.888   8.674  13.558  0.00  0.00    +0.000 C 
ATOM     21  O   UNL     1      50.389   9.784  13.708  0.00  0.00    +0.000 OA
ATOM     22  H   UNL     1      50.709   6.640  13.798  0.00  0.00    +0.000 HD
BRANCH  20  23
ATOM     23  C   UNL     1      52.268   8.507  13.085  0.00  0.00    +0.000 A 
ATOM     24  C   UNL     1      53.337   8.741  13.938  0.00  0.00    +0.000 A 
ATOM     25  S   UNL     1      54.859   8.518  13.197  0.00  0.00    +0.000 S 
ATOM     26  C   UNL     1      54.138   8.053  11.726  0.00  0.00    +0.000 A 
ATOM     27  N   UNL     1      54.894   7.698  10.655  0.00  0.00    +0.000 NA
ATOM     28  C   UNL     1      54.214   7.339   9.614  0.00  0.00    +0.000 A 
ATOM     29  N   UNL     1      52.839   7.301   9.530  0.00  0.00    +0.000 N 
ATOM     30  C   UNL     1      52.173   6.898   8.310  0.00  0.00    +0.000 C 
ATOM     31  C   UNL     1      52.037   7.686  10.597  0.00  0.00    +0.000 A 
ATOM     32  O   UNL     1      50.811   7.712  10.523  0.00  0.00    +0.000 OA
ATOM     33  C   UNL     1      52.760   8.086  11.793  0.00  0.00    +0.000 A 
ENDBRANCH  20  23
ENDBRANCH   2  19
TORSDOF 7
ENDMDL
MODEL 9
REMARK VINA RESULT:    -6.701      3.358      8.744
REMARK INTER + INTRA:         -11.004
REMARK INTER:                  -8.405
REMARK INTRA:                  -2.598
REMARK UNBOUND:                -1.560
REMARK  Name = 
REMARK  9 active torsions:
REMARK  status: ('A' for Active; 'I' for Inactive)
REMARK    1  A    between atoms: C_1  and  C_2
REMARK    2  A    between atoms: C_2  and  N_3
REMARK    3  A    between atoms: C_2  and  C_17
REMARK    4  A    between atoms: C_4  and  C_6
REMARK    5  A    between atoms: N_12  and  C_13
REMARK    6  A    between atoms: C_20  and  C_21
REMARK    7  A    between atoms: C_21  and  N_22
REMARK    8  A    between atoms: N_22  and  C_23
REMARK    9  A    between atoms: C_23  and  C_24
REMARK                            x       y       z     vdW  Elec       q    Type
REMARK                         _______ _______ _______ _____ _____    ______ ____
ROOT
ATOM      1  C   UNL     1      47.441   3.252  16.567  0.00  0.00    +0.000 C 
ATOM      2  C   UNL     1      48.082   4.562  16.095  0.00  0.00    +0.000 C 
ENDROOT
BRANCH   2   3
ATOM      3  C   UNL     1      48.513   5.419  17.273  0.00  0.00    +0.000 A 
ATOM      4  C   UNL     1      47.553   5.841  18.202  0.00  0.00    +0.000 A 
ATOM      5  C   UNL     1      47.899   6.703  19.244  0.00  0.00    +0.000 A 
ATOM      6  C   UNL     1      49.218   7.153  19.396  0.00  0.00    +0.000 A 
ATOM      7  C   UNL     1      50.192   6.688  18.504  0.00  0.00    +0.000 A 
ATOM      8  C   UNL     1      49.845   5.825  17.458  0.00  0.00    +0.000 A 
BRANCH   6   9
ATOM      9  C   UNL     1      49.565   8.154  20.474  0.00  0.00    +0.000 C 
BRANCH   9  10
ATOM     10  N   UNL     1      50.283   9.298  19.924  0.00  0.00    +0.000 NA
ATOM     11  H   UNL     1      50.996   8.969  19.274  0.00  0.00    +0.000 HD
BRANCH  10  12
ATOM     12  C   UNL     1      49.379  10.207  19.222  0.00  0.00    +0.000 C 
BRANCH  12  13
ATOM     13  C   UNL     1      49.355   9.911  17.742  0.00  0.00    +0.000 A 
ATOM     14  C   UNL     1      50.528   9.961  16.975  0.00  0.00    +0.000 A 
ATOM     15  C   UNL     1      50.496   9.678  15.609  0.00  0.00    +0.000 A 
ATOM     16  C   UNL     1      49.292   9.336  14.993  0.00  0.00    +0.000 A 
ATOM     17  C   UNL     1      48.119   9.279  15.744  0.00  0.00    +0.000 A 
ATOM     18  C   UNL     1      48.152   9.563  17.110  0.00  0.00    +0.000 A 
ENDBRANCH  12  13
ENDBRANCH  10  12
ENDBRANCH   9  10
ENDBRANCH   6   9
ENDBRANCH   2   3
BRANCH   2  19
ATOM     19  N   UNL     1      47.173   5.301  15.246  0.00  0.00    +0.000 N 
ATOM     20  C   UNL     1      47.550   5.869  14.057  0.00  0.00    +0.000 C 
ATOM     21  O   UNL     1      48.721   5.962  13.706  0.00  0.00    +0.000 OA
ATOM     22  H   UNL     1      46.191   5.103  15.395  0.00  0.00    +0.000 HD
BRANCH  20  23
ATOM     23  C   UNL     1      46.456   6.408  13.239  0.00  0.00    +0.000 A 
ATOM     24  C   UNL     1      46.416   7.758  12.919  0.00  0.00    +0.000 A 
ATOM     25  S   UNL     1      45.055   8.195  11.985  0.00  0.00    +0.000 S 
ATOM     26  C   UNL     1      44.502   6.585  11.935  0.00  0.00    +0.000 A 
ATOM     27  N   UNL     1      43.372   6.252  11.260  0.00  0.00    +0.000 NA
ATOM     28  C   UNL     1      43.086   4.990  11.282  0.00  0.00    +0.000 A 
ATOM     29  N   UNL     1      43.821   4.014  11.920  0.00  0.00    +0.000 N 
ATOM     30  C   UNL     1      43.407   2.628  11.896  0.00  0.00    +0.000 C 
ATOM     31  C   UNL     1      44.966   4.325  12.644  0.00  0.00    +0.000 A 
ATOM     32  O   UNL     1      45.602   3.478  13.265  0.00  0.00    +0.000 OA
ATOM     33  C   UNL     1      45.330   5.732  12.636  0.00  0.00    +0.000 A 
ENDBRANCH  20  23
ENDBRANCH   2  19
TORSDOF 7
ENDMDL
