MODEL 1
REMARK VINA RESULT:    -8.779      0.000      0.000
REMARK INTER + INTRA:         -11.177
REMARK INTER:                 -10.832
REMARK INTRA:                  -0.345
REMARK UNBOUND:                -0.345
REMARK  Name = 
REMARK  4 active torsions:
REMARK  status: ('A' for Active; 'I' for Inactive)
REMARK    1  A    between atoms: C_2  and  C_4
REMARK    2  A    between atoms: C_7  and  C_8
REMARK    3  A    between atoms: C_8  and  N_9
REMARK    4  A    between atoms: C_14  and  C_15
REMARK                            x       y       z     vdW  Elec       q    Type
REMARK                         _______ _______ _______ _____ _____    ______ ____
ROOT
ATOM      1  N   UNL     1      44.551   5.506  11.148  0.00  0.00    +0.000 N 
ATOM      2  C   UNL     1      44.562   6.871  11.288  0.00  0.00    +0.000 A 
ATOM      3  C   UNL     1      45.321   7.178  12.393  0.00  0.00    +0.000 A 
ATOM      4  C   UNL     1      45.804   5.958  12.942  0.00  0.00    +0.000 A 
ATOM      5  C   UNL     1      46.577   5.642  14.079  0.00  0.00    +0.000 A 
ATOM      6  C   UNL     1      46.865   4.298  14.364  0.00  0.00    +0.000 A 
ATOM      7  C   UNL     1      46.407   3.284  13.519  0.00  0.00    +0.000 A 
ATOM      8  C   UNL     1      45.655   3.578  12.378  0.00  0.00    +0.000 A 
ATOM      9  C   UNL     1      45.347   4.924  12.121  0.00  0.00    +0.000 A 
ENDROOT
BRANCH   6  10
ATOM     10  C   UNL     1      47.610   3.898  15.586  0.00  0.00    +0.000 C 
ATOM     11  N   UNL     1      47.541   4.728  16.669  0.00  0.00    +0.000 N 
ATOM     12  O   UNL     1      48.282   2.875  15.624  0.00  0.00    +0.000 OA
ATOM     13  H   UNL     1      47.203   5.678  16.604  0.00  0.00    +0.000 HD
ATOM     14  H   UNL     1      48.137   4.492  17.453  0.00  0.00    +0.000 HD
ENDBRANCH   6  10
BRANCH   1  15
ATOM     15  C   UNL     1      43.791   4.789  10.129  0.00  0.00    +0.000 C 
BRANCH  15  19
ATOM     16  C   UNL     1      46.414   2.481   7.654  0.00  0.00    +0.000 A 
ATOM     17  C   UNL     1      45.566   1.802   8.525  0.00  0.00    +0.000 A 
ATOM     18  C   UNL     1      44.675   2.528   9.316  0.00  0.00    +0.000 A 
ATOM     19  C   UNL     1      44.639   3.922   9.223  0.00  0.00    +0.000 A 
ATOM     20  N   UNL     1      45.464   4.592   8.373  0.00  0.00    +0.000 NA
ATOM     21  C   UNL     1      46.328   3.864   7.618  0.00  0.00    +0.000 A 
BRANCH  16  23
ATOM     22  N   UNL     1      48.510   2.524   6.421  0.00  0.00    +0.000 N 
ATOM     23  C   UNL     1      47.422   1.798   6.818  0.00  0.00    +0.000 C 
ATOM     24  O   UNL     1      47.300   0.620   6.509  0.00  0.00    +0.000 OA
ATOM     25  H   UNL     1      49.228   2.022   5.914  0.00  0.00    +0.000 HD
ATOM     26  H   UNL     1      48.758   3.416   6.825  0.00  0.00    +0.000 HD
ENDBRANCH  16  23
ENDBRANCH  15  19
ENDBRANCH   1  15
TORSDOF 4
ENDMDL
MODEL 2
REMARK VINA RESULT:    -8.431      2.079      2.550
REMARK INTER + INTRA:         -10.748
REMARK INTER:                 -10.178
REMARK INTRA:                  -0.569
REMARK UNBOUND:                -0.345
REMARK  Name = 
REMARK  4 active torsions:
REMARK  status: ('A' for Active; 'I' for Inactive)
REMARK    1  A    between atoms: C_2  and  C_4
REMARK    2  A    between atoms: C_7  and  C_8
REMARK    3  A    between atoms: C_8  and  N_9
REMARK    4  A    between atoms: C_14  and  C_15
REMARK                            x       y       z     vdW  Elec       q    Type
REMARK                         _______ _______ _______ _____ _____    ______ ____
ROOT
ATOM      1  N   UNL     1      44.776   4.975  11.636  0.00  0.00    +0.000 N 
ATOM      2  C   UNL     1      44.355   4.289  12.748  0.00  0.00    +0.000 A 
ATOM      3  C   UNL     1      45.232   4.563  13.772  0.00  0.00    +0.000 A 
ATOM      4  C   UNL     1      46.216   5.460  13.274  0.00  0.00    +0.000 A 
ATOM      5  C   UNL     1      47.372   6.044  13.834  0.00  0.00    +0.000 A 
ATOM      6  C   UNL     1      48.169   6.888  13.045  0.00  0.00    +0.000 A 
ATOM      7  C   UNL     1      47.810   7.163  11.723  0.00  0.00    +0.000 A 
ATOM      8  C   UNL     1      46.659   6.609  11.155  0.00  0.00    +0.000 A 
ATOM      9  C   UNL     1      45.888   5.741  11.945  0.00  0.00    +0.000 A 
ENDROOT
BRANCH   6  10
ATOM     10  C   UNL     1      49.436   7.472  13.555  0.00  0.00    +0.000 C 
ATOM     11  N   UNL     1      50.490   7.550  12.689  0.00  0.00    +0.000 N 
ATOM     12  O   UNL     1      49.549   7.853  14.713  0.00  0.00    +0.000 OA
ATOM     13  H   UNL     1      50.515   7.041  11.816  0.00  0.00    +0.000 HD
ATOM     14  H   UNL     1      51.372   7.853  13.083  0.00  0.00    +0.000 HD
ENDBRANCH   6  10
BRANCH   1  15
ATOM     15  C   UNL     1      44.144   4.883  10.324  0.00  0.00    +0.000 C 
BRANCH  15  19
ATOM     16  C   UNL     1      46.433   2.467   7.630  0.00  0.00    +0.000 A 
ATOM     17  C   UNL     1      45.681   1.826   8.611  0.00  0.00    +0.000 A 
ATOM     18  C   UNL     1      44.897   2.588   9.479  0.00  0.00    +0.000 A 
ATOM     19  C   UNL     1      44.870   3.979   9.351  0.00  0.00    +0.000 A 
ATOM     20  N   UNL     1      45.601   4.612   8.394  0.00  0.00    +0.000 NA
ATOM     21  C   UNL     1      46.362   3.850   7.565  0.00  0.00    +0.000 A 
BRANCH  16  23
ATOM     22  N   UNL     1      48.366   2.445   6.155  0.00  0.00    +0.000 N 
ATOM     23  C   UNL     1      47.328   1.745   6.704  0.00  0.00    +0.000 C 
ATOM     24  O   UNL     1      47.161   0.559   6.452  0.00  0.00    +0.000 OA
ATOM     25  H   UNL     1      49.015   1.919   5.583  0.00  0.00    +0.000 HD
ATOM     26  H   UNL     1      48.668   3.347   6.496  0.00  0.00    +0.000 HD
ENDBRANCH  16  23
ENDBRANCH  15  19
ENDBRANCH   1  15
TORSDOF 4
ENDMDL
MODEL 3
REMARK VINA RESULT:    -7.966      2.459      6.986
REMARK INTER + INTRA:         -10.173
REMARK INTER:                  -9.710
REMARK INTRA:                  -0.464
REMARK UNBOUND:                -0.345
REMARK  Name = 
REMARK  4 active torsions:
REMARK  status: ('A' for Active; 'I' for Inactive)
REMARK    1  A    between atoms: C_2  and  C_4
REMARK    2  A    between atoms: C_7  and  C_8
REMARK    3  A    between atoms: C_8  and  N_9
REMARK    4  A    between atoms: C_14  and  C_15
REMARK                            x       y       z     vdW  Elec       q    Type
REMARK                         _______ _______ _______ _____ _____    ______ ____
ROOT
ATOM      1  N   UNL     1      44.000   4.323  10.609  0.00  0.00    +0.000 N 
ATOM      2  C   UNL     1      43.510   3.189  11.206  0.00  0.00    +0.000 A 
ATOM      3  C   UNL     1      44.049   2.102  10.558  0.00  0.00    +0.000 A 
ATOM      4  C   UNL     1      44.913   2.587   9.538  0.00  0.00    +0.000 A 
ATOM      5  C   UNL     1      45.690   1.960   8.542  0.00  0.00    +0.000 A 
ATOM      6  C   UNL     1      46.430   2.749   7.647  0.00  0.00    +0.000 A 
ATOM      7  C   UNL     1      46.412   4.142   7.754  0.00  0.00    +0.000 A 
ATOM      8  C   UNL     1      45.663   4.781   8.745  0.00  0.00    +0.000 A 
ATOM      9  C   UNL     1      44.903   3.983   9.615  0.00  0.00    +0.000 A 
ENDROOT
BRANCH   6  10
ATOM     10  C   UNL     1      47.206   2.149   6.531  0.00  0.00    +0.000 C 
ATOM     11  N   UNL     1      47.342   2.885   5.387  0.00  0.00    +0.000 N 
ATOM     12  O   UNL     1      47.693   1.028   6.615  0.00  0.00    +0.000 OA
ATOM     13  H   UNL     1      46.768   3.693   5.191  0.00  0.00    +0.000 HD
ATOM     14  H   UNL     1      47.783   2.418   4.605  0.00  0.00    +0.000 HD
ENDBRANCH   6  10
BRANCH   1  15
ATOM     15  C   UNL     1      43.603   5.681  10.969  0.00  0.00    +0.000 C 
BRANCH  15  19
ATOM     16  C   UNL     1      46.505   8.120  12.961  0.00  0.00    +0.000 A 
ATOM     17  C   UNL     1      46.592   6.738  13.113  0.00  0.00    +0.000 A 
ATOM     18  C   UNL     1      45.681   5.919  12.445  0.00  0.00    +0.000 A 
ATOM     19  C   UNL     1      44.700   6.489  11.630  0.00  0.00    +0.000 A 
ATOM     20  N   UNL     1      44.610   7.838  11.475  0.00  0.00    +0.000 NA
ATOM     21  C   UNL     1      45.503   8.616  12.141  0.00  0.00    +0.000 A 
BRANCH  16  23
ATOM     22  N   UNL     1      47.425   8.999  15.033  0.00  0.00    +0.000 N 
ATOM     23  C   UNL     1      47.393   9.064  13.668  0.00  0.00    +0.000 C 
ATOM     24  O   UNL     1      48.092   9.861  13.056  0.00  0.00    +0.000 OA
ATOM     25  H   UNL     1      48.095   9.598  15.499  0.00  0.00    +0.000 HD
ATOM     26  H   UNL     1      47.042   8.227  15.560  0.00  0.00    +0.000 HD
ENDBRANCH  16  23
ENDBRANCH  15  19
ENDBRANCH   1  15
TORSDOF 4
ENDMDL
MODEL 4
REMARK VINA RESULT:    -7.693      2.627      3.609
REMARK INTER + INTRA:          -9.836
REMARK INTER:                  -9.384
REMARK INTRA:                  -0.452
REMARK UNBOUND:                -0.345
REMARK  Name = 
REMARK  4 active torsions:
REMARK  status: ('A' for Active; 'I' for Inactive)
REMARK    1  A    between atoms: C_2  and  C_4
REMARK    2  A    between atoms: C_7  and  C_8
REMARK    3  A    between atoms: C_8  and  N_9
REMARK    4  A    between atoms: C_14  and  C_15
REMARK                            x       y       z     vdW  Elec       q    Type
REMARK                         _______ _______ _______ _____ _____    ______ ____
ROOT
ATOM      1  N   UNL     1      44.831   3.873  11.646  0.00  0.00    +0.000 N 
ATOM      2  C   UNL     1      45.474   3.327  12.728  0.00  0.00    +0.000 A 
ATOM      3  C   UNL     1      45.916   4.359  13.523  0.00  0.00    +0.000 A 
ATOM      4  C   UNL     1      45.517   5.580  12.914  0.00  0.00    +0.000 A 
ATOM      5  C   UNL     1      45.720   6.938  13.235  0.00  0.00    +0.000 A 
ATOM      6  C   UNL     1      45.203   7.931  12.388  0.00  0.00    +0.000 A 
ATOM      7  C   UNL     1      44.477   7.576  11.247  0.00  0.00    +0.000 A 
ATOM      8  C   UNL     1      44.250   6.237  10.922  0.00  0.00    +0.000 A 
ATOM      9  C   UNL     1      44.799   5.253  11.761  0.00  0.00    +0.000 A 
ENDROOT
BRANCH   6  10
ATOM     10  C   UNL     1      45.448   9.376  12.632  0.00  0.00    +0.000 C 
ATOM     11  N   UNL     1      46.670   9.736  13.126  0.00  0.00    +0.000 N 
ATOM     12  O   UNL     1      44.585  10.220  12.422  0.00  0.00    +0.000 OA
ATOM     13  H   UNL     1      47.311   9.067  13.530  0.00  0.00    +0.000 HD
ATOM     14  H   UNL     1      46.780  10.709  13.383  0.00  0.00    +0.000 HD
ENDBRANCH   6  10
BRANCH   1  15
ATOM     15  C   UNL     1      44.284   3.099  10.536  0.00  0.00    +0.000 C 
BRANCH  15  19
ATOM     16  C   UNL     1      46.733   2.608   7.058  0.00  0.00    +0.000 A 
ATOM     17  C   UNL     1      46.231   3.876   7.334  0.00  0.00    +0.000 A 
ATOM     18  C   UNL     1      45.460   4.072   8.481  0.00  0.00    +0.000 A 
ATOM     19  C   UNL     1      45.207   2.999   9.340  0.00  0.00    +0.000 A 
ATOM     20  N   UNL     1      45.696   1.757   9.077  0.00  0.00    +0.000 NA
ATOM     21  C   UNL     1      46.437   1.589   7.950  0.00  0.00    +0.000 A 
BRANCH  16  23
ATOM     22  N   UNL     1      47.296   3.074   4.739  0.00  0.00    +0.000 N 
ATOM     23  C   UNL     1      47.514   2.299   5.843  0.00  0.00    +0.000 C 
ATOM     24  O   UNL     1      48.342   1.397   5.830  0.00  0.00    +0.000 OA
ATOM     25  H   UNL     1      47.893   2.901   3.939  0.00  0.00    +0.000 HD
ATOM     26  H   UNL     1      46.795   3.951   4.767  0.00  0.00    +0.000 HD
ENDBRANCH  16  23
ENDBRANCH  15  19
ENDBRANCH   1  15
TORSDOF 4
ENDMDL
MODEL 5
REMARK VINA RESULT:    -6.706      3.038      7.724
REMARK INTER + INTRA:          -8.619
REMARK INTER:                  -8.345
REMARK INTRA:                  -0.274
REMARK UNBOUND:                -0.345
REMARK  Name = 
REMARK  4 active torsions:
REMARK  status: ('A' for Active; 'I' for Inactive)
REMARK    1  A    between atoms: C_2  and  C_4
REMARK    2  A    between atoms: C_7  and  C_8
REMARK    3  A    between atoms: C_8  and  N_9
REMARK    4  A    between atoms: C_14  and  C_15
REMARK                            x       y       z     vdW  Elec       q    Type
REMARK                         _______ _______ _______ _____ _____    ______ ____
ROOT
ATOM      1  N   UNL     1      47.349   5.268  15.016  0.00  0.00    +0.000 N 
ATOM      2  C   UNL     1      48.309   6.242  14.906  0.00  0.00    +0.000 A 
ATOM      3  C   UNL     1      48.273   6.730  13.621  0.00  0.00    +0.000 A 
ATOM      4  C   UNL     1      47.244   6.041  12.923  0.00  0.00    +0.000 A 
ATOM      5  C   UNL     1      46.779   6.078  11.591  0.00  0.00    +0.000 A 
ATOM      6  C   UNL     1      45.734   5.225  11.203  0.00  0.00    +0.000 A 
ATOM      7  C   UNL     1      45.145   4.363  12.131  0.00  0.00    +0.000 A 
ATOM      8  C   UNL     1      45.579   4.325  13.459  0.00  0.00    +0.000 A 
ATOM      9  C   UNL     1      46.646   5.159  13.827  0.00  0.00    +0.000 A 
ENDROOT
BRANCH   6  10
ATOM     10  C   UNL     1      45.252   5.164   9.798  0.00  0.00    +0.000 C 
ATOM     11  N   UNL     1      43.938   4.852   9.592  0.00  0.00    +0.000 N 
ATOM     12  O   UNL     1      46.003   5.364   8.851  0.00  0.00    +0.000 OA
ATOM     13  H   UNL     1      43.355   4.454  10.315  0.00  0.00    +0.000 HD
ATOM     14  H   UNL     1      43.656   4.713   8.630  0.00  0.00    +0.000 HD
ENDBRANCH   6  10
BRANCH   1  15
ATOM     15  C   UNL     1      47.127   4.461  16.212  0.00  0.00    +0.000 C 
BRANCH  15  19
ATOM     16  C   UNL     1      50.709   2.440  17.404  0.00  0.00    +0.000 A 
ATOM     17  C   UNL     1      50.507   3.741  17.856  0.00  0.00    +0.000 A 
ATOM     18  C   UNL     1      49.331   4.410  17.513  0.00  0.00    +0.000 A 
ATOM     19  C   UNL     1      48.370   3.768  16.728  0.00  0.00    +0.000 A 
ATOM     20  N   UNL     1      48.560   2.496  16.283  0.00  0.00    +0.000 NA
ATOM     21  C   UNL     1      49.716   1.868  16.623  0.00  0.00    +0.000 A 
BRANCH  16  23
ATOM     22  N   UNL     1      51.810   0.360  18.015  0.00  0.00    +0.000 N 
ATOM     23  C   UNL     1      51.943   1.677  17.675  0.00  0.00    +0.000 C 
ATOM     24  O   UNL     1      53.047   2.198  17.580  0.00  0.00    +0.000 OA
ATOM     25  H   UNL     1      52.667  -0.169  18.123  0.00  0.00    +0.000 HD
ATOM     26  H   UNL     1      50.952  -0.159  17.894  0.00  0.00    +0.000 HD
ENDBRANCH  16  23
ENDBRANCH  15  19
ENDBRANCH   1  15
TORSDOF 4
ENDMDL
MODEL 6
REMARK VINA RESULT:    -6.480      2.698      3.724
REMARK INTER + INTRA:          -8.340
REMARK INTER:                  -7.765
REMARK INTRA:                  -0.575
REMARK UNBOUND:                -0.345
REMARK  Name = 
REMARK  4 active torsions:
REMARK  status: ('A' for Active; 'I' for Inactive)
REMARK    1  A    between atoms: C_2  and  C_4
REMARK    2  A    between atoms: C_7  and  C_8
REMARK    3  A    between atoms: C_8  and  N_9
REMARK    4  A    between atoms: C_14  and  C_15
REMARK                            x       y       z     vdW  Elec       q    Type
REMARK                         _______ _______ _______ _____ _____    ______ ____
ROOT
ATOM      1  N   UNL     1      45.333   5.134  12.268  0.00  0.00    +0.000 N 
ATOM      2  C   UNL     1      45.918   4.381  13.255  0.00  0.00    +0.000 A 
ATOM      3  C   UNL     1      46.772   5.197  13.959  0.00  0.00    +0.000 A 
ATOM      4  C   UNL     1      46.697   6.499  13.393  0.00  0.00    +0.000 A 
ATOM      5  C   UNL     1      47.364   7.714  13.657  0.00  0.00    +0.000 A 
ATOM      6  C   UNL     1      47.072   8.843  12.875  0.00  0.00    +0.000 A 
ATOM      7  C   UNL     1      46.116   8.769  11.859  0.00  0.00    +0.000 A 
ATOM      8  C   UNL     1      45.432   7.580  11.594  0.00  0.00    +0.000 A 
ATOM      9  C   UNL     1      45.756   6.450  12.362  0.00  0.00    +0.000 A 
ENDROOT
BRANCH   6  10
ATOM     10  C   UNL     1      47.794  10.129  13.056  0.00  0.00    +0.000 C 
ATOM     11  N   UNL     1      47.134  11.278  12.721  0.00  0.00    +0.000 N 
ATOM     12  O   UNL     1      48.947  10.168  13.468  0.00  0.00    +0.000 OA
ATOM     13  H   UNL     1      46.290  11.277  12.165  0.00  0.00    +0.000 HD
ATOM     14  H   UNL     1      47.677  12.132  12.752  0.00  0.00    +0.000 HD
ENDBRANCH   6  10
BRANCH   1  15
ATOM     15  C   UNL     1      44.416   4.604  11.263  0.00  0.00    +0.000 C 
BRANCH  15  19
ATOM     16  C   UNL     1      46.122   2.885   7.732  0.00  0.00    +0.000 A 
ATOM     17  C   UNL     1      46.172   4.269   7.880  0.00  0.00    +0.000 A 
ATOM     18  C   UNL     1      45.656   4.852   9.038  0.00  0.00    +0.000 A 
ATOM     19  C   UNL     1      45.102   4.045  10.035  0.00  0.00    +0.000 A 
ATOM     20  N   UNL     1      45.051   2.692   9.898  0.00  0.00    +0.000 NA
ATOM     21  C   UNL     1      45.553   2.148   8.758  0.00  0.00    +0.000 A 
BRANCH  16  23
ATOM     22  N   UNL     1      47.050   0.907   6.664  0.00  0.00    +0.000 N 
ATOM     23  C   UNL     1      46.597   2.188   6.520  0.00  0.00    +0.000 C 
ATOM     24  O   UNL     1      46.566   2.729   5.422  0.00  0.00    +0.000 OA
ATOM     25  H   UNL     1      47.299   0.417   5.814  0.00  0.00    +0.000 HD
ATOM     26  H   UNL     1      46.891   0.354   7.494  0.00  0.00    +0.000 HD
ENDBRANCH  16  23
ENDBRANCH  15  19
ENDBRANCH   1  15
TORSDOF 4
ENDMDL
MODEL 7
REMARK VINA RESULT:    -6.392      3.333      8.128
REMARK INTER + INTRA:          -8.232
REMARK INTER:                  -7.763
REMARK INTRA:                  -0.469
REMARK UNBOUND:                -0.345
REMARK  Name = 
REMARK  4 active torsions:
REMARK  status: ('A' for Active; 'I' for Inactive)
REMARK    1  A    between atoms: C_2  and  C_4
REMARK    2  A    between atoms: C_7  and  C_8
REMARK    3  A    between atoms: C_8  and  N_9
REMARK    4  A    between atoms: C_14  and  C_15
REMARK                            x       y       z     vdW  Elec       q    Type
REMARK                         _______ _______ _______ _____ _____    ______ ____
ROOT
ATOM      1  N   UNL     1      47.522   7.338  13.671  0.00  0.00    +0.000 N 
ATOM      2  C   UNL     1      47.066   8.625  13.527  0.00  0.00    +0.000 A 
ATOM      3  C   UNL     1      45.912   8.584  12.779  0.00  0.00    +0.000 A 
ATOM      4  C   UNL     1      45.644   7.224  12.466  0.00  0.00    +0.000 A 
ATOM      5  C   UNL     1      44.648   6.580  11.702  0.00  0.00    +0.000 A 
ATOM      6  C   UNL     1      44.682   5.183  11.562  0.00  0.00    +0.000 A 
ATOM      7  C   UNL     1      45.682   4.436  12.189  0.00  0.00    +0.000 A 
ATOM      8  C   UNL     1      46.667   5.054  12.965  0.00  0.00    +0.000 A 
ATOM      9  C   UNL     1      46.640   6.454  13.071  0.00  0.00    +0.000 A 
ENDROOT
BRANCH   6  10
ATOM     10  C   UNL     1      43.706   4.457  10.710  0.00  0.00    +0.000 C 
ATOM     11  N   UNL     1      43.783   4.643   9.358  0.00  0.00    +0.000 N 
ATOM     12  O   UNL     1      42.844   3.731  11.192  0.00  0.00    +0.000 OA
ATOM     13  H   UNL     1      44.309   5.400   8.944  0.00  0.00    +0.000 HD
ATOM     14  H   UNL     1      43.046   4.224   8.805  0.00  0.00    +0.000 HD
ENDBRANCH   6  10
BRANCH   1  15
ATOM     15  C   UNL     1      48.765   6.976  14.344  0.00  0.00    +0.000 C 
BRANCH  15  19
ATOM     16  C   UNL     1      48.463   5.611  18.391  0.00  0.00    +0.000 A 
ATOM     17  C   UNL     1      48.637   6.975  18.168  0.00  0.00    +0.000 A 
ATOM     18  C   UNL     1      48.701   7.451  16.858  0.00  0.00    +0.000 A 
ATOM     19  C   UNL     1      48.586   6.559  15.788  0.00  0.00    +0.000 A 
ATOM     20  N   UNL     1      48.415   5.226  15.998  0.00  0.00    +0.000 NA
ATOM     21  C   UNL     1      48.362   4.785  17.283  0.00  0.00    +0.000 A 
BRANCH  16  23
ATOM     22  N   UNL     1      48.537   3.655  19.834  0.00  0.00    +0.000 N 
ATOM     23  C   UNL     1      48.435   5.015  19.741  0.00  0.00    +0.000 C 
ATOM     24  O   UNL     1      48.344   5.712  20.744  0.00  0.00    +0.000 OA
ATOM     25  H   UNL     1      48.593   3.267  20.767  0.00  0.00    +0.000 HD
ATOM     26  H   UNL     1      48.829   3.068  19.065  0.00  0.00    +0.000 HD
ENDBRANCH  16  23
ENDBRANCH  15  19
ENDBRANCH   1  15
TORSDOF 4
ENDMDL
MODEL 8
REMARK VINA RESULT:    -6.037      4.675      6.779
REMARK INTER + INTRA:          -7.793
REMARK INTER:                  -7.235
REMARK INTRA:                  -0.558
REMARK UNBOUND:                -0.345
REMARK  Name = 
REMARK  4 active torsions:
REMARK  status: ('A' for Active; 'I' for Inactive)
REMARK    1  A    between atoms: C_2  and  C_4
REMARK    2  A    between atoms: C_7  and  C_8
REMARK    3  A    between atoms: C_8  and  N_9
REMARK    4  A    between atoms: C_14  and  C_15
REMARK                            x       y       z     vdW  Elec       q    Type
REMARK                         _______ _______ _______ _____ _____    ______ ____
ROOT
ATOM      1  N   UNL     1      47.361   6.615  13.472  0.00  0.00    +0.000 N 
ATOM      2  C   UNL     1      47.698   5.933  14.615  0.00  0.00    +0.000 A 
ATOM      3  C   UNL     1      47.109   4.692  14.556  0.00  0.00    +0.000 A 
ATOM      4  C   UNL     1      46.399   4.604  13.327  0.00  0.00    +0.000 A 
ATOM      5  C   UNL     1      45.581   3.612  12.745  0.00  0.00    +0.000 A 
ATOM      6  C   UNL     1      44.989   3.854  11.496  0.00  0.00    +0.000 A 
ATOM      7  C   UNL     1      45.223   5.058  10.826  0.00  0.00    +0.000 A 
ATOM      8  C   UNL     1      46.044   6.045  11.377  0.00  0.00    +0.000 A 
ATOM      9  C   UNL     1      46.606   5.804  12.641  0.00  0.00    +0.000 A 
ENDROOT
BRANCH   6  10
ATOM     10  C   UNL     1      44.059   2.881  10.867  0.00  0.00    +0.000 C 
ATOM     11  N   UNL     1      44.499   2.207   9.764  0.00  0.00    +0.000 N 
ATOM     12  O   UNL     1      42.928   2.698  11.302  0.00  0.00    +0.000 OA
ATOM     13  H   UNL     1      45.315   2.494   9.241  0.00  0.00    +0.000 HD
ATOM     14  H   UNL     1      43.816   1.628   9.290  0.00  0.00    +0.000 HD
ENDBRANCH   6  10
BRANCH   1  15
ATOM     15  C   UNL     1      47.737   7.999  13.198  0.00  0.00    +0.000 C 
BRANCH  15  19
ATOM     16  C   UNL     1      51.842   8.327  12.026  0.00  0.00    +0.000 A 
ATOM     17  C   UNL     1      50.936   7.806  11.107  0.00  0.00    +0.000 A 
ATOM     18  C   UNL     1      49.586   7.722  11.450  0.00  0.00    +0.000 A 
ATOM     19  C   UNL     1      49.158   8.165  12.704  0.00  0.00    +0.000 A 
ATOM     20  N   UNL     1      50.037   8.677  13.607  0.00  0.00    +0.000 NA
ATOM     21  C   UNL     1      51.348   8.742  13.253  0.00  0.00    +0.000 A 
BRANCH  16  23
ATOM     22  N   UNL     1      53.932   7.257  11.393  0.00  0.00    +0.000 N 
ATOM     23  C   UNL     1      53.294   8.406  11.768  0.00  0.00    +0.000 C 
ATOM     24  O   UNL     1      53.901   9.465  11.865  0.00  0.00    +0.000 OA
ATOM     25  H   UNL     1      54.910   7.343  11.145  0.00  0.00    +0.000 HD
ATOM     26  H   UNL     1      53.444   6.426  11.093  0.00  0.00    +0.000 HD
ENDBRANCH  16  23
ENDBRANCH  15  19
ENDBRANCH   1  15
TORSDOF 4
ENDMDL
MODEL 9
REMARK VINA RESULT:    -6.011      4.359      6.380
REMARK INTER + INTRA:          -7.761
REMARK INTER:                  -7.276
REMARK INTRA:                  -0.485
REMARK UNBOUND:                -0.345
REMARK  Name = 
REMARK  4 active torsions:
REMARK  status: ('A' for Active; 'I' for Inactive)
REMARK    1  A    between atoms: C_2  and  C_4
REMARK    2  A    between atoms: C_7  and  C_8
REMARK    3  A    between atoms: C_8  and  N_9
REMARK    4  A    between atoms: C_14  and  C_15
REMARK                            x       y       z     vdW  Elec       q    Type
REMARK                         _______ _______ _______ _____ _____    ______ ____
ROOT
ATOM      1  N   UNL     1      46.161   8.130  12.865  0.00  0.00    +0.000 N 
ATOM      2  C   UNL     1      45.433   8.993  12.085  0.00  0.00    +0.000 A 
ATOM      3  C   UNL     1      44.518   8.253  11.374  0.00  0.00    +0.000 A 
ATOM      4  C   UNL     1      44.681   6.889  11.742  0.00  0.00    +0.000 A 
ATOM      5  C   UNL     1      44.071   5.689  11.320  0.00  0.00    +0.000 A 
ATOM      6  C   UNL     1      44.491   4.471  11.878  0.00  0.00    +0.000 A 
ATOM      7  C   UNL     1      45.490   4.449  12.855  0.00  0.00    +0.000 A 
ATOM      8  C   UNL     1      46.093   5.629  13.299  0.00  0.00    +0.000 A 
ATOM      9  C   UNL     1      45.686   6.838  12.711  0.00  0.00    +0.000 A 
ENDROOT
BRANCH   6  10
ATOM     10  C   UNL     1      43.941   3.168  11.420  0.00  0.00    +0.000 C 
ATOM     11  N   UNL     1      43.662   2.230  12.373  0.00  0.00    +0.000 N 
ATOM     12  O   UNL     1      43.761   2.926  10.233  0.00  0.00    +0.000 OA
ATOM     13  H   UNL     1      44.011   2.296  13.319  0.00  0.00    +0.000 HD
ATOM     14  H   UNL     1      43.388   1.316  12.035  0.00  0.00    +0.000 HD
ENDBRANCH   6  10
BRANCH   1  15
ATOM     15  C   UNL     1      47.280   8.530  13.712  0.00  0.00    +0.000 C 
BRANCH  15  19
ATOM     16  C   UNL     1      51.186   8.323  11.969  0.00  0.00    +0.000 A 
ATOM     17  C   UNL     1      50.121   7.768  11.264  0.00  0.00    +0.000 A 
ATOM     18  C   UNL     1      48.832   7.854  11.792  0.00  0.00    +0.000 A 
ATOM     19  C   UNL     1      48.623   8.498  13.014  0.00  0.00    +0.000 A 
ATOM     20  N   UNL     1      49.659   9.044  13.708  0.00  0.00    +0.000 NA
ATOM     21  C   UNL     1      50.906   8.941  13.178  0.00  0.00    +0.000 A 
BRANCH  16  23
ATOM     22  N   UNL     1      53.513   7.761  12.398  0.00  0.00    +0.000 N 
ATOM     23  C   UNL     1      52.587   8.233  11.511  0.00  0.00    +0.000 C 
ATOM     24  O   UNL     1      52.905   8.550  10.372  0.00  0.00    +0.000 OA
ATOM     25  H   UNL     1      54.453   7.633  12.046  0.00  0.00    +0.000 HD
ATOM     26  H   UNL     1      53.266   7.290  13.257  0.00  0.00    +0.000 HD
ENDBRANCH  16  23
ENDBRANCH  15  19
ENDBRANCH   1  15
TORSDOF 4
ENDMDL
