MODEL 1
REMARK VINA RESULT:    -7.317      0.000      0.000
REMARK INTER + INTRA:          -9.328
REMARK INTER:                  -9.029
REMARK INTRA:                  -0.300
REMARK UNBOUND:                -0.300
REMARK  Name = 
REMARK  4 active torsions:
REMARK  status: ('A' for Active; 'I' for Inactive)
REMARK    1  A    between atoms: C_2  and  C_3
REMARK    2  A    between atoms: C_6  and  N_7
REMARK    3  A    between atoms: N_7  and  C_8
REMARK    4  A    between atoms: C_8  and  C_9
REMARK                            x       y       z     vdW  Elec       q    Type
REMARK                         _______ _______ _______ _____ _____    ______ ____
ROOT
ATOM      1  N   UNL     1      43.765   3.869  10.224  0.00  0.00    +0.000 N 
ATOM      2  H   UNL     1      43.295   3.017  10.524  0.00  0.00    +0.000 HD
ENDROOT
BRANCH   1   6
ATOM      3  C   UNL     1      46.598   2.589   7.533  0.00  0.00    +0.000 A 
ATOM      4  C   UNL     1      45.975   1.734   8.422  0.00  0.00    +0.000 A 
ATOM      5  N   UNL     1      45.064   2.164   9.336  0.00  0.00    +0.000 NA
ATOM      6  C   UNL     1      44.784   3.486   9.352  0.00  0.00    +0.000 A 
ATOM      7  C   UNL     1      45.432   4.340   8.458  0.00  0.00    +0.000 A 
ATOM      8  N   UNL     1      46.349   3.921   7.537  0.00  0.00    +0.000 NA
BRANCH   3  10
ATOM      9  N   UNL     1      48.256   1.647   5.774  0.00  0.00    +0.000 NA
ATOM     10  C   UNL     1      47.507   2.085   6.541  0.00  0.00    +0.000 C 
ENDBRANCH   3  10
ENDBRANCH   1   6
BRANCH   1  11
ATOM     11  C   UNL     1      43.885   4.909  11.266  0.00  0.00    +0.000 C 
ATOM     12  C   UNL     1      42.645   5.058  12.151  0.00  0.00    +0.000 C 
ATOM     13  C   UNL     1      43.056   6.182  11.260  0.00  0.00    +0.000 C 
BRANCH  11  14
ATOM     14  C   UNL     1      45.232   4.989  12.010  0.00  0.00    +0.000 A 
ATOM     15  C   UNL     1      46.091   6.069  11.793  0.00  0.00    +0.000 A 
ATOM     16  C   UNL     1      47.120   6.324  12.697  0.00  0.00    +0.000 A 
ATOM     17  C   UNL     1      47.299   5.473  13.779  0.00  0.00    +0.000 A 
ATOM     18  C   UNL     1      46.475   4.369  13.879  0.00  0.00    +0.000 A 
ATOM     19  N   UNL     1      45.465   4.106  13.021  0.00  0.00    +0.000 NA
ENDBRANCH  11  14
ENDBRANCH   1  11
TORSDOF 4
ENDMDL
MODEL 2
REMARK VINA RESULT:    -6.309      1.887      5.988
REMARK INTER + INTRA:          -8.084
REMARK INTER:                  -7.791
REMARK INTRA:                  -0.293
REMARK UNBOUND:                -0.300
REMARK  Name = 
REMARK  4 active torsions:
REMARK  status: ('A' for Active; 'I' for Inactive)
REMARK    1  A    between atoms: C_2  and  C_3
REMARK    2  A    between atoms: C_6  and  N_7
REMARK    3  A    between atoms: N_7  and  C_8
REMARK    4  A    between atoms: C_8  and  C_9
REMARK                            x       y       z     vdW  Elec       q    Type
REMARK                         _______ _______ _______ _____ _____    ______ ____
ROOT
ATOM      1  N   UNL     1      45.627   5.357  11.679  0.00  0.00    +0.000 N 
ATOM      2  H   UNL     1      46.315   5.776  11.054  0.00  0.00    +0.000 HD
ENDROOT
BRANCH   1   6
ATOM      3  C   UNL     1      47.467   4.209  15.173  0.00  0.00    +0.000 A 
ATOM      4  C   UNL     1      47.243   5.533  14.849  0.00  0.00    +0.000 A 
ATOM      5  N   UNL     1      46.666   5.914  13.677  0.00  0.00    +0.000 NA
ATOM      6  C   UNL     1      46.315   4.933  12.816  0.00  0.00    +0.000 A 
ATOM      7  C   UNL     1      46.561   3.602  13.149  0.00  0.00    +0.000 A 
ATOM      8  N   UNL     1      47.141   3.206  14.321  0.00  0.00    +0.000 NA
BRANCH   3  10
ATOM      9  N   UNL     1      48.510   3.566  17.459  0.00  0.00    +0.000 NA
ATOM     10  C   UNL     1      48.020   3.846  16.448  0.00  0.00    +0.000 C 
ENDBRANCH   3  10
ENDBRANCH   1   6
BRANCH   1  11
ATOM     11  C   UNL     1      44.557   4.599  11.002  0.00  0.00    +0.000 C 
ATOM     12  C   UNL     1      43.210   5.325  10.944  0.00  0.00    +0.000 C 
ATOM     13  C   UNL     1      43.336   4.063  11.731  0.00  0.00    +0.000 C 
BRANCH  11  14
ATOM     14  C   UNL     1      44.950   3.849   9.714  0.00  0.00    +0.000 A 
ATOM     15  C   UNL     1      45.572   4.533   8.665  0.00  0.00    +0.000 A 
ATOM     16  C   UNL     1      46.231   3.815   7.670  0.00  0.00    +0.000 A 
ATOM     17  C   UNL     1      46.224   2.428   7.715  0.00  0.00    +0.000 A 
ATOM     18  C   UNL     1      45.507   1.816   8.726  0.00  0.00    +0.000 A 
ATOM     19  N   UNL     1      44.869   2.490   9.707  0.00  0.00    +0.000 NA
ENDBRANCH  11  14
ENDBRANCH   1  11
TORSDOF 4
ENDMDL
MODEL 3
REMARK VINA RESULT:    -6.101      2.154      5.746
REMARK INTER + INTRA:          -7.828
REMARK INTER:                  -7.622
REMARK INTRA:                  -0.206
REMARK UNBOUND:                -0.300
REMARK  Name = 
REMARK  4 active torsions:
REMARK  status: ('A' for Active; 'I' for Inactive)
REMARK    1  A    between atoms: C_2  and  C_3
REMARK    2  A    between atoms: C_6  and  N_7
REMARK    3  A    between atoms: N_7  and  C_8
REMARK    4  A    between atoms: C_8  and  C_9
REMARK                            x       y       z     vdW  Elec       q    Type
REMARK                         _______ _______ _______ _____ _____    ______ ____
ROOT
ATOM      1  N   UNL     1      44.900   5.387  11.429  0.00  0.00    +0.000 N 
ATOM      2  H   UNL     1      44.750   6.087  10.704  0.00  0.00    +0.000 HD
ENDROOT
BRANCH   1   6
ATOM      3  C   UNL     1      48.299   6.619  13.387  0.00  0.00    +0.000 A 
ATOM      4  C   UNL     1      47.893   7.165  12.184  0.00  0.00    +0.000 A 
ATOM      5  N   UNL     1      46.788   6.733  11.519  0.00  0.00    +0.000 NA
ATOM      6  C   UNL     1      46.085   5.724  12.082  0.00  0.00    +0.000 A 
ATOM      7  C   UNL     1      46.516   5.173  13.289  0.00  0.00    +0.000 A 
ATOM      8  N   UNL     1      47.624   5.596  13.965  0.00  0.00    +0.000 NA
BRANCH   3  10
ATOM      9  N   UNL     1      50.365   7.527  14.666  0.00  0.00    +0.000 NA
ATOM     10  C   UNL     1      49.436   7.148  14.089  0.00  0.00    +0.000 C 
ENDBRANCH   3  10
ENDBRANCH   1   6
BRANCH   1  11
ATOM     11  C   UNL     1      44.496   4.016  11.057  0.00  0.00    +0.000 C 
ATOM     12  C   UNL     1      43.048   3.668  11.416  0.00  0.00    +0.000 C 
ATOM     13  C   UNL     1      44.169   2.945  12.084  0.00  0.00    +0.000 C 
BRANCH  11  14
ATOM     14  C   UNL     1      44.968   3.505   9.682  0.00  0.00    +0.000 A 
ATOM     15  C   UNL     1      45.422   4.407   8.716  0.00  0.00    +0.000 A 
ATOM     16  C   UNL     1      46.161   3.940   7.631  0.00  0.00    +0.000 A 
ATOM     17  C   UNL     1      46.401   2.578   7.508  0.00  0.00    +0.000 A 
ATOM     18  C   UNL     1      45.839   1.735   8.447  0.00  0.00    +0.000 A 
ATOM     19  N   UNL     1      45.128   2.163   9.512  0.00  0.00    +0.000 NA
ENDBRANCH  11  14
ENDBRANCH   1  11
TORSDOF 4
ENDMDL
MODEL 4
REMARK VINA RESULT:    -5.433      2.633      6.184
REMARK INTER + INTRA:          -7.003
REMARK INTER:                  -6.837
REMARK INTRA:                  -0.167
REMARK UNBOUND:                -0.300
REMARK  Name = 
REMARK  4 active torsions:
REMARK  status: ('A' for Active; 'I' for Inactive)
REMARK    1  A    between atoms: C_2  and  C_3
REMARK    2  A    between atoms: C_6  and  N_7
REMARK    3  A    between atoms: N_7  and  C_8
REMARK    4  A    between atoms: C_8  and  C_9
REMARK                            x       y       z     vdW  Elec       q    Type
REMARK                         _______ _______ _______ _____ _____    ______ ____
ROOT
ATOM      1  N   UNL     1      44.661   6.694  11.055  0.00  0.00    +0.000 N 
ATOM      2  H   UNL     1      44.719   7.097  10.122  0.00  0.00    +0.000 HD
ENDROOT
BRANCH   1   6
ATOM      3  C   UNL     1      47.631   8.227  13.450  0.00  0.00    +0.000 A 
ATOM      4  C   UNL     1      46.382   8.810  13.346  0.00  0.00    +0.000 A 
ATOM      5  N   UNL     1      45.412   8.323  12.527  0.00  0.00    +0.000 NA
ATOM      6  C   UNL     1      45.716   7.228  11.796  0.00  0.00    +0.000 A 
ATOM      7  C   UNL     1      46.985   6.659  11.899  0.00  0.00    +0.000 A 
ATOM      8  N   UNL     1      47.968   7.139  12.716  0.00  0.00    +0.000 NA
BRANCH   3  10
ATOM      9  N   UNL     1      49.425   9.144  15.084  0.00  0.00    +0.000 NA
ATOM     10  C   UNL     1      48.606   8.735  14.375  0.00  0.00    +0.000 C 
ENDBRANCH   3  10
ENDBRANCH   1   6
BRANCH   1  11
ATOM     11  C   UNL     1      44.222   5.285  11.094  0.00  0.00    +0.000 C 
ATOM     12  C   UNL     1      42.713   5.101  11.282  0.00  0.00    +0.000 C 
ATOM     13  C   UNL     1      43.653   4.632  12.343  0.00  0.00    +0.000 C 
BRANCH  11  14
ATOM     14  C   UNL     1      44.875   4.330  10.077  0.00  0.00    +0.000 A 
ATOM     15  C   UNL     1      44.644   2.954  10.156  0.00  0.00    +0.000 A 
ATOM     16  C   UNL     1      44.936   2.142   9.062  0.00  0.00    +0.000 A 
ATOM     17  C   UNL     1      45.490   2.710   7.924  0.00  0.00    +0.000 A 
ATOM     18  C   UNL     1      45.783   4.060   7.951  0.00  0.00    +0.000 A 
ATOM     19  N   UNL     1      45.501   4.869   8.994  0.00  0.00    +0.000 NA
ENDBRANCH  11  14
ENDBRANCH   1  11
TORSDOF 4
ENDMDL
MODEL 5
REMARK VINA RESULT:    -5.341      3.717      6.920
REMARK INTER + INTRA:          -6.890
REMARK INTER:                  -6.595
REMARK INTRA:                  -0.295
REMARK UNBOUND:                -0.300
REMARK  Name = 
REMARK  4 active torsions:
REMARK  status: ('A' for Active; 'I' for Inactive)
REMARK    1  A    between atoms: C_2  and  C_3
REMARK    2  A    between atoms: C_6  and  N_7
REMARK    3  A    between atoms: N_7  and  C_8
REMARK    4  A    between atoms: C_8  and  C_9
REMARK                            x       y       z     vdW  Elec       q    Type
REMARK                         _______ _______ _______ _____ _____    ______ ____
ROOT
ATOM      1  N   UNL     1      47.383   6.049  12.987  0.00  0.00    +0.000 N 
ATOM      2  H   UNL     1      47.623   5.333  12.303  0.00  0.00    +0.000 HD
ENDROOT
BRANCH   1   6
ATOM      3  C   UNL     1      48.044   4.675  16.806  0.00  0.00    +0.000 A 
ATOM      4  C   UNL     1      48.724   5.754  16.274  0.00  0.00    +0.000 A 
ATOM      5  N   UNL     1      48.530   6.186  14.999  0.00  0.00    +0.000 NA
ATOM      6  C   UNL     1      47.635   5.508  14.248  0.00  0.00    +0.000 A 
ATOM      7  C   UNL     1      46.967   4.410  14.793  0.00  0.00    +0.000 A 
ATOM      8  N   UNL     1      47.154   3.965  16.070  0.00  0.00    +0.000 NA
BRANCH   3  10
ATOM      9  N   UNL     1      48.425   4.002  19.282  0.00  0.00    +0.000 NA
ATOM     10  C   UNL     1      48.231   4.290  18.178  0.00  0.00    +0.000 C 
ENDBRANCH   3  10
ENDBRANCH   1   6
BRANCH   1  11
ATOM     11  C   UNL     1      46.209   6.872  12.635  0.00  0.00    +0.000 C 
ATOM     12  C   UNL     1      46.541   8.127  11.824  0.00  0.00    +0.000 C 
ATOM     13  C   UNL     1      45.977   8.264  13.199  0.00  0.00    +0.000 C 
BRANCH  11  14
ATOM     14  C   UNL     1      44.947   6.115  12.179  0.00  0.00    +0.000 A 
ATOM     15  C   UNL     1      44.911   5.499  10.925  0.00  0.00    +0.000 A 
ATOM     16  C   UNL     1      43.936   4.542  10.654  0.00  0.00    +0.000 A 
ATOM     17  C   UNL     1      42.989   4.245  11.624  0.00  0.00    +0.000 A 
ATOM     18  C   UNL     1      43.024   4.961  12.805  0.00  0.00    +0.000 A 
ATOM     19  N   UNL     1      43.964   5.886  13.094  0.00  0.00    +0.000 NA
ENDBRANCH  11  14
ENDBRANCH   1  11
TORSDOF 4
ENDMDL
MODEL 6
REMARK VINA RESULT:    -5.176      3.613      5.451
REMARK INTER + INTRA:          -6.686
REMARK INTER:                  -6.394
REMARK INTRA:                  -0.292
REMARK UNBOUND:                -0.300
REMARK  Name = 
REMARK  4 active torsions:
REMARK  status: ('A' for Active; 'I' for Inactive)
REMARK    1  A    between atoms: C_2  and  C_3
REMARK    2  A    between atoms: C_6  and  N_7
REMARK    3  A    between atoms: N_7  and  C_8
REMARK    4  A    between atoms: C_8  and  C_9
REMARK                            x       y       z     vdW  Elec       q    Type
REMARK                         _______ _______ _______ _____ _____    ______ ____
ROOT
ATOM      1  N   UNL     1      46.132   7.737  13.126  0.00  0.00    +0.000 N 
ATOM      2  H   UNL     1      45.692   8.201  13.919  0.00  0.00    +0.000 HD
ENDROOT
BRANCH   1   6
ATOM      3  C   UNL     1      44.146   4.246  12.242  0.00  0.00    +0.000 A 
ATOM      4  C   UNL     1      43.841   5.451  11.637  0.00  0.00    +0.000 A 
ATOM      5  N   UNL     1      44.474   6.612  11.955  0.00  0.00    +0.000 NA
ATOM      6  C   UNL     1      45.431   6.551  12.909  0.00  0.00    +0.000 A 
ATOM      7  C   UNL     1      45.717   5.331  13.522  0.00  0.00    +0.000 A 
ATOM      8  N   UNL     1      45.088   4.159  13.212  0.00  0.00    +0.000 NA
BRANCH   3  10
ATOM      9  N   UNL     1      43.004   2.028  11.533  0.00  0.00    +0.000 NA
ATOM     10  C   UNL     1      43.498   3.032  11.831  0.00  0.00    +0.000 C 
ENDBRANCH   3  10
ENDBRANCH   1   6
BRANCH   1  11
ATOM     11  C   UNL     1      47.600   7.880  13.061  0.00  0.00    +0.000 C 
ATOM     12  C   UNL     1      48.085   8.953  12.082  0.00  0.00    +0.000 C 
ATOM     13  C   UNL     1      48.411   7.519  11.828  0.00  0.00    +0.000 C 
BRANCH  11  14
ATOM     14  C   UNL     1      48.359   7.828  14.401  0.00  0.00    +0.000 A 
ATOM     15  C   UNL     1      48.239   8.876  15.318  0.00  0.00    +0.000 A 
ATOM     16  C   UNL     1      48.629   8.682  16.641  0.00  0.00    +0.000 A 
ATOM     17  C   UNL     1      49.167   7.460  17.018  0.00  0.00    +0.000 A 
ATOM     18  C   UNL     1      49.347   6.501  16.039  0.00  0.00    +0.000 A 
ATOM     19  N   UNL     1      48.969   6.662  14.753  0.00  0.00    +0.000 NA
ENDBRANCH  11  14
ENDBRANCH   1  11
TORSDOF 4
ENDMDL
MODEL 7
REMARK VINA RESULT:    -4.864      2.202      3.571
REMARK INTER + INTRA:          -6.301
REMARK INTER:                  -5.985
REMARK INTRA:                  -0.316
REMARK UNBOUND:                -0.300
REMARK  Name = 
REMARK  4 active torsions:
REMARK  status: ('A' for Active; 'I' for Inactive)
REMARK    1  A    between atoms: C_2  and  C_3
REMARK    2  A    between atoms: C_6  and  N_7
REMARK    3  A    between atoms: N_7  and  C_8
REMARK    4  A    between atoms: C_8  and  C_9
REMARK                            x       y       z     vdW  Elec       q    Type
REMARK                         _______ _______ _______ _____ _____    ______ ____
ROOT
ATOM      1  N   UNL     1      44.720   6.663  12.440  0.00  0.00    +0.000 N 
ATOM      2  H   UNL     1      44.529   6.366  13.396  0.00  0.00    +0.000 HD
ENDROOT
BRANCH   1   6
ATOM      3  C   UNL     1      45.005   3.305  10.084  0.00  0.00    +0.000 A 
ATOM      4  C   UNL     1      45.287   4.573   9.612  0.00  0.00    +0.000 A 
ATOM      5  N   UNL     1      45.159   5.687  10.382  0.00  0.00    +0.000 NA
ATOM      6  C   UNL     1      44.731   5.512  11.652  0.00  0.00    +0.000 A 
ATOM      7  C   UNL     1      44.435   4.228  12.110  0.00  0.00    +0.000 A 
ATOM      8  N   UNL     1      44.558   3.102  11.348  0.00  0.00    +0.000 NA
BRANCH   3  10
ATOM      9  N   UNL     1      45.431   1.214   8.609  0.00  0.00    +0.000 NA
ATOM     10  C   UNL     1      45.215   2.148   9.259  0.00  0.00    +0.000 C 
ENDBRANCH   3  10
ENDBRANCH   1   6
BRANCH   1  11
ATOM     11  C   UNL     1      45.671   7.785  12.319  0.00  0.00    +0.000 C 
ATOM     12  C   UNL     1      45.179   9.097  12.937  0.00  0.00    +0.000 C 
ATOM     13  C   UNL     1      45.397   9.011  11.464  0.00  0.00    +0.000 C 
BRANCH  11  14
ATOM     14  C   UNL     1      47.157   7.461  12.570  0.00  0.00    +0.000 A 
ATOM     15  C   UNL     1      48.123   7.819  11.626  0.00  0.00    +0.000 A 
ATOM     16  C   UNL     1      49.467   7.846  11.992  0.00  0.00    +0.000 A 
ATOM     17  C   UNL     1      49.827   7.480  13.281  0.00  0.00    +0.000 A 
ATOM     18  C   UNL     1      48.831   7.044  14.133  0.00  0.00    +0.000 A 
ATOM     19  N   UNL     1      47.522   7.016  13.805  0.00  0.00    +0.000 NA
ENDBRANCH  11  14
ENDBRANCH   1  11
TORSDOF 4
ENDMDL
MODEL 8
REMARK VINA RESULT:    -4.719      3.241      5.638
REMARK INTER + INTRA:          -6.122
REMARK INTER:                  -6.146
REMARK INTRA:                   0.024
REMARK UNBOUND:                -0.300
REMARK  Name = 
REMARK  4 active torsions:
REMARK  status: ('A' for Active; 'I' for Inactive)
REMARK    1  A    between atoms: C_2  and  C_3
REMARK    2  A    between atoms: C_6  and  N_7
REMARK    3  A    between atoms: N_7  and  C_8
REMARK    4  A    between atoms: C_8  and  C_9
REMARK                            x       y       z     vdW  Elec       q    Type
REMARK                         _______ _______ _______ _____ _____    ______ ____
ROOT
ATOM      1  N   UNL     1      47.861   6.783  12.453  0.00  0.00    +0.000 N 
ATOM      2  H   UNL     1      48.216   6.883  11.503  0.00  0.00    +0.000 HD
ENDROOT
BRANCH   1   6
ATOM      3  C   UNL     1      44.813   4.047  12.078  0.00  0.00    +0.000 A 
ATOM      4  C   UNL     1      45.094   4.988  11.106  0.00  0.00    +0.000 A 
ATOM      5  N   UNL     1      46.079   5.915  11.245  0.00  0.00    +0.000 NA
ATOM      6  C   UNL     1      46.789   5.892  12.396  0.00  0.00    +0.000 A 
ATOM      7  C   UNL     1      46.485   4.946  13.375  0.00  0.00    +0.000 A 
ATOM      8  N   UNL     1      45.498   4.011  13.248  0.00  0.00    +0.000 NA
BRANCH   3  10
ATOM      9  N   UNL     1      43.019   2.224  11.651  0.00  0.00    +0.000 NA
ATOM     10  C   UNL     1      43.807   3.045  11.865  0.00  0.00    +0.000 C 
ENDBRANCH   3  10
ENDBRANCH   1   6
BRANCH   1  11
ATOM     11  C   UNL     1      47.895   8.019  13.259  0.00  0.00    +0.000 C 
ATOM     12  C   UNL     1      49.295   8.430  13.722  0.00  0.00    +0.000 C 
ATOM     13  C   UNL     1      48.270   8.035  14.731  0.00  0.00    +0.000 C 
BRANCH  11  14
ATOM     14  C   UNL     1      46.998   9.179  12.783  0.00  0.00    +0.000 A 
ATOM     15  C   UNL     1      47.551  10.251  12.078  0.00  0.00    +0.000 A 
ATOM     16  C   UNL     1      46.718  11.106  11.359  0.00  0.00    +0.000 A 
ATOM     17  C   UNL     1      45.346  10.899  11.387  0.00  0.00    +0.000 A 
ATOM     18  C   UNL     1      44.861   9.880  12.183  0.00  0.00    +0.000 A 
ATOM     19  N   UNL     1      45.647   9.033  12.881  0.00  0.00    +0.000 NA
ENDBRANCH  11  14
ENDBRANCH   1  11
TORSDOF 4
ENDMDL
