MODEL 1
REMARK VINA RESULT:    -8.476      0.000      0.000
REMARK INTER + INTRA:         -13.233
REMARK INTER:                 -11.944
REMARK INTRA:                  -1.289
REMARK UNBOUND:                -1.289
REMARK  Name = 
REMARK  8 active torsions:
REMARK  status: ('A' for Active; 'I' for Inactive)
REMARK    1  A    between atoms: C_1  and  O_2
REMARK    2  A    between atoms: O_2  and  C_3
REMARK    3  A    between atoms: C_5  and  C_6
REMARK    4  A    between atoms: C_6  and  N_7
REMARK    5  A    between atoms: C_8  and  C_10
REMARK    6  A    between atoms: C_22  and  C_23
REMARK    7  A    between atoms: C_23  and  N_24
REMARK    8  A    between atoms: C_25  and  C_27
REMARK                            x       y       z     vdW  Elec       q    Type
REMARK                         _______ _______ _______ _____ _____    ______ ____
ROOT
ATOM      1  C   UNL     1      44.351   5.393  11.741  0.00  0.00    +0.000 A 
ATOM      2  C   UNL     1      44.975   6.280  12.629  0.00  0.00    +0.000 A 
ATOM      3  C   UNL     1      46.135   6.979  12.268  0.00  0.00    +0.000 A 
ATOM      4  C   UNL     1      46.669   6.787  10.991  0.00  0.00    +0.000 A 
ATOM      5  C   UNL     1      46.062   5.896  10.103  0.00  0.00    +0.000 A 
ATOM      6  C   UNL     1      44.907   5.181  10.467  0.00  0.00    +0.000 A 
ENDROOT
BRANCH   1   8
ATOM      7  C   UNL     1      43.408   3.526  12.864  0.00  0.00    +0.000 C 
ATOM      8  O   UNL     1      43.219   4.684  12.053  0.00  0.00    +0.000 OA
ENDBRANCH   1   8
BRANCH   3   9
ATOM      9  C   UNL     1      46.751   7.950  13.240  0.00  0.00    +0.000 C 
BRANCH   9  10
ATOM     10  N   UNL     1      47.262   7.272  14.405  0.00  0.00    +0.000 N 
ATOM     11  C   UNL     1      48.548   6.804  14.493  0.00  0.00    +0.000 C 
ATOM     12  O   UNL     1      49.355   6.921  13.575  0.00  0.00    +0.000 OA
ATOM     13  H   UNL     1      46.574   6.963  15.082  0.00  0.00    +0.000 HD
BRANCH  11  14
ATOM     14  C   UNL     1      48.936   6.212  15.781  0.00  0.00    +0.000 A 
ATOM     15  C   UNL     1      49.979   6.772  16.508  0.00  0.00    +0.000 A 
ATOM     16  S   UNL     1      50.271   5.996  17.998  0.00  0.00    +0.000 S 
ATOM     17  C   UNL     1      49.044   4.855  17.708  0.00  0.00    +0.000 A 
ATOM     18  N   UNL     1      48.780   3.868  18.605  0.00  0.00    +0.000 NA
ATOM     19  C   UNL     1      47.847   3.054  18.244  0.00  0.00    +0.000 A 
ATOM     20  N   UNL     1      47.144   3.144  17.071  0.00  0.00    +0.000 N 
ATOM     21  C   UNL     1      47.331   4.158  16.166  0.00  0.00    +0.000 A 
ATOM     22  O   UNL     1      46.610   4.271  15.176  0.00  0.00    +0.000 OA
ATOM     23  C   UNL     1      48.401   5.080  16.502  0.00  0.00    +0.000 A 
ATOM     24  H   UNL     1      46.408   2.484  16.858  0.00  0.00    +0.000 HD
ENDBRANCH  11  14
ENDBRANCH   9  10
ENDBRANCH   3   9
BRANCH   6  25
ATOM     25  C   UNL     1      44.280   4.256   9.449  0.00  0.00    +0.000 C 
BRANCH  25  26
ATOM     26  N   UNL     1      45.230   3.899   8.414  0.00  0.00    +0.000 N 
ATOM     27  C   UNL     1      45.730   2.627   8.276  0.00  0.00    +0.000 C 
ATOM     28  O   UNL     1      45.464   1.714   9.050  0.00  0.00    +0.000 OA
ATOM     29  H   UNL     1      45.346   4.568   7.671  0.00  0.00    +0.000 HD
BRANCH  27  30
ATOM     30  C   UNL     1      46.599   2.431   7.151  0.00  0.00    +0.000 A 
ATOM     31  C   UNL     1      46.702   3.018   5.911  0.00  0.00    +0.000 A 
ATOM     32  N   UNL     1      47.736   2.460   5.212  0.00  0.00    +0.000 NA
ATOM     33  N   UNL     1      48.294   1.536   5.979  0.00  0.00    +0.000 NA
ATOM     34  N   UNL     1      47.619   1.517   7.140  0.00  0.00    +0.000 N 
ATOM     35  H   UNL     1      47.903   0.874   7.870  0.00  0.00    +0.000 HD
ENDBRANCH  27  30
ENDBRANCH  25  26
ENDBRANCH   6  25
TORSDOF 7
ENDMDL
MODEL 2
REMARK VINA RESULT:    -8.063      1.985      2.483
REMARK INTER + INTRA:         -12.651
REMARK INTER:                 -11.286
REMARK INTRA:                  -1.365
REMARK UNBOUND:                -1.289
REMARK  Name = 
REMARK  8 active torsions:
REMARK  status: ('A' for Active; 'I' for Inactive)
REMARK    1  A    between atoms: C_1  and  O_2
REMARK    2  A    between atoms: O_2  and  C_3
REMARK    3  A    between atoms: C_5  and  C_6
REMARK    4  A    between atoms: C_6  and  N_7
REMARK    5  A    between atoms: C_8  and  C_10
REMARK    6  A    between atoms: C_22  and  C_23
REMARK    7  A    between atoms: C_23  and  N_24
REMARK    8  A    between atoms: C_25  and  C_27
REMARK                            x       y       z     vdW  Elec       q    Type
REMARK                         _______ _______ _______ _____ _____    ______ ____
ROOT
ATOM      1  C   UNL     1      45.731   4.662  12.662  0.00  0.00    +0.000 A 
ATOM      2  C   UNL     1      46.292   5.876  13.081  0.00  0.00    +0.000 A 
ATOM      3  C   UNL     1      46.013   7.078  12.417  0.00  0.00    +0.000 A 
ATOM      4  C   UNL     1      45.148   7.057  11.320  0.00  0.00    +0.000 A 
ATOM      5  C   UNL     1      44.591   5.851  10.886  0.00  0.00    +0.000 A 
ATOM      6  C   UNL     1      44.882   4.641  11.540  0.00  0.00    +0.000 A 
ENDROOT
BRANCH   1   8
ATOM      7  C   UNL     1      47.167   3.396  14.066  0.00  0.00    +0.000 C 
ATOM      8  O   UNL     1      45.980   3.462  13.278  0.00  0.00    +0.000 OA
ENDBRANCH   1   8
BRANCH   3   9
ATOM      9  C   UNL     1      46.608   8.364  12.924  0.00  0.00    +0.000 C 
BRANCH   9  10
ATOM     10  N   UNL     1      47.080   8.225  14.279  0.00  0.00    +0.000 N 
ATOM     11  C   UNL     1      48.011   9.063  14.835  0.00  0.00    +0.000 C 
ATOM     12  O   UNL     1      48.518   9.991  14.211  0.00  0.00    +0.000 OA
ATOM     13  H   UNL     1      46.857   7.353  14.744  0.00  0.00    +0.000 HD
BRANCH  11  14
ATOM     14  C   UNL     1      48.321   8.838  16.255  0.00  0.00    +0.000 A 
ATOM     15  C   UNL     1      48.103   9.855  17.175  0.00  0.00    +0.000 A 
ATOM     16  S   UNL     1      48.470   9.416  18.782  0.00  0.00    +0.000 S 
ATOM     17  C   UNL     1      48.976   7.865  18.301  0.00  0.00    +0.000 A 
ATOM     18  N   UNL     1      49.442   6.968  19.210  0.00  0.00    +0.000 NA
ATOM     19  C   UNL     1      49.822   5.844  18.705  0.00  0.00    +0.000 A 
ATOM     20  N   UNL     1      49.765   5.528  17.372  0.00  0.00    +0.000 N 
ATOM     21  C   UNL     1      49.243   6.375  16.428  0.00  0.00    +0.000 A 
ATOM     22  O   UNL     1      49.107   6.021  15.258  0.00  0.00    +0.000 OA
ATOM     23  C   UNL     1      48.840   7.675  16.936  0.00  0.00    +0.000 A 
ATOM     24  H   UNL     1      50.058   4.618  17.044  0.00  0.00    +0.000 HD
ENDBRANCH  11  14
ENDBRANCH   9  10
ENDBRANCH   3   9
BRANCH   6  25
ATOM     25  C   UNL     1      44.224   3.374  11.042  0.00  0.00    +0.000 C 
BRANCH  25  26
ATOM     26  N   UNL     1      45.102   2.649  10.144  0.00  0.00    +0.000 N 
ATOM     27  C   UNL     1      45.147   2.896   8.794  0.00  0.00    +0.000 C 
ATOM     28  O   UNL     1      44.407   3.698   8.234  0.00  0.00    +0.000 OA
ATOM     29  H   UNL     1      45.830   2.107  10.581  0.00  0.00    +0.000 HD
BRANCH  27  30
ATOM     30  C   UNL     1      46.127   2.143   8.067  0.00  0.00    +0.000 A 
ATOM     31  C   UNL     1      47.170   2.485   7.235  0.00  0.00    +0.000 A 
ATOM     32  N   UNL     1      47.818   1.360   6.809  0.00  0.00    +0.000 NA
ATOM     33  N   UNL     1      47.216   0.313   7.352  0.00  0.00    +0.000 NA
ATOM     34  N   UNL     1      46.206   0.776   8.106  0.00  0.00    +0.000 N 
ATOM     35  H   UNL     1      45.625   0.122   8.617  0.00  0.00    +0.000 HD
ENDBRANCH  27  30
ENDBRANCH  25  26
ENDBRANCH   6  25
TORSDOF 7
ENDMDL
MODEL 3
REMARK VINA RESULT:    -7.577      2.358      3.935
REMARK INTER + INTRA:         -11.967
REMARK INTER:                 -10.751
REMARK INTRA:                  -1.216
REMARK UNBOUND:                -1.289
REMARK  Name = 
REMARK  8 active torsions:
REMARK  status: ('A' for Active; 'I' for Inactive)
REMARK    1  A    between atoms: C_1  and  O_2
REMARK    2  A    between atoms: O_2  and  C_3
REMARK    3  A    between atoms: C_5  and  C_6
REMARK    4  A    between atoms: C_6  and  N_7
REMARK    5  A    between atoms: C_8  and  C_10
REMARK    6  A    between atoms: C_22  and  C_23
REMARK    7  A    between atoms: C_23  and  N_24
REMARK    8  A    between atoms: C_25  and  C_27
REMARK                            x       y       z     vdW  Elec       q    Type
REMARK                         _______ _______ _______ _____ _____    ______ ____
ROOT
ATOM      1  C   UNL     1      44.960   5.529  11.938  0.00  0.00    +0.000 A 
ATOM      2  C   UNL     1      45.667   5.733  13.131  0.00  0.00    +0.000 A 
ATOM      3  C   UNL     1      46.257   4.667  13.822  0.00  0.00    +0.000 A 
ATOM      4  C   UNL     1      46.142   3.377  13.298  0.00  0.00    +0.000 A 
ATOM      5  C   UNL     1      45.430   3.159  12.116  0.00  0.00    +0.000 A 
ATOM      6  C   UNL     1      44.822   4.225  11.429  0.00  0.00    +0.000 A 
ENDROOT
BRANCH   1   8
ATOM      7  C   UNL     1      44.786   7.865  11.549  0.00  0.00    +0.000 C 
ATOM      8  O   UNL     1      44.361   6.540  11.231  0.00  0.00    +0.000 OA
ENDBRANCH   1   8
BRANCH   3   9
ATOM      9  C   UNL     1      47.039   4.938  15.080  0.00  0.00    +0.000 C 
BRANCH   9  10
ATOM     10  N   UNL     1      47.955   6.037  14.902  0.00  0.00    +0.000 N 
ATOM     11  C   UNL     1      48.821   6.453  15.880  0.00  0.00    +0.000 C 
ATOM     12  O   UNL     1      48.870   5.921  16.986  0.00  0.00    +0.000 OA
ATOM     13  H   UNL     1      47.789   6.633  14.099  0.00  0.00    +0.000 HD
BRANCH  11  14
ATOM     14  C   UNL     1      49.747   7.533  15.509  0.00  0.00    +0.000 A 
ATOM     15  C   UNL     1      51.091   7.430  15.845  0.00  0.00    +0.000 A 
ATOM     16  S   UNL     1      52.036   8.742  15.303  0.00  0.00    +0.000 S 
ATOM     17  C   UNL     1      50.676   9.518  14.637  0.00  0.00    +0.000 A 
ATOM     18  N   UNL     1      50.790  10.727  14.025  0.00  0.00    +0.000 NA
ATOM     19  C   UNL     1      49.676  11.215  13.596  0.00  0.00    +0.000 A 
ATOM     20  N   UNL     1      48.457  10.598  13.711  0.00  0.00    +0.000 N 
ATOM     21  C   UNL     1      48.304   9.350  14.262  0.00  0.00    +0.000 A 
ATOM     22  O   UNL     1      47.215   8.779  14.252  0.00  0.00    +0.000 OA
ATOM     23  C   UNL     1      49.521   8.772  14.803  0.00  0.00    +0.000 A 
ATOM     24  H   UNL     1      47.624  11.025  13.332  0.00  0.00    +0.000 HD
ENDBRANCH  11  14
ENDBRANCH   9  10
ENDBRANCH   3   9
BRANCH   6  25
ATOM     25  C   UNL     1      44.091   3.928  10.138  0.00  0.00    +0.000 C 
BRANCH  25  26
ATOM     26  N   UNL     1      44.887   3.081   9.272  0.00  0.00    +0.000 N 
ATOM     27  C   UNL     1      45.767   3.588   8.347  0.00  0.00    +0.000 C 
ATOM     28  O   UNL     1      45.901   4.789   8.136  0.00  0.00    +0.000 OA
ATOM     29  H   UNL     1      44.927   2.107   9.523  0.00  0.00    +0.000 HD
BRANCH  27  30
ATOM     30  C   UNL     1      46.530   2.608   7.628  0.00  0.00    +0.000 A 
ATOM     31  C   UNL     1      47.510   2.681   6.665  0.00  0.00    +0.000 A 
ATOM     32  N   UNL     1      47.924   1.424   6.321  0.00  0.00    +0.000 NA
ATOM     33  N   UNL     1      47.233   0.556   7.045  0.00  0.00    +0.000 NA
ATOM     34  N   UNL     1      46.401   1.260   7.829  0.00  0.00    +0.000 N 
ATOM     35  H   UNL     1      45.788   0.769   8.470  0.00  0.00    +0.000 HD
ENDBRANCH  27  30
ENDBRANCH  25  26
ENDBRANCH   6  25
TORSDOF 7
ENDMDL
MODEL 4
REMARK VINA RESULT:    -7.360      4.561      9.591
REMARK INTER + INTRA:         -11.661
REMARK INTER:                 -10.783
REMARK INTRA:                  -0.879
REMARK UNBOUND:                -1.289
REMARK  Name = 
REMARK  8 active torsions:
REMARK  status: ('A' for Active; 'I' for Inactive)
REMARK    1  A    between atoms: C_1  and  O_2
REMARK    2  A    between atoms: O_2  and  C_3
REMARK    3  A    between atoms: C_5  and  C_6
REMARK    4  A    between atoms: C_6  and  N_7
REMARK    5  A    between atoms: C_8  and  C_10
REMARK    6  A    between atoms: C_22  and  C_23
REMARK    7  A    between atoms: C_23  and  N_24
REMARK    8  A    between atoms: C_25  and  C_27
REMARK                            x       y       z     vdW  Elec       q    Type
REMARK                         _______ _______ _______ _____ _____    ______ ____
ROOT
ATOM      1  C   UNL     1      50.577   4.286  18.095  0.00  0.00    +0.000 A 
ATOM      2  C   UNL     1      49.208   4.376  17.811  0.00  0.00    +0.000 A 
ATOM      3  C   UNL     1      48.524   3.331  17.174  0.00  0.00    +0.000 A 
ATOM      4  C   UNL     1      49.228   2.176  16.827  0.00  0.00    +0.000 A 
ATOM      5  C   UNL     1      50.596   2.080  17.095  0.00  0.00    +0.000 A 
ATOM      6  C   UNL     1      51.289   3.133  17.718  0.00  0.00    +0.000 A 
ENDROOT
BRANCH   1   8
ATOM      7  C   UNL     1      50.568   6.482  18.998  0.00  0.00    +0.000 C 
ATOM      8  O   UNL     1      51.288   5.284  18.710  0.00  0.00    +0.000 OA
ENDBRANCH   1   8
BRANCH   3   9
ATOM      9  C   UNL     1      47.045   3.456  16.922  0.00  0.00    +0.000 C 
BRANCH   9  10
ATOM     10  N   UNL     1      46.768   4.424  15.891  0.00  0.00    +0.000 N 
ATOM     11  C   UNL     1      46.891   4.147  14.554  0.00  0.00    +0.000 C 
ATOM     12  O   UNL     1      47.256   3.050  14.139  0.00  0.00    +0.000 OA
ATOM     13  H   UNL     1      46.684   5.388  16.192  0.00  0.00    +0.000 HD
BRANCH  11  14
ATOM     14  C   UNL     1      46.489   5.218  13.630  0.00  0.00    +0.000 A 
ATOM     15  C   UNL     1      47.380   6.242  13.336  0.00  0.00    +0.000 A 
ATOM     16  S   UNL     1      46.776   7.376  12.214  0.00  0.00    +0.000 S 
ATOM     17  C   UNL     1      45.285   6.565  12.113  0.00  0.00    +0.000 A 
ATOM     18  N   UNL     1      44.284   7.036  11.323  0.00  0.00    +0.000 NA
ATOM     19  C   UNL     1      43.198   6.342  11.366  0.00  0.00    +0.000 A 
ATOM     20  N   UNL     1      43.024   5.210  12.119  0.00  0.00    +0.000 N 
ATOM     21  C   UNL     1      44.024   4.662  12.881  0.00  0.00    +0.000 A 
ATOM     22  O   UNL     1      43.870   3.588  13.460  0.00  0.00    +0.000 OA
ATOM     23  C   UNL     1      45.258   5.429  12.904  0.00  0.00    +0.000 A 
ATOM     24  H   UNL     1      42.152   4.700  12.091  0.00  0.00    +0.000 HD
ENDBRANCH  11  14
ENDBRANCH   9  10
ENDBRANCH   3   9
BRANCH   6  25
ATOM     25  C   UNL     1      52.763   2.955  18.009  0.00  0.00    +0.000 C 
BRANCH  25  26
ATOM     26  N   UNL     1      53.041   1.617  18.492  0.00  0.00    +0.000 N 
ATOM     27  C   UNL     1      53.958   0.790  17.892  0.00  0.00    +0.000 C 
ATOM     28  O   UNL     1      54.563   1.090  16.868  0.00  0.00    +0.000 OA
ATOM     29  H   UNL     1      52.691   1.398  19.411  0.00  0.00    +0.000 HD
BRANCH  27  30
ATOM     30  C   UNL     1      54.165  -0.470  18.546  0.00  0.00    +0.000 A 
ATOM     31  C   UNL     1      55.283  -1.192  18.895  0.00  0.00    +0.000 A 
ATOM     32  N   UNL     1      54.919  -2.346  19.529  0.00  0.00    +0.000 NA
ATOM     33  N   UNL     1      53.596  -2.373  19.595  0.00  0.00    +0.000 NA
ATOM     34  N   UNL     1      53.142  -1.253  19.010  0.00  0.00    +0.000 N 
ATOM     35  H   UNL     1      52.144  -1.083  18.968  0.00  0.00    +0.000 HD
ENDBRANCH  27  30
ENDBRANCH  25  26
ENDBRANCH   6  25
TORSDOF 7
ENDMDL
MODEL 5
REMARK VINA RESULT:    -6.972      1.907      2.525
REMARK INTER + INTRA:         -11.114
REMARK INTER:                  -9.923
REMARK INTRA:                  -1.191
REMARK UNBOUND:                -1.289
REMARK  Name = 
REMARK  8 active torsions:
REMARK  status: ('A' for Active; 'I' for Inactive)
REMARK    1  A    between atoms: C_1  and  O_2
REMARK    2  A    between atoms: O_2  and  C_3
REMARK    3  A    between atoms: C_5  and  C_6
REMARK    4  A    between atoms: C_6  and  N_7
REMARK    5  A    between atoms: C_8  and  C_10
REMARK    6  A    between atoms: C_22  and  C_23
REMARK    7  A    between atoms: C_23  and  N_24
REMARK    8  A    between atoms: C_25  and  C_27
REMARK                            x       y       z     vdW  Elec       q    Type
REMARK                         _______ _______ _______ _____ _____    ______ ____
ROOT
ATOM      1  C   UNL     1      46.257   6.125  12.666  0.00  0.00    +0.000 A 
ATOM      2  C   UNL     1      47.157   6.831  13.476  0.00  0.00    +0.000 A 
ATOM      3  C   UNL     1      47.104   8.228  13.580  0.00  0.00    +0.000 A 
ATOM      4  C   UNL     1      46.125   8.922  12.865  0.00  0.00    +0.000 A 
ATOM      5  C   UNL     1      45.230   8.229  12.045  0.00  0.00    +0.000 A 
ATOM      6  C   UNL     1      45.290   6.829  11.925  0.00  0.00    +0.000 A 
ENDROOT
BRANCH   1   8
ATOM      7  C   UNL     1      46.485   4.012  13.725  0.00  0.00    +0.000 C 
ATOM      8  O   UNL     1      46.275   4.761  12.528  0.00  0.00    +0.000 OA
ENDBRANCH   1   8
BRANCH   3   9
ATOM      9  C   UNL     1      48.066   8.943  14.491  0.00  0.00    +0.000 C 
BRANCH   9  10
ATOM     10  N   UNL     1      49.054   8.038  15.024  0.00  0.00    +0.000 N 
ATOM     11  C   UNL     1      49.143   7.730  16.357  0.00  0.00    +0.000 C 
ATOM     12  O   UNL     1      48.389   8.214  17.196  0.00  0.00    +0.000 OA
ATOM     13  H   UNL     1      49.822   7.798  14.407  0.00  0.00    +0.000 HD
BRANCH  11  14
ATOM     14  C   UNL     1      50.151   6.725  16.724  0.00  0.00    +0.000 A 
ATOM     15  C   UNL     1      51.483   7.099  16.842  0.00  0.00    +0.000 A 
ATOM     16  S   UNL     1      52.514   5.827  17.319  0.00  0.00    +0.000 S 
ATOM     17  C   UNL     1      51.224   4.718  17.344  0.00  0.00    +0.000 A 
ATOM     18  N   UNL     1      51.431   3.412  17.660  0.00  0.00    +0.000 NA
ATOM     19  C   UNL     1      50.373   2.676  17.608  0.00  0.00    +0.000 A 
ATOM     20  N   UNL     1      49.122   3.130  17.280  0.00  0.00    +0.000 N 
ATOM     21  C   UNL     1      48.854   4.450  17.017  0.00  0.00    +0.000 A 
ATOM     22  O   UNL     1      47.703   4.843  16.833  0.00  0.00    +0.000 OA
ATOM     23  C   UNL     1      50.020   5.317  17.019  0.00  0.00    +0.000 A 
ATOM     24  H   UNL     1      48.329   2.504  17.280  0.00  0.00    +0.000 HD
ENDBRANCH  11  14
ENDBRANCH   9  10
ENDBRANCH   3   9
BRANCH   6  25
ATOM     25  C   UNL     1      44.275   6.135  11.046  0.00  0.00    +0.000 C 
BRANCH  25  26
ATOM     26  N   UNL     1      44.911   5.154  10.190  0.00  0.00    +0.000 N 
ATOM     27  C   UNL     1      44.428   3.877  10.044  0.00  0.00    +0.000 C 
ATOM     28  O   UNL     1      43.466   3.447  10.671  0.00  0.00    +0.000 OA
ATOM     29  H   UNL     1      45.596   5.510   9.543  0.00  0.00    +0.000 HD
BRANCH  27  30
ATOM     30  C   UNL     1      45.135   3.061   9.098  0.00  0.00    +0.000 A 
ATOM     31  C   UNL     1      45.820   3.325   7.934  0.00  0.00    +0.000 A 
ATOM     32  N   UNL     1      46.330   2.167   7.417  0.00  0.00    +0.000 NA
ATOM     33  N   UNL     1      45.990   1.176   8.226  0.00  0.00    +0.000 NA
ATOM     34  N   UNL     1      45.277   1.706   9.233  0.00  0.00    +0.000 N 
ATOM     35  H   UNL     1      44.929   1.101   9.968  0.00  0.00    +0.000 HD
ENDBRANCH  27  30
ENDBRANCH  25  26
ENDBRANCH   6  25
TORSDOF 7
ENDMDL
MODEL 6
REMARK VINA RESULT:    -6.888      2.931      4.020
REMARK INTER + INTRA:         -10.995
REMARK INTER:                 -10.017
REMARK INTRA:                  -0.978
REMARK UNBOUND:                -1.289
REMARK  Name = 
REMARK  8 active torsions:
REMARK  status: ('A' for Active; 'I' for Inactive)
REMARK    1  A    between atoms: C_1  and  O_2
REMARK    2  A    between atoms: O_2  and  C_3
REMARK    3  A    between atoms: C_5  and  C_6
REMARK    4  A    between atoms: C_6  and  N_7
REMARK    5  A    between atoms: C_8  and  C_10
REMARK    6  A    between atoms: C_22  and  C_23
REMARK    7  A    between atoms: C_23  and  N_24
REMARK    8  A    between atoms: C_25  and  C_27
REMARK                            x       y       z     vdW  Elec       q    Type
REMARK                         _______ _______ _______ _____ _____    ______ ____
ROOT
ATOM      1  C   UNL     1      45.140   5.522  11.959  0.00  0.00    +0.000 A 
ATOM      2  C   UNL     1      45.918   5.892  13.064  0.00  0.00    +0.000 A 
ATOM      3  C   UNL     1      46.549   4.933  13.868  0.00  0.00    +0.000 A 
ATOM      4  C   UNL     1      46.401   3.581  13.548  0.00  0.00    +0.000 A 
ATOM      5  C   UNL     1      45.619   3.200  12.455  0.00  0.00    +0.000 A 
ATOM      6  C   UNL     1      44.971   4.158  11.656  0.00  0.00    +0.000 A 
ENDROOT
BRANCH   1   8
ATOM      7  C   UNL     1      44.716   7.802  11.450  0.00  0.00    +0.000 C 
ATOM      8  O   UNL     1      44.500   6.424  11.148  0.00  0.00    +0.000 OA
ENDBRANCH   1   8
BRANCH   3   9
ATOM      9  C   UNL     1      47.405   5.378  15.023  0.00  0.00    +0.000 C 
BRANCH   9  10
ATOM     10  N   UNL     1      48.453   6.267  14.588  0.00  0.00    +0.000 N 
ATOM     11  C   UNL     1      49.054   7.176  15.419  0.00  0.00    +0.000 C 
ATOM     12  O   UNL     1      48.734   7.304  16.598  0.00  0.00    +0.000 OA
ATOM     13  H   UNL     1      48.586   6.347  13.586  0.00  0.00    +0.000 HD
BRANCH  11  14
ATOM     14  C   UNL     1      50.164   7.949  14.841  0.00  0.00    +0.000 A 
ATOM     15  C   UNL     1      49.895   8.956  13.924  0.00  0.00    +0.000 A 
ATOM     16  S   UNL     1      51.287   9.784  13.387  0.00  0.00    +0.000 S 
ATOM     17  C   UNL     1      52.304   8.796  14.326  0.00  0.00    +0.000 A 
ATOM     18  N   UNL     1      53.653   8.965  14.308  0.00  0.00    +0.000 NA
ATOM     19  C   UNL     1      54.306   8.127  15.041  0.00  0.00    +0.000 A 
ATOM     20  N   UNL     1      53.730   7.143  15.802  0.00  0.00    +0.000 N 
ATOM     21  C   UNL     1      52.372   6.976  15.901  0.00  0.00    +0.000 A 
ATOM     22  O   UNL     1      51.885   6.154  16.676  0.00  0.00    +0.000 OA
ATOM     23  C   UNL     1      51.589   7.866  15.061  0.00  0.00    +0.000 A 
ATOM     24  H   UNL     1      54.299   6.533  16.372  0.00  0.00    +0.000 HD
ENDBRANCH  11  14
ENDBRANCH   9  10
ENDBRANCH   3   9
BRANCH   6  25
ATOM     25  C   UNL     1      44.164   3.683  10.469  0.00  0.00    +0.000 C 
BRANCH  25  26
ATOM     26  N   UNL     1      44.976   2.885   9.572  0.00  0.00    +0.000 N 
ATOM     27  C   UNL     1      45.608   3.417   8.476  0.00  0.00    +0.000 C 
ATOM     28  O   UNL     1      45.484   4.588   8.132  0.00  0.00    +0.000 OA
ATOM     29  H   UNL     1      45.233   1.969   9.906  0.00  0.00    +0.000 HD
BRANCH  27  30
ATOM     30  C   UNL     1      46.434   2.501   7.742  0.00  0.00    +0.000 A 
ATOM     31  C   UNL     1      47.448   2.656   6.823  0.00  0.00    +0.000 A 
ATOM     32  N   UNL     1      47.921   1.434   6.437  0.00  0.00    +0.000 NA
ATOM     33  N   UNL     1      47.236   0.507   7.090  0.00  0.00    +0.000 NA
ATOM     34  N   UNL     1      46.348   1.141   7.873  0.00  0.00    +0.000 N 
ATOM     35  H   UNL     1      45.730   0.598   8.464  0.00  0.00    +0.000 HD
ENDBRANCH  27  30
ENDBRANCH  25  26
ENDBRANCH   6  25
TORSDOF 7
ENDMDL
MODEL 7
REMARK VINA RESULT:    -6.698      2.339      3.072
REMARK INTER + INTRA:         -10.728
REMARK INTER:                  -9.524
REMARK INTRA:                  -1.204
REMARK UNBOUND:                -1.289
REMARK  Name = 
REMARK  8 active torsions:
REMARK  status: ('A' for Active; 'I' for Inactive)
REMARK    1  A    between atoms: C_1  and  O_2
REMARK    2  A    between atoms: O_2  and  C_3
REMARK    3  A    between atoms: C_5  and  C_6
REMARK    4  A    between atoms: C_6  and  N_7
REMARK    5  A    between atoms: C_8  and  C_10
REMARK    6  A    between atoms: C_22  and  C_23
REMARK    7  A    between atoms: C_23  and  N_24
REMARK    8  A    between atoms: C_25  and  C_27
REMARK                            x       y       z     vdW  Elec       q    Type
REMARK                         _______ _______ _______ _____ _____    ______ ____
ROOT
ATOM      1  C   UNL     1      46.409   6.143  12.825  0.00  0.00    +0.000 A 
ATOM      2  C   UNL     1      47.316   6.781  13.683  0.00  0.00    +0.000 A 
ATOM      3  C   UNL     1      47.369   8.178  13.781  0.00  0.00    +0.000 A 
ATOM      4  C   UNL     1      46.489   8.943  13.011  0.00  0.00    +0.000 A 
ATOM      5  C   UNL     1      45.589   8.318  12.145  0.00  0.00    +0.000 A 
ATOM      6  C   UNL     1      45.544   6.917  12.031  0.00  0.00    +0.000 A 
ENDROOT
BRANCH   1   8
ATOM      7  C   UNL     1      46.815   4.012  13.789  0.00  0.00    +0.000 C 
ATOM      8  O   UNL     1      46.325   4.781  12.692  0.00  0.00    +0.000 OA
ENDBRANCH   1   8
BRANCH   3   9
ATOM      9  C   UNL     1      48.333   8.819  14.743  0.00  0.00    +0.000 C 
BRANCH   9  10
ATOM     10  N   UNL     1      48.189   8.276  16.071  0.00  0.00    +0.000 N 
ATOM     11  C   UNL     1      48.866   8.769  17.156  0.00  0.00    +0.000 C 
ATOM     12  O   UNL     1      49.654   9.707  17.071  0.00  0.00    +0.000 OA
ATOM     13  H   UNL     1      47.729   7.376  16.140  0.00  0.00    +0.000 HD
BRANCH  11  14
ATOM     14  C   UNL     1      48.542   8.158  18.454  0.00  0.00    +0.000 A 
ATOM     15  C   UNL     1      47.966   8.933  19.453  0.00  0.00    +0.000 A 
ATOM     16  S   UNL     1      47.612   8.063  20.877  0.00  0.00    +0.000 S 
ATOM     17  C   UNL     1      48.256   6.630  20.227  0.00  0.00    +0.000 A 
ATOM     18  N   UNL     1      48.284   5.482  20.956  0.00  0.00    +0.000 NA
ATOM     19  C   UNL     1      48.829   4.480  20.354  0.00  0.00    +0.000 A 
ATOM     20  N   UNL     1      49.339   4.517  19.082  0.00  0.00    +0.000 N 
ATOM     21  C   UNL     1      49.276   5.633  18.287  0.00  0.00    +0.000 A 
ATOM     22  O   UNL     1      49.645   5.603  17.114  0.00  0.00    +0.000 OA
ATOM     23  C   UNL     1      48.710   6.806  18.932  0.00  0.00    +0.000 A 
ATOM     24  H   UNL     1      49.734   3.688  18.660  0.00  0.00    +0.000 HD
ENDBRANCH  11  14
ENDBRANCH   9  10
ENDBRANCH   3   9
BRANCH   6  25
ATOM     25  C   UNL     1      44.526   6.301  11.098  0.00  0.00    +0.000 C 
BRANCH  25  26
ATOM     26  N   UNL     1      45.133   5.282  10.265  0.00  0.00    +0.000 N 
ATOM     27  C   UNL     1      44.486   4.118   9.930  0.00  0.00    +0.000 C 
ATOM     28  O   UNL     1      43.376   3.820  10.358  0.00  0.00    +0.000 OA
ATOM     29  H   UNL     1      45.965   5.556   9.767  0.00  0.00    +0.000 HD
BRANCH  27  30
ATOM     30  C   UNL     1      45.203   3.256   9.034  0.00  0.00    +0.000 A 
ATOM     31  C   UNL     1      45.852   3.451   7.837  0.00  0.00    +0.000 A 
ATOM     32  N   UNL     1      46.395   2.275   7.400  0.00  0.00    +0.000 NA
ATOM     33  N   UNL     1      46.111   1.340   8.294  0.00  0.00    +0.000 NA
ATOM     34  N   UNL     1      45.400   1.922   9.273  0.00  0.00    +0.000 N 
ATOM     35  H   UNL     1      45.092   1.366  10.062  0.00  0.00    +0.000 HD
ENDBRANCH  27  30
ENDBRANCH  25  26
ENDBRANCH   6  25
TORSDOF 7
ENDMDL
MODEL 8
REMARK VINA RESULT:    -6.697      3.698      8.500
REMARK INTER + INTRA:         -10.726
REMARK INTER:                  -9.754
REMARK INTRA:                  -0.972
REMARK UNBOUND:                -1.289
REMARK  Name = 
REMARK  8 active torsions:
REMARK  status: ('A' for Active; 'I' for Inactive)
REMARK    1  A    between atoms: C_1  and  O_2
REMARK    2  A    between atoms: O_2  and  C_3
REMARK    3  A    between atoms: C_5  and  C_6
REMARK    4  A    between atoms: C_6  and  N_7
REMARK    5  A    between atoms: C_8  and  C_10
REMARK    6  A    between atoms: C_22  and  C_23
REMARK    7  A    between atoms: C_23  and  N_24
REMARK    8  A    between atoms: C_25  and  C_27
REMARK                            x       y       z     vdW  Elec       q    Type
REMARK                         _______ _______ _______ _____ _____    ______ ____
ROOT
ATOM      1  C   UNL     1      50.995   7.796  14.886  0.00  0.00    +0.000 A 
ATOM      2  C   UNL     1      50.398   8.082  13.651  0.00  0.00    +0.000 A 
ATOM      3  C   UNL     1      49.090   7.672  13.360  0.00  0.00    +0.000 A 
ATOM      4  C   UNL     1      48.370   6.972  14.331  0.00  0.00    +0.000 A 
ATOM      5  C   UNL     1      48.959   6.671  15.561  0.00  0.00    +0.000 A 
ATOM      6  C   UNL     1      50.277   7.066  15.851  0.00  0.00    +0.000 A 
ENDROOT
BRANCH   1   8
ATOM      7  C   UNL     1      52.508   9.574  15.316  0.00  0.00    +0.000 C 
ATOM      8  O   UNL     1      52.273   8.171  15.213  0.00  0.00    +0.000 OA
ENDBRANCH   1   8
BRANCH   3   9
ATOM      9  C   UNL     1      48.475   8.034  12.034  0.00  0.00    +0.000 C 
BRANCH   9  10
ATOM     10  N   UNL     1      47.700   6.942  11.500  0.00  0.00    +0.000 N 
ATOM     11  C   UNL     1      46.331   6.896  11.566  0.00  0.00    +0.000 C 
ATOM     12  O   UNL     1      45.667   7.783  12.095  0.00  0.00    +0.000 OA
ATOM     13  H   UNL     1      48.213   6.102  11.262  0.00  0.00    +0.000 HD
BRANCH  11  14
ATOM     14  C   UNL     1      45.688   5.755  10.899  0.00  0.00    +0.000 A 
ATOM     15  C   UNL     1      45.823   5.596   9.526  0.00  0.00    +0.000 A 
ATOM     16  S   UNL     1      45.056   4.199   8.918  0.00  0.00    +0.000 S 
ATOM     17  C   UNL     1      44.477   3.779  10.461  0.00  0.00    +0.000 A 
ATOM     18  N   UNL     1      43.710   2.671  10.642  0.00  0.00    +0.000 NA
ATOM     19  C   UNL     1      43.312   2.489  11.855  0.00  0.00    +0.000 A 
ATOM     20  N   UNL     1      43.622   3.309  12.910  0.00  0.00    +0.000 N 
ATOM     21  C   UNL     1      44.445   4.400  12.787  0.00  0.00    +0.000 A 
ATOM     22  O   UNL     1      44.791   5.052  13.771  0.00  0.00    +0.000 OA
ATOM     23  C   UNL     1      44.886   4.677  11.431  0.00  0.00    +0.000 A 
ATOM     24  H   UNL     1      43.296   3.096  13.842  0.00  0.00    +0.000 HD
ENDBRANCH  11  14
ENDBRANCH   9  10
ENDBRANCH   3   9
BRANCH   6  25
ATOM     25  C   UNL     1      50.847   6.737  17.213  0.00  0.00    +0.000 C 
BRANCH  25  26
ATOM     26  N   UNL     1      51.293   5.359  17.271  0.00  0.00    +0.000 N 
ATOM     27  C   UNL     1      50.551   4.366  17.863  0.00  0.00    +0.000 C 
ATOM     28  O   UNL     1      49.490   4.576  18.441  0.00  0.00    +0.000 OA
ATOM     29  H   UNL     1      52.068   5.120  16.674  0.00  0.00    +0.000 HD
BRANCH  27  30
ATOM     30  C   UNL     1      51.106   3.047  17.763  0.00  0.00    +0.000 A 
ATOM     31  C   UNL     1      50.738   1.906  17.087  0.00  0.00    +0.000 A 
ATOM     32  N   UNL     1      51.640   0.907  17.325  0.00  0.00    +0.000 NA
ATOM     33  N   UNL     1      52.574   1.388  18.132  0.00  0.00    +0.000 NA
ATOM     34  N   UNL     1      52.259   2.667  18.394  0.00  0.00    +0.000 N 
ATOM     35  H   UNL     1      52.864   3.215  18.994  0.00  0.00    +0.000 HD
ENDBRANCH  27  30
ENDBRANCH  25  26
ENDBRANCH   6  25
TORSDOF 7
ENDMDL
MODEL 9
REMARK VINA RESULT:    -6.410      4.369      7.323
REMARK INTER + INTRA:         -10.322
REMARK INTER:                  -9.298
REMARK INTRA:                  -1.023
REMARK UNBOUND:                -1.289
REMARK  Name = 
REMARK  8 active torsions:
REMARK  status: ('A' for Active; 'I' for Inactive)
REMARK    1  A    between atoms: C_1  and  O_2
REMARK    2  A    between atoms: O_2  and  C_3
REMARK    3  A    between atoms: C_5  and  C_6
REMARK    4  A    between atoms: C_6  and  N_7
REMARK    5  A    between atoms: C_8  and  C_10
REMARK    6  A    between atoms: C_22  and  C_23
REMARK    7  A    between atoms: C_23  and  N_24
REMARK    8  A    between atoms: C_25  and  C_27
REMARK                            x       y       z     vdW  Elec       q    Type
REMARK                         _______ _______ _______ _____ _____    ______ ____
ROOT
ATOM      1  C   UNL     1      50.024   9.479  12.667  0.00  0.00    +0.000 A 
ATOM      2  C   UNL     1      48.697   9.331  13.093  0.00  0.00    +0.000 A 
ATOM      3  C   UNL     1      47.900   8.269  12.646  0.00  0.00    +0.000 A 
ATOM      4  C   UNL     1      48.451   7.337  11.763  0.00  0.00    +0.000 A 
ATOM      5  C   UNL     1      49.769   7.480  11.322  0.00  0.00    +0.000 A 
ATOM      6  C   UNL     1      50.567   8.554  11.756  0.00  0.00    +0.000 A 
ENDROOT
BRANCH   1   8
ATOM      7  C   UNL     1      50.635  10.978  14.404  0.00  0.00    +0.000 C 
ATOM      8  O   UNL     1      50.839  10.505  13.073  0.00  0.00    +0.000 OA
ENDBRANCH   1   8
BRANCH   3   9
ATOM      9  C   UNL     1      46.492   8.128  13.159  0.00  0.00    +0.000 C 
BRANCH   9  10
ATOM     10  N   UNL     1      45.941   6.837  12.830  0.00  0.00    +0.000 N 
ATOM     11  C   UNL     1      44.969   6.661  11.879  0.00  0.00    +0.000 C 
ATOM     12  O   UNL     1      44.490   7.597  11.244  0.00  0.00    +0.000 OA
ATOM     13  H   UNL     1      46.144   6.085  13.477  0.00  0.00    +0.000 HD
BRANCH  11  14
ATOM     14  C   UNL     1      44.575   5.271  11.604  0.00  0.00    +0.000 A 
ATOM     15  C   UNL     1      43.824   4.572  12.540  0.00  0.00    +0.000 A 
ATOM     16  S   UNL     1      43.414   2.991  12.048  0.00  0.00    +0.000 S 
ATOM     17  C   UNL     1      44.263   3.167  10.585  0.00  0.00    +0.000 A 
ATOM     18  N   UNL     1      44.329   2.147   9.688  0.00  0.00    +0.000 NA
ATOM     19  C   UNL     1      45.032   2.406   8.637  0.00  0.00    +0.000 A 
ATOM     20  N   UNL     1      45.665   3.597   8.395  0.00  0.00    +0.000 N 
ATOM     21  C   UNL     1      45.572   4.675   9.239  0.00  0.00    +0.000 A 
ATOM     22  O   UNL     1      46.062   5.763   8.941  0.00  0.00    +0.000 OA
ATOM     23  C   UNL     1      44.828   4.425  10.462  0.00  0.00    +0.000 A 
ATOM     24  H   UNL     1      46.182   3.742   7.539  0.00  0.00    +0.000 HD
ENDBRANCH  11  14
ENDBRANCH   9  10
ENDBRANCH   3   9
BRANCH   6  25
ATOM     25  C   UNL     1      51.995   8.636  11.267  0.00  0.00    +0.000 C 
BRANCH  25  26
ATOM     26  N   UNL     1      52.176   7.865  10.054  0.00  0.00    +0.000 N 
ATOM     27  C   UNL     1      53.242   7.019   9.867  0.00  0.00    +0.000 C 
ATOM     28  O   UNL     1      54.153   6.899  10.679  0.00  0.00    +0.000 OA
ATOM     29  H   UNL     1      51.378   7.811   9.442  0.00  0.00    +0.000 HD
BRANCH  27  30
ATOM     30  C   UNL     1      53.223   6.274   8.641  0.00  0.00    +0.000 A 
ATOM     31  C   UNL     1      52.756   6.535   7.373  0.00  0.00    +0.000 A 
ATOM     32  N   UNL     1      53.009   5.473   6.551  0.00  0.00    +0.000 NA
ATOM     33  N   UNL     1      53.629   4.545   7.265  0.00  0.00    +0.000 NA
ATOM     34  N   UNL     1      53.761   5.021   8.514  0.00  0.00    +0.000 N 
ATOM     35  H   UNL     1      54.224   4.455   9.216  0.00  0.00    +0.000 HD
ENDBRANCH  27  30
ENDBRANCH  25  26
ENDBRANCH   6  25
TORSDOF 7
ENDMDL
