MODEL 1
REMARK VINA RESULT:    -7.511      0.000      0.000
REMARK INTER + INTRA:         -13.939
REMARK INTER:                 -12.122
REMARK INTRA:                  -1.817
REMARK UNBOUND:                -1.817
REMARK  Name = 
REMARK  11 active torsions:
REMARK  status: ('A' for Active; 'I' for Inactive)
REMARK    1  A    between atoms: N_1  and  C_2
REMARK    2  A    between atoms: C_2  and  C_3
REMARK    3  A    between atoms: C_3  and  C_4
REMARK    4  A    between atoms: C_4  and  N_5
REMARK    5  A    between atoms: N_5  and  C_6
REMARK    6  A    between atoms: C_6  and  C_7
REMARK    7  A    between atoms: C_10  and  C_11
REMARK    8  A    between atoms: C_11  and  N_12
REMARK    9  A    between atoms: N_12  and  C_13
REMARK   10  A    between atoms: C_13  and  C_14
REMARK   11  A    between atoms: C_22  and  C_24
REMARK                            x       y       z     vdW  Elec       q    Type
REMARK                         _______ _______ _______ _____ _____    ______ ____
ROOT
ATOM      1  N   UNL     1      48.823   7.081  13.782  0.00  0.00    +0.000 N 
ATOM      2  C   UNL     1      49.612   7.512  14.878  0.00  0.00    +0.000 C 
ATOM      3  O   UNL     1      50.833   7.573  14.724  0.00  0.00    +0.000 OA
ENDROOT
BRANCH   2   4
ATOM      4  C   UNL     1      49.042   7.851  16.217  0.00  0.00    +0.000 A 
ATOM      5  C   UNL     1      48.662   9.102  16.679  0.00  0.00    +0.000 A 
ATOM      6  S   UNL     1      47.916   9.150  18.200  0.00  0.00    +0.000 S 
ATOM      7  C   UNL     1      48.058   7.472  18.355  0.00  0.00    +0.000 A 
ATOM      8  N   UNL     1      47.540   6.868  19.445  0.00  0.00    +0.000 NA
ATOM      9  C   UNL     1      47.668   5.584  19.441  0.00  0.00    +0.000 A 
ATOM     10  N   UNL     1      48.290   4.869  18.454  0.00  0.00    +0.000 N 
ATOM     11  C   UNL     1      48.953   5.457  17.395  0.00  0.00    +0.000 A 
ATOM     12  O   UNL     1      49.717   4.788  16.712  0.00  0.00    +0.000 OA
ATOM     13  C   UNL     1      48.721   6.894  17.279  0.00  0.00    +0.000 A 
ATOM     14  H   UNL     1      48.439   3.877  18.563  0.00  0.00    +0.000 HD
ENDBRANCH   2   4
BRANCH   1  15
ATOM     15  C   UNL     1      49.517   6.961  12.482  0.00  0.00    +0.000 C 
BRANCH  15  16
ATOM     16  C   UNL     1      49.567   8.215  11.605  0.00  0.00    +0.000 C 
BRANCH  16  17
ATOM     17  C   UNL     1      50.960   8.804  11.398  0.00  0.00    +0.000 C 
BRANCH  17  18
ATOM     18  N   UNL     1      52.013   7.936  11.922  0.00  0.00    +0.000 NA
ATOM     19  H   UNL     1      52.474   8.414  12.698  0.00  0.00    +0.000 HD
ATOM     20  H   UNL     1      52.731   7.795  11.213  0.00  0.00    +0.000 HD
ENDBRANCH  17  18
ENDBRANCH  16  17
ENDBRANCH  15  16
ENDBRANCH   1  15
BRANCH   1  21
ATOM     21  C   UNL     1      47.373   7.203  13.674  0.00  0.00    +0.000 C 
BRANCH  21  22
ATOM     22  C   UNL     1      46.637   6.129  12.898  0.00  0.00    +0.000 A 
ATOM     23  C   UNL     1      46.230   6.401  11.589  0.00  0.00    +0.000 A 
ATOM     24  C   UNL     1      45.298   5.584  10.950  0.00  0.00    +0.000 A 
ATOM     25  C   UNL     1      44.766   4.502  11.642  0.00  0.00    +0.000 A 
ATOM     26  N   UNL     1      45.215   4.148  12.871  0.00  0.00    +0.000 NA
ATOM     27  C   UNL     1      46.151   4.946  13.450  0.00  0.00    +0.000 A 
BRANCH  25  28
ATOM     28  C   UNL     1      43.580   3.741  11.075  0.00  0.00    +0.000 C 
BRANCH  28  29
ATOM     29  N   UNL     1      43.779   3.235   9.704  0.00  0.00    +0.000 NA
ATOM     30  H   UNL     1      44.210   3.995   9.171  0.00  0.00    +0.000 HD
BRANCH  29  31
ATOM     31  C   UNL     1      44.711   2.096   9.654  0.00  0.00    +0.000 C 
BRANCH  31  32
ATOM     32  C   UNL     1      45.681   2.195   8.489  0.00  0.00    +0.000 A 
ATOM     33  C   UNL     1      45.824   3.391   7.787  0.00  0.00    +0.000 A 
ATOM     34  C   UNL     1      46.741   3.455   6.742  0.00  0.00    +0.000 A 
ATOM     35  C   UNL     1      47.485   2.328   6.418  0.00  0.00    +0.000 A 
ATOM     36  C   UNL     1      47.276   1.175   7.154  0.00  0.00    +0.000 A 
ATOM     37  N   UNL     1      46.394   1.081   8.173  0.00  0.00    +0.000 NA
ENDBRANCH  31  32
ENDBRANCH  29  31
ENDBRANCH  28  29
ENDBRANCH  25  28
ENDBRANCH  21  22
ENDBRANCH   1  21
TORSDOF 11
ENDMDL
MODEL 2
REMARK VINA RESULT:    -7.418      1.319      1.700
REMARK INTER + INTRA:         -13.788
REMARK INTER:                 -11.981
REMARK INTRA:                  -1.807
REMARK UNBOUND:                -1.817
REMARK  Name = 
REMARK  11 active torsions:
REMARK  status: ('A' for Active; 'I' for Inactive)
REMARK    1  A    between atoms: N_1  and  C_2
REMARK    2  A    between atoms: C_2  and  C_3
REMARK    3  A    between atoms: C_3  and  C_4
REMARK    4  A    between atoms: C_4  and  N_5
REMARK    5  A    between atoms: N_5  and  C_6
REMARK    6  A    between atoms: C_6  and  C_7
REMARK    7  A    between atoms: C_10  and  C_11
REMARK    8  A    between atoms: C_11  and  N_12
REMARK    9  A    between atoms: N_12  and  C_13
REMARK   10  A    between atoms: C_13  and  C_14
REMARK   11  A    between atoms: C_22  and  C_24
REMARK                            x       y       z     vdW  Elec       q    Type
REMARK                         _______ _______ _______ _____ _____    ______ ____
ROOT
ATOM      1  N   UNL     1      48.591   7.436  13.812  0.00  0.00    +0.000 N 
ATOM      2  C   UNL     1      49.290   6.977  14.956  0.00  0.00    +0.000 C 
ATOM      3  O   UNL     1      50.503   7.182  15.015  0.00  0.00    +0.000 OA
ENDROOT
BRANCH   2   4
ATOM      4  C   UNL     1      48.638   6.220  16.067  0.00  0.00    +0.000 A 
ATOM      5  C   UNL     1      48.110   4.939  16.017  0.00  0.00    +0.000 A 
ATOM      6  S   UNL     1      47.560   4.292  17.483  0.00  0.00    +0.000 S 
ATOM      7  C   UNL     1      47.988   5.708  18.303  0.00  0.00    +0.000 A 
ATOM      8  N   UNL     1      47.818   5.768  19.640  0.00  0.00    +0.000 NA
ATOM      9  C   UNL     1      48.216   6.877  20.168  0.00  0.00    +0.000 A 
ATOM     10  N   UNL     1      48.739   7.927  19.464  0.00  0.00    +0.000 N 
ATOM     11  C   UNL     1      48.799   7.961  18.085  0.00  0.00    +0.000 A 
ATOM     12  O   UNL     1      49.011   9.022  17.513  0.00  0.00    +0.000 OA
ATOM     13  C   UNL     1      48.492   6.682  17.450  0.00  0.00    +0.000 A 
ATOM     14  H   UNL     1      48.939   8.800  19.929  0.00  0.00    +0.000 HD
ENDBRANCH   2   4
BRANCH   1  15
ATOM     15  C   UNL     1      49.343   8.321  12.896  0.00  0.00    +0.000 C 
BRANCH  15  16
ATOM     16  C   UNL     1      49.722   7.743  11.530  0.00  0.00    +0.000 C 
BRANCH  16  17
ATOM     17  C   UNL     1      51.219   7.724  11.230  0.00  0.00    +0.000 C 
BRANCH  17  18
ATOM     18  N   UNL     1      52.024   8.064  12.401  0.00  0.00    +0.000 NA
ATOM     19  H   UNL     1      52.869   7.491  12.394  0.00  0.00    +0.000 HD
ATOM     20  H   UNL     1      51.522   7.815  13.251  0.00  0.00    +0.000 HD
ENDBRANCH  17  18
ENDBRANCH  16  17
ENDBRANCH  15  16
ENDBRANCH   1  15
BRANCH   1  21
ATOM     21  C   UNL     1      47.141   7.537  13.680  0.00  0.00    +0.000 C 
BRANCH  21  22
ATOM     22  C   UNL     1      46.433   6.452  12.891  0.00  0.00    +0.000 A 
ATOM     23  C   UNL     1      46.249   6.630  11.518  0.00  0.00    +0.000 A 
ATOM     24  C   UNL     1      45.351   5.828  10.813  0.00  0.00    +0.000 A 
ATOM     25  C   UNL     1      44.629   4.860  11.502  0.00  0.00    +0.000 A 
ATOM     26  N   UNL     1      44.861   4.592  12.810  0.00  0.00    +0.000 NA
ATOM     27  C   UNL     1      45.769   5.367  13.458  0.00  0.00    +0.000 A 
BRANCH  25  28
ATOM     28  C   UNL     1      43.476   4.141  10.824  0.00  0.00    +0.000 C 
BRANCH  28  29
ATOM     29  N   UNL     1      43.795   3.596   9.491  0.00  0.00    +0.000 NA
ATOM     30  H   UNL     1      44.367   4.300   9.016  0.00  0.00    +0.000 HD
BRANCH  29  31
ATOM     31  C   UNL     1      44.604   2.368   9.565  0.00  0.00    +0.000 C 
BRANCH  31  32
ATOM     32  C   UNL     1      45.625   2.280   8.443  0.00  0.00    +0.000 A 
ATOM     33  C   UNL     1      45.899   3.393   7.648  0.00  0.00    +0.000 A 
ATOM     34  C   UNL     1      46.858   3.286   6.646  0.00  0.00    +0.000 A 
ATOM     35  C   UNL     1      47.515   2.077   6.456  0.00  0.00    +0.000 A 
ATOM     36  C   UNL     1      47.178   1.016   7.279  0.00  0.00    +0.000 A 
ATOM     37  N   UNL     1      46.251   1.088   8.259  0.00  0.00    +0.000 NA
ENDBRANCH  31  32
ENDBRANCH  29  31
ENDBRANCH  28  29
ENDBRANCH  25  28
ENDBRANCH  21  22
ENDBRANCH   1  21
TORSDOF 11
ENDMDL
MODEL 3
REMARK VINA RESULT:    -7.156      2.110      4.728
REMARK INTER + INTRA:         -13.365
REMARK INTER:                 -11.957
REMARK INTRA:                  -1.408
REMARK UNBOUND:                -1.817
REMARK  Name = 
REMARK  11 active torsions:
REMARK  status: ('A' for Active; 'I' for Inactive)
REMARK    1  A    between atoms: N_1  and  C_2
REMARK    2  A    between atoms: C_2  and  C_3
REMARK    3  A    between atoms: C_3  and  C_4
REMARK    4  A    between atoms: C_4  and  N_5
REMARK    5  A    between atoms: N_5  and  C_6
REMARK    6  A    between atoms: C_6  and  C_7
REMARK    7  A    between atoms: C_10  and  C_11
REMARK    8  A    between atoms: C_11  and  N_12
REMARK    9  A    between atoms: N_12  and  C_13
REMARK   10  A    between atoms: C_13  and  C_14
REMARK   11  A    between atoms: C_22  and  C_24
REMARK                            x       y       z     vdW  Elec       q    Type
REMARK                         _______ _______ _______ _____ _____    ______ ____
ROOT
ATOM      1  N   UNL     1      48.257   6.740  14.839  0.00  0.00    +0.000 N 
ATOM      2  C   UNL     1      48.615   8.111  14.867  0.00  0.00    +0.000 C 
ATOM      3  O   UNL     1      48.909   8.611  15.955  0.00  0.00    +0.000 OA
ENDROOT
BRANCH   2   4
ATOM      4  C   UNL     1      48.607   8.987  13.657  0.00  0.00    +0.000 A 
ATOM      5  C   UNL     1      47.507   9.573  13.049  0.00  0.00    +0.000 A 
ATOM      6  S   UNL     1      47.830  10.633  11.767  0.00  0.00    +0.000 S 
ATOM      7  C   UNL     1      49.493  10.372  11.931  0.00  0.00    +0.000 A 
ATOM      8  N   UNL     1      50.346  11.056  11.139  0.00  0.00    +0.000 NA
ATOM      9  C   UNL     1      51.590  10.811  11.378  0.00  0.00    +0.000 A 
ATOM     10  N   UNL     1      52.041   9.926  12.319  0.00  0.00    +0.000 N 
ATOM     11  C   UNL     1      51.204   9.107  13.050  0.00  0.00    +0.000 A 
ATOM     12  O   UNL     1      51.671   8.153  13.660  0.00  0.00    +0.000 OA
ATOM     13  C   UNL     1      49.788   9.441  12.919  0.00  0.00    +0.000 A 
ATOM     14  H   UNL     1      53.024   9.712  12.385  0.00  0.00    +0.000 HD
ENDBRANCH   2   4
BRANCH   1  15
ATOM     15  C   UNL     1      48.490   5.975  16.083  0.00  0.00    +0.000 C 
BRANCH  15  16
ATOM     16  C   UNL     1      47.797   4.616  16.202  0.00  0.00    +0.000 C 
BRANCH  16  17
ATOM     17  C   UNL     1      47.293   4.267  17.600  0.00  0.00    +0.000 C 
BRANCH  17  18
ATOM     18  N   UNL     1      46.627   2.967  17.641  0.00  0.00    +0.000 NA
ATOM     19  H   UNL     1      47.034   2.368  16.922  0.00  0.00    +0.000 HD
ATOM     20  H   UNL     1      45.644   3.073  17.394  0.00  0.00    +0.000 HD
ENDBRANCH  17  18
ENDBRANCH  16  17
ENDBRANCH  15  16
ENDBRANCH   1  15
BRANCH   1  21
ATOM     21  C   UNL     1      48.147   5.911  13.643  0.00  0.00    +0.000 C 
BRANCH  21  22
ATOM     22  C   UNL     1      46.825   5.926  12.901  0.00  0.00    +0.000 A 
ATOM     23  C   UNL     1      45.737   5.240  13.449  0.00  0.00    +0.000 A 
ATOM     24  C   UNL     1      44.610   4.965  12.675  0.00  0.00    +0.000 A 
ATOM     25  C   UNL     1      44.591   5.368  11.345  0.00  0.00    +0.000 A 
ATOM     26  N   UNL     1      45.582   6.125  10.814  0.00  0.00    +0.000 NA
ATOM     27  C   UNL     1      46.649   6.407  11.606  0.00  0.00    +0.000 A 
BRANCH  25  28
ATOM     28  C   UNL     1      43.497   4.877  10.413  0.00  0.00    +0.000 C 
BRANCH  28  29
ATOM     29  N   UNL     1      43.988   4.237   9.179  0.00  0.00    +0.000 NA
ATOM     30  H   UNL     1      44.738   4.832   8.819  0.00  0.00    +0.000 HD
BRANCH  29  31
ATOM     31  C   UNL     1      44.577   2.911   9.430  0.00  0.00    +0.000 C 
BRANCH  31  32
ATOM     32  C   UNL     1      45.581   2.514   8.361  0.00  0.00    +0.000 A 
ATOM     33  C   UNL     1      45.990   3.435   7.398  0.00  0.00    +0.000 A 
ATOM     34  C   UNL     1      46.931   3.047   6.449  0.00  0.00    +0.000 A 
ATOM     35  C   UNL     1      47.436   1.753   6.479  0.00  0.00    +0.000 A 
ATOM     36  C   UNL     1      46.972   0.894   7.460  0.00  0.00    +0.000 A 
ATOM     37  N   UNL     1      46.058   1.241   8.394  0.00  0.00    +0.000 NA
ENDBRANCH  31  32
ENDBRANCH  29  31
ENDBRANCH  28  29
ENDBRANCH  25  28
ENDBRANCH  21  22
ENDBRANCH   1  21
TORSDOF 11
ENDMDL
MODEL 4
REMARK VINA RESULT:    -7.074      3.632      8.365
REMARK INTER + INTRA:         -13.234
REMARK INTER:                 -11.373
REMARK INTRA:                  -1.861
REMARK UNBOUND:                -1.817
REMARK  Name = 
REMARK  11 active torsions:
REMARK  status: ('A' for Active; 'I' for Inactive)
REMARK    1  A    between atoms: N_1  and  C_2
REMARK    2  A    between atoms: C_2  and  C_3
REMARK    3  A    between atoms: C_3  and  C_4
REMARK    4  A    between atoms: C_4  and  N_5
REMARK    5  A    between atoms: N_5  and  C_6
REMARK    6  A    between atoms: C_6  and  C_7
REMARK    7  A    between atoms: C_10  and  C_11
REMARK    8  A    between atoms: C_11  and  N_12
REMARK    9  A    between atoms: N_12  and  C_13
REMARK   10  A    between atoms: C_13  and  C_14
REMARK   11  A    between atoms: C_22  and  C_24
REMARK                            x       y       z     vdW  Elec       q    Type
REMARK                         _______ _______ _______ _____ _____    ______ ____
ROOT
ATOM      1  N   UNL     1      45.989   7.060  12.310  0.00  0.00    +0.000 N 
ATOM      2  C   UNL     1      44.782   6.622  11.710  0.00  0.00    +0.000 C 
ATOM      3  O   UNL     1      43.957   7.474  11.377  0.00  0.00    +0.000 OA
ENDROOT
BRANCH   2   4
ATOM      4  C   UNL     1      44.444   5.181  11.503  0.00  0.00    +0.000 A 
ATOM      5  C   UNL     1      43.749   4.347  12.367  0.00  0.00    +0.000 A 
ATOM      6  S   UNL     1      43.397   2.792  11.793  0.00  0.00    +0.000 S 
ATOM      7  C   UNL     1      44.170   3.126  10.326  0.00  0.00    +0.000 A 
ATOM      8  N   UNL     1      44.165   2.190   9.354  0.00  0.00    +0.000 NA
ATOM      9  C   UNL     1      44.745   2.566   8.264  0.00  0.00    +0.000 A 
ATOM     10  N   UNL     1      45.347   3.781   8.085  0.00  0.00    +0.000 N 
ATOM     11  C   UNL     1      45.496   4.710   9.095  0.00  0.00    +0.000 A 
ATOM     12  O   UNL     1      46.277   5.642   8.952  0.00  0.00    +0.000 OA
ATOM     13  C   UNL     1      44.738   4.394  10.303  0.00  0.00    +0.000 A 
ATOM     14  H   UNL     1      45.866   3.971   7.241  0.00  0.00    +0.000 HD
ENDBRANCH   2   4
BRANCH   1  15
ATOM     15  C   UNL     1      46.247   8.516  12.276  0.00  0.00    +0.000 C 
BRANCH  15  16
ATOM     16  C   UNL     1      47.711   8.961  12.318  0.00  0.00    +0.000 C 
BRANCH  16  17
ATOM     17  C   UNL     1      48.175   9.531  13.656  0.00  0.00    +0.000 C 
BRANCH  17  18
ATOM     18  N   UNL     1      47.267   9.191  14.749  0.00  0.00    +0.000 NA
ATOM     19  H   UNL     1      46.478   9.838  14.733  0.00  0.00    +0.000 HD
ATOM     20  H   UNL     1      47.732   9.338  15.644  0.00  0.00    +0.000 HD
ENDBRANCH  17  18
ENDBRANCH  16  17
ENDBRANCH  15  16
ENDBRANCH   1  15
BRANCH   1  21
ATOM     21  C   UNL     1      47.184   6.248  12.516  0.00  0.00    +0.000 C 
BRANCH  21  22
ATOM     22  C   UNL     1      47.188   5.297  13.697  0.00  0.00    +0.000 A 
ATOM     23  C   UNL     1      47.536   5.788  14.958  0.00  0.00    +0.000 A 
ATOM     24  C   UNL     1      47.852   4.913  15.997  0.00  0.00    +0.000 A 
ATOM     25  C   UNL     1      47.831   3.545  15.755  0.00  0.00    +0.000 A 
ATOM     26  N   UNL     1      47.397   3.033  14.578  0.00  0.00    +0.000 NA
ATOM     27  C   UNL     1      47.061   3.913  13.598  0.00  0.00    +0.000 A 
BRANCH  25  28
ATOM     28  C   UNL     1      48.401   2.579  16.781  0.00  0.00    +0.000 C 
BRANCH  28  29
ATOM     29  N   UNL     1      49.802   2.190  16.540  0.00  0.00    +0.000 NA
ATOM     30  H   UNL     1      50.126   2.741  15.740  0.00  0.00    +0.000 HD
BRANCH  29  31
ATOM     31  C   UNL     1      50.681   2.526  17.673  0.00  0.00    +0.000 C 
BRANCH  31  32
ATOM     32  C   UNL     1      50.740   4.021  17.935  0.00  0.00    +0.000 A 
ATOM     33  C   UNL     1      50.307   4.543  19.153  0.00  0.00    +0.000 A 
ATOM     34  C   UNL     1      50.399   5.915  19.371  0.00  0.00    +0.000 A 
ATOM     35  C   UNL     1      50.913   6.731  18.371  0.00  0.00    +0.000 A 
ATOM     36  C   UNL     1      51.311   6.138  17.186  0.00  0.00    +0.000 A 
ATOM     37  N   UNL     1      51.233   4.810  16.944  0.00  0.00    +0.000 NA
ENDBRANCH  31  32
ENDBRANCH  29  31
ENDBRANCH  28  29
ENDBRANCH  25  28
ENDBRANCH  21  22
ENDBRANCH   1  21
TORSDOF 11
ENDMDL
MODEL 5
REMARK VINA RESULT:    -6.875      2.245      2.951
REMARK INTER + INTRA:         -12.912
REMARK INTER:                 -11.311
REMARK INTRA:                  -1.601
REMARK UNBOUND:                -1.817
REMARK  Name = 
REMARK  11 active torsions:
REMARK  status: ('A' for Active; 'I' for Inactive)
REMARK    1  A    between atoms: N_1  and  C_2
REMARK    2  A    between atoms: C_2  and  C_3
REMARK    3  A    between atoms: C_3  and  C_4
REMARK    4  A    between atoms: C_4  and  N_5
REMARK    5  A    between atoms: N_5  and  C_6
REMARK    6  A    between atoms: C_6  and  C_7
REMARK    7  A    between atoms: C_10  and  C_11
REMARK    8  A    between atoms: C_11  and  N_12
REMARK    9  A    between atoms: N_12  and  C_13
REMARK   10  A    between atoms: C_13  and  C_14
REMARK   11  A    between atoms: C_22  and  C_24
REMARK                            x       y       z     vdW  Elec       q    Type
REMARK                         _______ _______ _______ _____ _____    ______ ____
ROOT
ATOM      1  N   UNL     1      48.756   7.622  14.714  0.00  0.00    +0.000 N 
ATOM      2  C   UNL     1      48.653   7.400  16.110  0.00  0.00    +0.000 C 
ATOM      3  O   UNL     1      48.386   8.362  16.832  0.00  0.00    +0.000 OA
ENDROOT
BRANCH   2   4
ATOM      4  C   UNL     1      48.897   6.072  16.750  0.00  0.00    +0.000 A 
ATOM      5  C   UNL     1      47.957   5.101  17.059  0.00  0.00    +0.000 A 
ATOM      6  S   UNL     1      48.558   3.632  17.656  0.00  0.00    +0.000 S 
ATOM      7  C   UNL     1      50.145   4.205  17.550  0.00  0.00    +0.000 A 
ATOM      8  N   UNL     1      51.163   3.379  17.871  0.00  0.00    +0.000 NA
ATOM      9  C   UNL     1      52.331   3.904  17.714  0.00  0.00    +0.000 A 
ATOM     10  N   UNL     1      52.556   5.186  17.292  0.00  0.00    +0.000 N 
ATOM     11  C   UNL     1      51.545   6.104  17.088  0.00  0.00    +0.000 A 
ATOM     12  O   UNL     1      51.818   7.293  16.987  0.00  0.00    +0.000 OA
ATOM     13  C   UNL     1      50.206   5.524  17.117  0.00  0.00    +0.000 A 
ATOM     14  H   UNL     1      53.492   5.561  17.285  0.00  0.00    +0.000 HD
ENDBRANCH   2   4
BRANCH   1  15
ATOM     15  C   UNL     1      48.308   8.944  14.226  0.00  0.00    +0.000 C 
BRANCH  15  16
ATOM     16  C   UNL     1      49.393   9.997  13.985  0.00  0.00    +0.000 C 
BRANCH  16  17
ATOM     17  C   UNL     1      49.114  11.365  14.602  0.00  0.00    +0.000 C 
BRANCH  17  18
ATOM     18  N   UNL     1      48.567  11.264  15.954  0.00  0.00    +0.000 NA
ATOM     19  H   UNL     1      47.882  12.009  16.086  0.00  0.00    +0.000 HD
ATOM     20  H   UNL     1      49.302  11.433  16.639  0.00  0.00    +0.000 HD
ENDBRANCH  17  18
ENDBRANCH  16  17
ENDBRANCH  15  16
ENDBRANCH   1  15
BRANCH   1  21
ATOM     21  C   UNL     1      48.788   6.588  13.685  0.00  0.00    +0.000 C 
BRANCH  21  22
ATOM     22  C   UNL     1      47.459   6.092  13.149  0.00  0.00    +0.000 A 
ATOM     23  C   UNL     1      46.916   4.917  13.676  0.00  0.00    +0.000 A 
ATOM     24  C   UNL     1      45.875   4.261  13.020  0.00  0.00    +0.000 A 
ATOM     25  C   UNL     1      45.396   4.785  11.825  0.00  0.00    +0.000 A 
ATOM     26  N   UNL     1      45.827   5.976  11.342  0.00  0.00    +0.000 NA
ATOM     27  C   UNL     1      46.817   6.608  12.026  0.00  0.00    +0.000 A 
BRANCH  25  28
ATOM     28  C   UNL     1      44.441   3.975  10.964  0.00  0.00    +0.000 C 
BRANCH  28  29
ATOM     29  N   UNL     1      44.866   2.583  10.724  0.00  0.00    +0.000 NA
ATOM     30  H   UNL     1      44.387   2.007  11.422  0.00  0.00    +0.000 HD
BRANCH  29  31
ATOM     31  C   UNL     1      44.449   2.088   9.402  0.00  0.00    +0.000 C 
BRANCH  31  32
ATOM     32  C   UNL     1      45.563   2.181   8.373  0.00  0.00    +0.000 A 
ATOM     33  C   UNL     1      45.776   3.364   7.667  0.00  0.00    +0.000 A 
ATOM     34  C   UNL     1      46.821   3.425   6.750  0.00  0.00    +0.000 A 
ATOM     35  C   UNL     1      47.623   2.306   6.556  0.00  0.00    +0.000 A 
ATOM     36  C   UNL     1      47.339   1.166   7.287  0.00  0.00    +0.000 A 
ATOM     37  N   UNL     1      46.331   1.076   8.182  0.00  0.00    +0.000 NA
ENDBRANCH  31  32
ENDBRANCH  29  31
ENDBRANCH  28  29
ENDBRANCH  25  28
ENDBRANCH  21  22
ENDBRANCH   1  21
TORSDOF 11
ENDMDL
MODEL 6
REMARK VINA RESULT:    -6.869      1.977      2.427
REMARK INTER + INTRA:         -12.902
REMARK INTER:                 -11.361
REMARK INTRA:                  -1.541
REMARK UNBOUND:                -1.817
REMARK  Name = 
REMARK  11 active torsions:
REMARK  status: ('A' for Active; 'I' for Inactive)
REMARK    1  A    between atoms: N_1  and  C_2
REMARK    2  A    between atoms: C_2  and  C_3
REMARK    3  A    between atoms: C_3  and  C_4
REMARK    4  A    between atoms: C_4  and  N_5
REMARK    5  A    between atoms: N_5  and  C_6
REMARK    6  A    between atoms: C_6  and  C_7
REMARK    7  A    between atoms: C_10  and  C_11
REMARK    8  A    between atoms: C_11  and  N_12
REMARK    9  A    between atoms: N_12  and  C_13
REMARK   10  A    between atoms: C_13  and  C_14
REMARK   11  A    between atoms: C_22  and  C_24
REMARK                            x       y       z     vdW  Elec       q    Type
REMARK                         _______ _______ _______ _____ _____    ______ ____
ROOT
ATOM      1  N   UNL     1      48.159   7.811  13.981  0.00  0.00    +0.000 N 
ATOM      2  C   UNL     1      48.894   8.109  15.156  0.00  0.00    +0.000 C 
ATOM      3  O   UNL     1      48.635   9.156  15.752  0.00  0.00    +0.000 OA
ENDROOT
BRANCH   2   4
ATOM      4  C   UNL     1      49.993   7.242  15.679  0.00  0.00    +0.000 A 
ATOM      5  C   UNL     1      51.358   7.418  15.507  0.00  0.00    +0.000 A 
ATOM      6  S   UNL     1      52.368   6.342  16.342  0.00  0.00    +0.000 S 
ATOM      7  C   UNL     1      51.027   5.546  16.997  0.00  0.00    +0.000 A 
ATOM      8  N   UNL     1      51.226   4.535  17.869  0.00  0.00    +0.000 NA
ATOM      9  C   UNL     1      50.136   4.028  18.338  0.00  0.00    +0.000 A 
ATOM     10  N   UNL     1      48.878   4.431  17.985  0.00  0.00    +0.000 N 
ATOM     11  C   UNL     1      48.630   5.363  16.997  0.00  0.00    +0.000 A 
ATOM     12  O   UNL     1      47.500   5.473  16.537  0.00  0.00    +0.000 OA
ATOM     13  C   UNL     1      49.824   6.065  16.535  0.00  0.00    +0.000 A 
ATOM     14  H   UNL     1      48.071   3.926  18.318  0.00  0.00    +0.000 HD
ENDBRANCH   2   4
BRANCH   1  15
ATOM     15  C   UNL     1      46.991   8.673  13.703  0.00  0.00    +0.000 C 
BRANCH  15  16
ATOM     16  C   UNL     1      47.099   9.621  12.505  0.00  0.00    +0.000 C 
BRANCH  16  17
ATOM     17  C   UNL     1      48.273  10.596  12.557  0.00  0.00    +0.000 C 
BRANCH  17  18
ATOM     18  N   UNL     1      48.243  11.437  13.751  0.00  0.00    +0.000 NA
ATOM     19  H   UNL     1      47.282  11.482  14.096  0.00  0.00    +0.000 HD
ATOM     20  H   UNL     1      48.498  12.394  13.508  0.00  0.00    +0.000 HD
ENDBRANCH  17  18
ENDBRANCH  16  17
ENDBRANCH  15  16
ENDBRANCH   1  15
BRANCH   1  21
ATOM     21  C   UNL     1      48.122   6.519  13.302  0.00  0.00    +0.000 C 
BRANCH  21  22
ATOM     22  C   UNL     1      46.779   6.039  12.788  0.00  0.00    +0.000 A 
ATOM     23  C   UNL     1      46.019   5.180  13.586  0.00  0.00    +0.000 A 
ATOM     24  C   UNL     1      44.944   4.474  13.046  0.00  0.00    +0.000 A 
ATOM     25  C   UNL     1      44.650   4.626  11.696  0.00  0.00    +0.000 A 
ATOM     26  N   UNL     1      45.299   5.528  10.919  0.00  0.00    +0.000 NA
ATOM     27  C   UNL     1      46.317   6.226  11.487  0.00  0.00    +0.000 A 
BRANCH  25  28
ATOM     28  C   UNL     1      43.653   3.698  11.022  0.00  0.00    +0.000 C 
BRANCH  28  29
ATOM     29  N   UNL     1      43.977   3.366   9.623  0.00  0.00    +0.000 NA
ATOM     30  H   UNL     1      44.557   4.131   9.267  0.00  0.00    +0.000 HD
BRANCH  29  31
ATOM     31  C   UNL     1      44.776   2.135   9.507  0.00  0.00    +0.000 C 
BRANCH  31  32
ATOM     32  C   UNL     1      45.755   2.188   8.347  0.00  0.00    +0.000 A 
ATOM     33  C   UNL     1      45.895   3.353   7.594  0.00  0.00    +0.000 A 
ATOM     34  C   UNL     1      46.821   3.378   6.555  0.00  0.00    +0.000 A 
ATOM     35  C   UNL     1      47.578   2.243   6.289  0.00  0.00    +0.000 A 
ATOM     36  C   UNL     1      47.371   1.123   7.075  0.00  0.00    +0.000 A 
ATOM     37  N   UNL     1      46.480   1.068   8.089  0.00  0.00    +0.000 NA
ENDBRANCH  31  32
ENDBRANCH  29  31
ENDBRANCH  28  29
ENDBRANCH  25  28
ENDBRANCH  21  22
ENDBRANCH   1  21
TORSDOF 11
ENDMDL
MODEL 7
REMARK VINA RESULT:    -6.751      4.051      8.247
REMARK INTER + INTRA:         -12.711
REMARK INTER:                 -10.911
REMARK INTRA:                  -1.800
REMARK UNBOUND:                -1.817
REMARK  Name = 
REMARK  11 active torsions:
REMARK  status: ('A' for Active; 'I' for Inactive)
REMARK    1  A    between atoms: N_1  and  C_2
REMARK    2  A    between atoms: C_2  and  C_3
REMARK    3  A    between atoms: C_3  and  C_4
REMARK    4  A    between atoms: C_4  and  N_5
REMARK    5  A    between atoms: N_5  and  C_6
REMARK    6  A    between atoms: C_6  and  C_7
REMARK    7  A    between atoms: C_10  and  C_11
REMARK    8  A    between atoms: C_11  and  N_12
REMARK    9  A    between atoms: N_12  and  C_13
REMARK   10  A    between atoms: C_13  and  C_14
REMARK   11  A    between atoms: C_22  and  C_24
REMARK                            x       y       z     vdW  Elec       q    Type
REMARK                         _______ _______ _______ _____ _____    ______ ____
ROOT
ATOM      1  N   UNL     1      46.501   7.328  12.714  0.00  0.00    +0.000 N 
ATOM      2  C   UNL     1      45.515   7.288  11.696  0.00  0.00    +0.000 C 
ATOM      3  O   UNL     1      44.862   8.310  11.481  0.00  0.00    +0.000 OA
ENDROOT
BRANCH   2   4
ATOM      4  C   UNL     1      45.201   6.059  10.906  0.00  0.00    +0.000 A 
ATOM      5  C   UNL     1      45.604   5.764   9.612  0.00  0.00    +0.000 A 
ATOM      6  S   UNL     1      45.204   4.223   9.031  0.00  0.00    +0.000 S 
ATOM      7  C   UNL     1      44.444   3.837  10.492  0.00  0.00    +0.000 A 
ATOM      8  N   UNL     1      43.930   2.600  10.657  0.00  0.00    +0.000 NA
ATOM      9  C   UNL     1      43.411   2.401  11.822  0.00  0.00    +0.000 A 
ATOM     10  N   UNL     1      43.343   3.343  12.812  0.00  0.00    +0.000 N 
ATOM     11  C   UNL     1      43.729   4.657  12.636  0.00  0.00    +0.000 A 
ATOM     12  O   UNL     1      43.387   5.503  13.452  0.00  0.00    +0.000 OA
ATOM     13  C   UNL     1      44.448   4.898  11.388  0.00  0.00    +0.000 A 
ATOM     14  H   UNL     1      42.837   3.149  13.663  0.00  0.00    +0.000 HD
ENDBRANCH   2   4
BRANCH   1  15
ATOM     15  C   UNL     1      46.812   8.662  13.272  0.00  0.00    +0.000 C 
BRANCH  15  16
ATOM     16  C   UNL     1      47.926   9.457  12.587  0.00  0.00    +0.000 C 
BRANCH  16  17
ATOM     17  C   UNL     1      47.456  10.676  11.796  0.00  0.00    +0.000 C 
BRANCH  17  18
ATOM     18  N   UNL     1      46.109  11.097  12.173  0.00  0.00    +0.000 NA
ATOM     19  H   UNL     1      45.498  10.279  12.171  0.00  0.00    +0.000 HD
ATOM     20  H   UNL     1      45.733  11.729  11.467  0.00  0.00    +0.000 HD
ENDBRANCH  17  18
ENDBRANCH  16  17
ENDBRANCH  15  16
ENDBRANCH   1  15
BRANCH   1  21
ATOM     21  C   UNL     1      47.547   6.333  12.930  0.00  0.00    +0.000 C 
BRANCH  21  22
ATOM     22  C   UNL     1      47.448   5.474  14.175  0.00  0.00    +0.000 A 
ATOM     23  C   UNL     1      47.970   5.964  15.375  0.00  0.00    +0.000 A 
ATOM     24  C   UNL     1      48.182   5.110  16.457  0.00  0.00    +0.000 A 
ATOM     25  C   UNL     1      47.882   3.760  16.318  0.00  0.00    +0.000 A 
ATOM     26  N   UNL     1      47.278   3.272  15.207  0.00  0.00    +0.000 NA
ATOM     27  C   UNL     1      47.051   4.139  14.185  0.00  0.00    +0.000 A 
BRANCH  25  28
ATOM     28  C   UNL     1      48.324   2.766  17.379  0.00  0.00    +0.000 C 
BRANCH  28  29
ATOM     29  N   UNL     1      49.732   2.903  17.795  0.00  0.00    +0.000 NA
ATOM     30  H   UNL     1      49.773   2.634  18.782  0.00  0.00    +0.000 HD
BRANCH  29  31
ATOM     31  C   UNL     1      50.626   1.988  17.065  0.00  0.00    +0.000 C 
BRANCH  31  32
ATOM     32  C   UNL     1      52.009   1.914  17.688  0.00  0.00    +0.000 A 
ATOM     33  C   UNL     1      52.748   0.733  17.630  0.00  0.00    +0.000 A 
ATOM     34  C   UNL     1      54.024   0.706  18.187  0.00  0.00    +0.000 A 
ATOM     35  C   UNL     1      54.527   1.851  18.791  0.00  0.00    +0.000 A 
ATOM     36  C   UNL     1      53.727   2.980  18.818  0.00  0.00    +0.000 A 
ATOM     37  N   UNL     1      52.486   3.036  18.288  0.00  0.00    +0.000 NA
ENDBRANCH  31  32
ENDBRANCH  29  31
ENDBRANCH  28  29
ENDBRANCH  25  28
ENDBRANCH  21  22
ENDBRANCH   1  21
TORSDOF 11
ENDMDL
MODEL 8
REMARK VINA RESULT:    -6.739      3.859      8.497
REMARK INTER + INTRA:         -12.693
REMARK INTER:                 -11.350
REMARK INTRA:                  -1.343
REMARK UNBOUND:                -1.817
REMARK  Name = 
REMARK  11 active torsions:
REMARK  status: ('A' for Active; 'I' for Inactive)
REMARK    1  A    between atoms: N_1  and  C_2
REMARK    2  A    between atoms: C_2  and  C_3
REMARK    3  A    between atoms: C_3  and  C_4
REMARK    4  A    between atoms: C_4  and  N_5
REMARK    5  A    between atoms: N_5  and  C_6
REMARK    6  A    between atoms: C_6  and  C_7
REMARK    7  A    between atoms: C_10  and  C_11
REMARK    8  A    between atoms: C_11  and  N_12
REMARK    9  A    between atoms: N_12  and  C_13
REMARK   10  A    between atoms: C_13  and  C_14
REMARK   11  A    between atoms: C_22  and  C_24
REMARK                            x       y       z     vdW  Elec       q    Type
REMARK                         _______ _______ _______ _____ _____    ______ ____
ROOT
ATOM      1  N   UNL     1      46.502   7.009  12.576  0.00  0.00    +0.000 N 
ATOM      2  C   UNL     1      45.333   6.671  11.850  0.00  0.00    +0.000 C 
ATOM      3  O   UNL     1      44.667   7.587  11.365  0.00  0.00    +0.000 OA
ENDROOT
BRANCH   2   4
ATOM      4  C   UNL     1      44.846   5.268  11.684  0.00  0.00    +0.000 A 
ATOM      5  C   UNL     1      44.186   4.490  12.623  0.00  0.00    +0.000 A 
ATOM      6  S   UNL     1      43.632   2.977  12.094  0.00  0.00    +0.000 S 
ATOM      7  C   UNL     1      44.255   3.258  10.547  0.00  0.00    +0.000 A 
ATOM      8  N   UNL     1      44.053   2.336   9.582  0.00  0.00    +0.000 NA
ATOM      9  C   UNL     1      44.534   2.671   8.432  0.00  0.00    +0.000 A 
ATOM     10  N   UNL     1      45.216   3.830   8.183  0.00  0.00    +0.000 N 
ATOM     11  C   UNL     1      45.563   4.732   9.169  0.00  0.00    +0.000 A 
ATOM     12  O   UNL     1      46.402   5.592   8.936  0.00  0.00    +0.000 OA
ATOM     13  C   UNL     1      44.927   4.471  10.458  0.00  0.00    +0.000 A 
ATOM     14  H   UNL     1      45.647   3.983   7.284  0.00  0.00    +0.000 HD
ENDBRANCH   2   4
BRANCH   1  15
ATOM     15  C   UNL     1      46.941   8.419  12.492  0.00  0.00    +0.000 C 
BRANCH  15  16
ATOM     16  C   UNL     1      48.384   8.721  12.903  0.00  0.00    +0.000 C 
BRANCH  16  17
ATOM     17  C   UNL     1      48.532   9.601  14.142  0.00  0.00    +0.000 C 
BRANCH  17  18
ATOM     18  N   UNL     1      47.507   9.323  15.146  0.00  0.00    +0.000 NA
ATOM     19  H   UNL     1      46.743   8.814  14.700  0.00  0.00    +0.000 HD
ATOM     20  H   UNL     1      47.104  10.197  15.480  0.00  0.00    +0.000 HD
ENDBRANCH  17  18
ENDBRANCH  16  17
ENDBRANCH  15  16
ENDBRANCH   1  15
BRANCH   1  21
ATOM     21  C   UNL     1      47.554   6.082  12.981  0.00  0.00    +0.000 C 
BRANCH  21  22
ATOM     22  C   UNL     1      47.477   5.508  14.383  0.00  0.00    +0.000 A 
ATOM     23  C   UNL     1      48.280   6.063  15.383  0.00  0.00    +0.000 A 
ATOM     24  C   UNL     1      48.478   5.391  16.589  0.00  0.00    +0.000 A 
ATOM     25  C   UNL     1      47.877   4.151  16.774  0.00  0.00    +0.000 A 
ATOM     26  N   UNL     1      47.011   3.634  15.870  0.00  0.00    +0.000 NA
ATOM     27  C   UNL     1      46.811   4.333  14.722  0.00  0.00    +0.000 A 
BRANCH  25  28
ATOM     28  C   UNL     1      48.263   3.286  17.962  0.00  0.00    +0.000 C 
BRANCH  28  29
ATOM     29  N   UNL     1      49.714   3.206  18.213  0.00  0.00    +0.000 NA
ATOM     30  H   UNL     1      49.827   2.849  19.166  0.00  0.00    +0.000 HD
BRANCH  29  31
ATOM     31  C   UNL     1      50.388   2.252  17.317  0.00  0.00    +0.000 C 
BRANCH  31  32
ATOM     32  C   UNL     1      51.836   2.013  17.712  0.00  0.00    +0.000 A 
ATOM     33  C   UNL     1      52.444   0.784  17.457  0.00  0.00    +0.000 A 
ATOM     34  C   UNL     1      53.780   0.606  17.808  0.00  0.00    +0.000 A 
ATOM     35  C   UNL     1      54.472   1.652  18.407  0.00  0.00    +0.000 A 
ATOM     36  C   UNL     1      53.794   2.836  18.636  0.00  0.00    +0.000 A 
ATOM     37  N   UNL     1      52.498   3.038  18.309  0.00  0.00    +0.000 NA
ENDBRANCH  31  32
ENDBRANCH  29  31
ENDBRANCH  28  29
ENDBRANCH  25  28
ENDBRANCH  21  22
ENDBRANCH   1  21
TORSDOF 11
ENDMDL
MODEL 9
REMARK VINA RESULT:    -6.678      3.340      8.718
REMARK INTER + INTRA:         -12.593
REMARK INTER:                 -10.637
REMARK INTRA:                  -1.956
REMARK UNBOUND:                -1.817
REMARK  Name = 
REMARK  11 active torsions:
REMARK  status: ('A' for Active; 'I' for Inactive)
REMARK    1  A    between atoms: N_1  and  C_2
REMARK    2  A    between atoms: C_2  and  C_3
REMARK    3  A    between atoms: C_3  and  C_4
REMARK    4  A    between atoms: C_4  and  N_5
REMARK    5  A    between atoms: N_5  and  C_6
REMARK    6  A    between atoms: C_6  and  C_7
REMARK    7  A    between atoms: C_10  and  C_11
REMARK    8  A    between atoms: C_11  and  N_12
REMARK    9  A    between atoms: N_12  and  C_13
REMARK   10  A    between atoms: C_13  and  C_14
REMARK   11  A    between atoms: C_22  and  C_24
REMARK                            x       y       z     vdW  Elec       q    Type
REMARK                         _______ _______ _______ _____ _____    ______ ____
ROOT
ATOM      1  N   UNL     1      46.086   7.125  12.269  0.00  0.00    +0.000 N 
ATOM      2  C   UNL     1      44.832   6.685  11.776  0.00  0.00    +0.000 C 
ATOM      3  O   UNL     1      43.971   7.534  11.543  0.00  0.00    +0.000 OA
ENDROOT
BRANCH   2   4
ATOM      4  C   UNL     1      44.491   5.245  11.569  0.00  0.00    +0.000 A 
ATOM      5  C   UNL     1      43.813   4.407  12.442  0.00  0.00    +0.000 A 
ATOM      6  S   UNL     1      43.450   2.854  11.867  0.00  0.00    +0.000 S 
ATOM      7  C   UNL     1      44.194   3.196  10.387  0.00  0.00    +0.000 A 
ATOM      8  N   UNL     1      44.171   2.264   9.411  0.00  0.00    +0.000 NA
ATOM      9  C   UNL     1      44.731   2.646   8.312  0.00  0.00    +0.000 A 
ATOM     10  N   UNL     1      45.329   3.862   8.127  0.00  0.00    +0.000 N 
ATOM     11  C   UNL     1      45.496   4.786   9.139  0.00  0.00    +0.000 A 
ATOM     12  O   UNL     1      46.274   5.719   8.985  0.00  0.00    +0.000 OA
ATOM     13  C   UNL     1      44.762   4.464  10.360  0.00  0.00    +0.000 A 
ATOM     14  H   UNL     1      45.831   4.056   7.274  0.00  0.00    +0.000 HD
ENDBRANCH   2   4
BRANCH   1  15
ATOM     15  C   UNL     1      46.325   8.584  12.244  0.00  0.00    +0.000 C 
BRANCH  15  16
ATOM     16  C   UNL     1      47.758   9.046  11.969  0.00  0.00    +0.000 C 
BRANCH  16  17
ATOM     17  C   UNL     1      48.405   9.851  13.094  0.00  0.00    +0.000 C 
BRANCH  17  18
ATOM     18  N   UNL     1      47.831  11.189  13.221  0.00  0.00    +0.000 NA
ATOM     19  H   UNL     1      47.076  11.157  13.907  0.00  0.00    +0.000 HD
ATOM     20  H   UNL     1      47.398  11.465  12.340  0.00  0.00    +0.000 HD
ENDBRANCH  17  18
ENDBRANCH  16  17
ENDBRANCH  15  16
ENDBRANCH   1  15
BRANCH   1  21
ATOM     21  C   UNL     1      47.304   6.323  12.342  0.00  0.00    +0.000 C 
BRANCH  21  22
ATOM     22  C   UNL     1      47.644   5.689  13.677  0.00  0.00    +0.000 A 
ATOM     23  C   UNL     1      47.033   4.481  14.024  0.00  0.00    +0.000 A 
ATOM     24  C   UNL     1      47.068   4.021  15.340  0.00  0.00    +0.000 A 
ATOM     25  C   UNL     1      47.706   4.791  16.306  0.00  0.00    +0.000 A 
ATOM     26  N   UNL     1      48.398   5.911  15.984  0.00  0.00    +0.000 NA
ATOM     27  C   UNL     1      48.374   6.312  14.686  0.00  0.00    +0.000 A 
BRANCH  25  28
ATOM     28  C   UNL     1      47.556   4.448  17.778  0.00  0.00    +0.000 C 
BRANCH  28  29
ATOM     29  N   UNL     1      46.631   5.326  18.518  0.00  0.00    +0.000 NA
ATOM     30  H   UNL     1      45.902   4.722  18.907  0.00  0.00    +0.000 HD
BRANCH  29  31
ATOM     31  C   UNL     1      47.282   5.997  19.656  0.00  0.00    +0.000 C 
BRANCH  31  32
ATOM     32  C   UNL     1      47.996   7.273  19.242  0.00  0.00    +0.000 A 
ATOM     33  C   UNL     1      49.389   7.341  19.261  0.00  0.00    +0.000 A 
ATOM     34  C   UNL     1      50.013   8.515  18.851  0.00  0.00    +0.000 A 
ATOM     35  C   UNL     1      49.237   9.592  18.439  0.00  0.00    +0.000 A 
ATOM     36  C   UNL     1      47.861   9.449  18.460  0.00  0.00    +0.000 A 
ATOM     37  N   UNL     1      47.226   8.323  18.854  0.00  0.00    +0.000 NA
ENDBRANCH  31  32
ENDBRANCH  29  31
ENDBRANCH  28  29
ENDBRANCH  25  28
ENDBRANCH  21  22
ENDBRANCH   1  21
TORSDOF 11
ENDMDL
