MODEL 1
REMARK VINA RESULT:    -8.133      0.000      0.000
REMARK INTER + INTRA:         -13.148
REMARK INTER:                 -11.937
REMARK INTRA:                  -1.211
REMARK UNBOUND:                -1.211
REMARK  Name = 
REMARK  9 active torsions:
REMARK  status: ('A' for Active; 'I' for Inactive)
REMARK    1  A    between atoms: C_1  and  O_2
REMARK    2  A    between atoms: O_2  and  C_3
REMARK    3  A    between atoms: C_10  and  C_11
REMARK    4  A    between atoms: N_13  and  C_14
REMARK    5  A    between atoms: C_14  and  C_15
REMARK    6  A    between atoms: C_18  and  C_19
REMARK    7  A    between atoms: C_19  and  O_20
REMARK    8  A    between atoms: O_20  and  C_21
REMARK    9  A    between atoms: C_21  and  C_22
REMARK                            x       y       z     vdW  Elec       q    Type
REMARK                         _______ _______ _______ _____ _____    ______ ____
ROOT
ATOM      1  C   UNL     1      47.816   7.036  13.189  0.00  0.00    +0.000 C 
ENDROOT
BRANCH   1   2
ATOM      2  C   UNL     1      46.668   6.199  12.676  0.00  0.00    +0.000 A 
ATOM      3  C   UNL     1      46.259   6.288  11.338  0.00  0.00    +0.000 A 
ATOM      4  C   UNL     1      45.260   5.444  10.839  0.00  0.00    +0.000 A 
ATOM      5  C   UNL     1      44.642   4.501  11.670  0.00  0.00    +0.000 A 
ATOM      6  C   UNL     1      44.999   4.458  13.023  0.00  0.00    +0.000 A 
ATOM      7  C   UNL     1      45.999   5.302  13.522  0.00  0.00    +0.000 A 
BRANCH   5   8
ATOM      8  C   UNL     1      43.645   3.520  11.100  0.00  0.00    +0.000 C 
BRANCH   8   9
ATOM      9  O   UNL     1      43.866   3.300   9.706  0.00  0.00    +0.000 OA
BRANCH   9  10
ATOM     10  C   UNL     1      44.448   2.018   9.438  0.00  0.00    +0.000 C 
BRANCH  10  11
ATOM     11  C   UNL     1      45.537   2.140   8.397  0.00  0.00    +0.000 A 
ATOM     12  C   UNL     1      45.733   3.349   7.731  0.00  0.00    +0.000 A 
ATOM     13  C   UNL     1      46.767   3.451   6.805  0.00  0.00    +0.000 A 
ATOM     14  C   UNL     1      47.577   2.347   6.569  0.00  0.00    +0.000 A 
ATOM     15  C   UNL     1      47.321   1.184   7.275  0.00  0.00    +0.000 A 
ATOM     16  N   UNL     1      46.328   1.057   8.184  0.00  0.00    +0.000 NA
ENDBRANCH  10  11
ENDBRANCH   9  10
ENDBRANCH   8   9
ENDBRANCH   5   8
ENDBRANCH   1   2
BRANCH   1  19
ATOM     17  C   UNL     1      49.002   7.044  15.349  0.00  0.00    +0.000 C 
ATOM     18  O   UNL     1      50.089   6.909  14.794  0.00  0.00    +0.000 OA
ATOM     19  N   UNL     1      47.838   7.108  14.626  0.00  0.00    +0.000 N 
ATOM     20  H   UNL     1      46.949   7.144  15.102  0.00  0.00    +0.000 HD
BRANCH  17  28
ATOM     21  C   UNL     1      48.846   4.711  17.870  0.00  0.00    +0.000 A 
ATOM     22  N   UNL     1      48.766   4.020  19.020  0.00  0.00    +0.000 NA
ATOM     23  C   UNL     1      48.651   4.713  20.157  0.00  0.00    +0.000 A 
ATOM     24  N   UNL     1      48.605   6.037  20.291  0.00  0.00    +0.000 NA
ATOM     25  C   UNL     1      48.700   6.687  19.117  0.00  0.00    +0.000 A 
ATOM     26  S   UNL     1      48.662   8.384  19.090  0.00  0.00    +0.000 S 
ATOM     27  C   UNL     1      48.812   8.409  17.396  0.00  0.00    +0.000 A 
ATOM     28  C   UNL     1      48.894   7.145  16.818  0.00  0.00    +0.000 A 
ATOM     29  C   UNL     1      48.827   6.118  17.855  0.00  0.00    +0.000 A 
BRANCH  21  31
ATOM     30  C   UNL     1      47.826   3.386  16.227  0.00  0.00    +0.000 C 
ATOM     31  O   UNL     1      49.014   4.010  16.697  0.00  0.00    +0.000 OA
ENDBRANCH  21  31
ENDBRANCH  17  28
ENDBRANCH   1  19
TORSDOF 8
ENDMDL
MODEL 2
REMARK VINA RESULT:    -7.072      1.594      2.380
REMARK INTER + INTRA:         -11.590
REMARK INTER:                 -10.357
REMARK INTRA:                  -1.233
REMARK UNBOUND:                -1.211
REMARK  Name = 
REMARK  9 active torsions:
REMARK  status: ('A' for Active; 'I' for Inactive)
REMARK    1  A    between atoms: C_1  and  O_2
REMARK    2  A    between atoms: O_2  and  C_3
REMARK    3  A    between atoms: C_10  and  C_11
REMARK    4  A    between atoms: N_13  and  C_14
REMARK    5  A    between atoms: C_14  and  C_15
REMARK    6  A    between atoms: C_18  and  C_19
REMARK    7  A    between atoms: C_19  and  O_20
REMARK    8  A    between atoms: O_20  and  C_21
REMARK    9  A    between atoms: C_21  and  C_22
REMARK                            x       y       z     vdW  Elec       q    Type
REMARK                         _______ _______ _______ _____ _____    ______ ____
ROOT
ATOM      1  C   UNL     1      47.632   4.362  15.064  0.00  0.00    +0.000 C 
ENDROOT
BRANCH   1   2
ATOM      2  C   UNL     1      46.715   4.458  13.867  0.00  0.00    +0.000 A 
ATOM      3  C   UNL     1      46.233   3.301  13.240  0.00  0.00    +0.000 A 
ATOM      4  C   UNL     1      45.309   3.389  12.192  0.00  0.00    +0.000 A 
ATOM      5  C   UNL     1      44.855   4.635  11.745  0.00  0.00    +0.000 A 
ATOM      6  C   UNL     1      45.387   5.794  12.323  0.00  0.00    +0.000 A 
ATOM      7  C   UNL     1      46.311   5.706  13.370  0.00  0.00    +0.000 A 
BRANCH   5   8
ATOM      8  C   UNL     1      43.776   4.720  10.691  0.00  0.00    +0.000 C 
BRANCH   8   9
ATOM      9  O   UNL     1      44.056   3.861   9.584  0.00  0.00    +0.000 OA
BRANCH   9  10
ATOM     10  C   UNL     1      45.064   4.394   8.718  0.00  0.00    +0.000 C 
BRANCH  10  11
ATOM     11  C   UNL     1      45.918   3.281   8.155  0.00  0.00    +0.000 A 
ATOM     12  C   UNL     1      45.677   1.959   8.528  0.00  0.00    +0.000 A 
ATOM     13  C   UNL     1      46.449   0.946   7.967  0.00  0.00    +0.000 A 
ATOM     14  C   UNL     1      47.439   1.277   7.050  0.00  0.00    +0.000 A 
ATOM     15  C   UNL     1      47.613   2.612   6.728  0.00  0.00    +0.000 A 
ATOM     16  N   UNL     1      46.875   3.617   7.252  0.00  0.00    +0.000 NA
ENDBRANCH  10  11
ENDBRANCH   9  10
ENDBRANCH   8   9
ENDBRANCH   5   8
ENDBRANCH   1   2
BRANCH   1  19
ATOM     17  C   UNL     1      48.620   6.445  15.933  0.00  0.00    +0.000 C 
ATOM     18  O   UNL     1      49.647   6.273  15.282  0.00  0.00    +0.000 OA
ATOM     19  N   UNL     1      47.586   5.545  15.882  0.00  0.00    +0.000 N 
ATOM     20  H   UNL     1      46.781   5.665  16.479  0.00  0.00    +0.000 HD
BRANCH  17  28
ATOM     21  C   UNL     1      47.853   6.842  19.261  0.00  0.00    +0.000 A 
ATOM     22  N   UNL     1      47.569   7.266  20.504  0.00  0.00    +0.000 NA
ATOM     23  C   UNL     1      47.525   8.585  20.718  0.00  0.00    +0.000 A 
ATOM     24  N   UNL     1      47.734   9.551  19.827  0.00  0.00    +0.000 NA
ATOM     25  C   UNL     1      48.026   9.081  18.601  0.00  0.00    +0.000 A 
ATOM     26  S   UNL     1      48.326  10.168  17.332  0.00  0.00    +0.000 S 
ATOM     27  C   UNL     1      48.580   8.895  16.235  0.00  0.00    +0.000 A 
ATOM     28  C   UNL     1      48.445   7.629  16.798  0.00  0.00    +0.000 A 
ATOM     29  C   UNL     1      48.114   7.748  18.217  0.00  0.00    +0.000 A 
BRANCH  21  31
ATOM     30  C   UNL     1      48.718   4.799  20.020  0.00  0.00    +0.000 C 
ATOM     31  O   UNL     1      47.950   5.486  19.040  0.00  0.00    +0.000 OA
ENDBRANCH  21  31
ENDBRANCH  17  28
ENDBRANCH   1  19
TORSDOF 8
ENDMDL
MODEL 3
REMARK VINA RESULT:    -6.885      2.824      3.869
REMARK INTER + INTRA:         -11.316
REMARK INTER:                 -10.153
REMARK INTRA:                  -1.163
REMARK UNBOUND:                -1.211
REMARK  Name = 
REMARK  9 active torsions:
REMARK  status: ('A' for Active; 'I' for Inactive)
REMARK    1  A    between atoms: C_1  and  O_2
REMARK    2  A    between atoms: O_2  and  C_3
REMARK    3  A    between atoms: C_10  and  C_11
REMARK    4  A    between atoms: N_13  and  C_14
REMARK    5  A    between atoms: C_14  and  C_15
REMARK    6  A    between atoms: C_18  and  C_19
REMARK    7  A    between atoms: C_19  and  O_20
REMARK    8  A    between atoms: O_20  and  C_21
REMARK    9  A    between atoms: C_21  and  C_22
REMARK                            x       y       z     vdW  Elec       q    Type
REMARK                         _______ _______ _______ _____ _____    ______ ____
ROOT
ATOM      1  C   UNL     1      49.066   7.087  16.582  0.00  0.00    +0.000 C 
ENDROOT
BRANCH   1   2
ATOM      2  C   UNL     1      48.468   6.848  15.216  0.00  0.00    +0.000 A 
ATOM      3  C   UNL     1      47.768   5.666  14.938  0.00  0.00    +0.000 A 
ATOM      4  C   UNL     1      47.133   5.486  13.703  0.00  0.00    +0.000 A 
ATOM      5  C   UNL     1      47.192   6.480  12.719  0.00  0.00    +0.000 A 
ATOM      6  C   UNL     1      47.949   7.632  12.968  0.00  0.00    +0.000 A 
ATOM      7  C   UNL     1      48.584   7.812  14.202  0.00  0.00    +0.000 A 
BRANCH   5   8
ATOM      8  C   UNL     1      46.413   6.327  11.434  0.00  0.00    +0.000 C 
BRANCH   8   9
ATOM      9  O   UNL     1      45.576   5.170  11.464  0.00  0.00    +0.000 OA
BRANCH   9  10
ATOM     10  C   UNL     1      44.744   5.065  10.302  0.00  0.00    +0.000 C 
BRANCH  10  11
ATOM     11  C   UNL     1      45.334   4.079   9.319  0.00  0.00    +0.000 A 
ATOM     12  C   UNL     1      45.189   2.709   9.531  0.00  0.00    +0.000 A 
ATOM     13  C   UNL     1      45.705   1.821   8.593  0.00  0.00    +0.000 A 
ATOM     14  C   UNL     1      46.352   2.321   7.469  0.00  0.00    +0.000 A 
ATOM     15  C   UNL     1      46.450   3.695   7.328  0.00  0.00    +0.000 A 
ATOM     16  N   UNL     1      45.954   4.582   8.220  0.00  0.00    +0.000 NA
ENDBRANCH  10  11
ENDBRANCH   9  10
ENDBRANCH   8   9
ENDBRANCH   5   8
ENDBRANCH   1   2
BRANCH   1  19
ATOM     17  C   UNL     1      50.464   5.884  18.216  0.00  0.00    +0.000 C 
ATOM     18  O   UNL     1      50.006   6.541  19.147  0.00  0.00    +0.000 OA
ATOM     19  N   UNL     1      50.055   6.099  16.925  0.00  0.00    +0.000 N 
ATOM     20  H   UNL     1      50.495   5.601  16.165  0.00  0.00    +0.000 HD
BRANCH  17  28
ATOM     21  C   UNL     1      50.672   2.580  17.285  0.00  0.00    +0.000 A 
ATOM     22  N   UNL     1      50.991   1.295  17.060  0.00  0.00    +0.000 NA
ATOM     23  C   UNL     1      52.136   0.837  17.576  0.00  0.00    +0.000 A 
ATOM     24  N   UNL     1      53.019   1.518  18.303  0.00  0.00    +0.000 NA
ATOM     25  C   UNL     1      52.664   2.801  18.493  0.00  0.00    +0.000 A 
ATOM     26  S   UNL     1      53.670   3.827  19.397  0.00  0.00    +0.000 S 
ATOM     27  C   UNL     1      52.605   5.136  19.190  0.00  0.00    +0.000 A 
ATOM     28  C   UNL     1      51.474   4.829  18.440  0.00  0.00    +0.000 A 
ATOM     29  C   UNL     1      51.516   3.429  18.024  0.00  0.00    +0.000 A 
BRANCH  21  31
ATOM     30  C   UNL     1      48.362   2.906  17.527  0.00  0.00    +0.000 C 
ATOM     31  O   UNL     1      49.519   3.076  16.718  0.00  0.00    +0.000 OA
ENDBRANCH  21  31
ENDBRANCH  17  28
ENDBRANCH   1  19
TORSDOF 8
ENDMDL
MODEL 4
REMARK VINA RESULT:    -6.816      4.843      9.441
REMARK INTER + INTRA:         -11.215
REMARK INTER:                 -10.314
REMARK INTRA:                  -0.901
REMARK UNBOUND:                -1.211
REMARK  Name = 
REMARK  9 active torsions:
REMARK  status: ('A' for Active; 'I' for Inactive)
REMARK    1  A    between atoms: C_1  and  O_2
REMARK    2  A    between atoms: O_2  and  C_3
REMARK    3  A    between atoms: C_10  and  C_11
REMARK    4  A    between atoms: N_13  and  C_14
REMARK    5  A    between atoms: C_14  and  C_15
REMARK    6  A    between atoms: C_18  and  C_19
REMARK    7  A    between atoms: C_19  and  O_20
REMARK    8  A    between atoms: O_20  and  C_21
REMARK    9  A    between atoms: C_21  and  C_22
REMARK                            x       y       z     vdW  Elec       q    Type
REMARK                         _______ _______ _______ _____ _____    ______ ____
ROOT
ATOM      1  C   UNL     1      47.317   3.405  16.844  0.00  0.00    +0.000 C 
ENDROOT
BRANCH   1   2
ATOM      2  C   UNL     1      48.808   3.326  17.075  0.00  0.00    +0.000 A 
ATOM      3  C   UNL     1      49.521   4.440  17.537  0.00  0.00    +0.000 A 
ATOM      4  C   UNL     1      50.883   4.341  17.841  0.00  0.00    +0.000 A 
ATOM      5  C   UNL     1      51.563   3.127  17.680  0.00  0.00    +0.000 A 
ATOM      6  C   UNL     1      50.870   2.031  17.152  0.00  0.00    +0.000 A 
ATOM      7  C   UNL     1      49.508   2.131  16.848  0.00  0.00    +0.000 A 
BRANCH   5   8
ATOM      8  C   UNL     1      53.004   2.997  18.115  0.00  0.00    +0.000 C 
BRANCH   8   9
ATOM      9  O   UNL     1      53.210   1.819  18.898  0.00  0.00    +0.000 OA
BRANCH   9  10
ATOM     10  C   UNL     1      54.566   1.360  18.851  0.00  0.00    +0.000 C 
BRANCH  10  11
ATOM     11  C   UNL     1      54.618  -0.087  18.418  0.00  0.00    +0.000 A 
ATOM     12  C   UNL     1      55.008  -0.413  17.119  0.00  0.00    +0.000 A 
ATOM     13  C   UNL     1      55.088  -1.754  16.754  0.00  0.00    +0.000 A 
ATOM     14  C   UNL     1      54.777  -2.732  17.690  0.00  0.00    +0.000 A 
ATOM     15  C   UNL     1      54.403  -2.326  18.961  0.00  0.00    +0.000 A 
ATOM     16  N   UNL     1      54.323  -1.033  19.346  0.00  0.00    +0.000 NA
ENDBRANCH  10  11
ENDBRANCH   9  10
ENDBRANCH   8   9
ENDBRANCH   5   8
ENDBRANCH   1   2
BRANCH   1  19
ATOM     17  C   UNL     1      46.902   4.236  14.562  0.00  0.00    +0.000 C 
ATOM     18  O   UNL     1      47.159   3.138  14.076  0.00  0.00    +0.000 OA
ATOM     19  N   UNL     1      46.964   4.447  15.915  0.00  0.00    +0.000 N 
ATOM     20  H   UNL     1      46.822   5.373  16.290  0.00  0.00    +0.000 HD
BRANCH  17  28
ATOM     21  C   UNL     1      44.093   4.954  12.713  0.00  0.00    +0.000 A 
ATOM     22  N   UNL     1      43.132   5.465  11.926  0.00  0.00    +0.000 NA
ATOM     23  C   UNL     1      43.363   6.648  11.347  0.00  0.00    +0.000 A 
ATOM     24  N   UNL     1      44.457   7.398  11.460  0.00  0.00    +0.000 NA
ATOM     25  C   UNL     1      45.386   6.853  12.266  0.00  0.00    +0.000 A 
ATOM     26  S   UNL     1      46.850   7.669  12.533  0.00  0.00    +0.000 S 
ATOM     27  C   UNL     1      47.411   6.431  13.554  0.00  0.00    +0.000 A 
ATOM     28  C   UNL     1      46.512   5.381  13.715  0.00  0.00    +0.000 A 
ATOM     29  C   UNL     1      45.299   5.641  12.941  0.00  0.00    +0.000 A 
BRANCH  21  31
ATOM     30  C   UNL     1      43.616   2.671  12.469  0.00  0.00    +0.000 C 
ATOM     31  O   UNL     1      43.846   3.760  13.354  0.00  0.00    +0.000 OA
ENDBRANCH  21  31
ENDBRANCH  17  28
ENDBRANCH   1  19
TORSDOF 8
ENDMDL
MODEL 5
REMARK VINA RESULT:    -6.815      3.652      5.040
REMARK INTER + INTRA:         -11.214
REMARK INTER:                 -10.176
REMARK INTRA:                  -1.037
REMARK UNBOUND:                -1.211
REMARK  Name = 
REMARK  9 active torsions:
REMARK  status: ('A' for Active; 'I' for Inactive)
REMARK    1  A    between atoms: C_1  and  O_2
REMARK    2  A    between atoms: O_2  and  C_3
REMARK    3  A    between atoms: C_10  and  C_11
REMARK    4  A    between atoms: N_13  and  C_14
REMARK    5  A    between atoms: C_14  and  C_15
REMARK    6  A    between atoms: C_18  and  C_19
REMARK    7  A    between atoms: C_19  and  O_20
REMARK    8  A    between atoms: O_20  and  C_21
REMARK    9  A    between atoms: C_21  and  C_22
REMARK                            x       y       z     vdW  Elec       q    Type
REMARK                         _______ _______ _______ _____ _____    ______ ____
ROOT
ATOM      1  C   UNL     1      48.121   6.594  13.948  0.00  0.00    +0.000 C 
ENDROOT
BRANCH   1   2
ATOM      2  C   UNL     1      47.042   5.978  13.089  0.00  0.00    +0.000 A 
ATOM      3  C   UNL     1      46.244   4.936  13.580  0.00  0.00    +0.000 A 
ATOM      4  C   UNL     1      45.183   4.430  12.820  0.00  0.00    +0.000 A 
ATOM      5  C   UNL     1      44.904   4.950  11.550  0.00  0.00    +0.000 A 
ATOM      6  C   UNL     1      45.742   5.943  11.029  0.00  0.00    +0.000 A 
ATOM      7  C   UNL     1      46.803   6.449  11.788  0.00  0.00    +0.000 A 
BRANCH   5   8
ATOM      8  C   UNL     1      43.691   4.478  10.784  0.00  0.00    +0.000 C 
BRANCH   8   9
ATOM      9  O   UNL     1      44.051   3.964   9.500  0.00  0.00    +0.000 OA
BRANCH   9  10
ATOM     10  C   UNL     1      44.567   2.629   9.568  0.00  0.00    +0.000 C 
BRANCH  10  11
ATOM     11  C   UNL     1      45.561   2.391   8.455  0.00  0.00    +0.000 A 
ATOM     12  C   UNL     1      45.898   3.428   7.585  0.00  0.00    +0.000 A 
ATOM     13  C   UNL     1      46.845   3.198   6.593  0.00  0.00    +0.000 A 
ATOM     14  C   UNL     1      47.432   1.942   6.493  0.00  0.00    +0.000 A 
ATOM     15  C   UNL     1      47.048   0.967   7.398  0.00  0.00    +0.000 A 
ATOM     16  N   UNL     1      46.135   1.162   8.375  0.00  0.00    +0.000 NA
ENDBRANCH  10  11
ENDBRANCH   9  10
ENDBRANCH   8   9
ENDBRANCH   5   8
ENDBRANCH   1   2
BRANCH   1  19
ATOM     17  C   UNL     1      49.997   8.091  13.387  0.00  0.00    +0.000 C 
ATOM     18  O   UNL     1      49.639   8.913  14.225  0.00  0.00    +0.000 OA
ATOM     19  N   UNL     1      49.298   6.928  13.188  0.00  0.00    +0.000 N 
ATOM     20  H   UNL     1      49.564   6.298  12.445  0.00  0.00    +0.000 HD
BRANCH  17  28
ATOM     21  C   UNL     1      53.317   8.599  14.123  0.00  0.00    +0.000 A 
ATOM     22  N   UNL     1      54.643   8.815  14.138  0.00  0.00    +0.000 NA
ATOM     23  C   UNL     1      55.261   8.977  12.963  0.00  0.00    +0.000 A 
ATOM     24  N   UNL     1      54.708   8.948  11.753  0.00  0.00    +0.000 NA
ATOM     25  C   UNL     1      53.383   8.717  11.786  0.00  0.00    +0.000 A 
ATOM     26  S   UNL     1      52.505   8.644  10.336  0.00  0.00    +0.000 S 
ATOM     27  C   UNL     1      51.052   8.356  11.171  0.00  0.00    +0.000 A 
ATOM     28  C   UNL     1      51.197   8.310  12.555  0.00  0.00    +0.000 A 
ATOM     29  C   UNL     1      52.597   8.526  12.917  0.00  0.00    +0.000 A 
BRANCH  21  31
ATOM     30  C   UNL     1      52.795   7.048  15.803  0.00  0.00    +0.000 C 
ATOM     31  O   UNL     1      52.677   8.382  15.324  0.00  0.00    +0.000 OA
ENDBRANCH  21  31
ENDBRANCH  17  28
ENDBRANCH   1  19
TORSDOF 8
ENDMDL
MODEL 6
REMARK VINA RESULT:    -6.740      2.797      3.431
REMARK INTER + INTRA:         -11.103
REMARK INTER:                 -10.072
REMARK INTRA:                  -1.031
REMARK UNBOUND:                -1.211
REMARK  Name = 
REMARK  9 active torsions:
REMARK  status: ('A' for Active; 'I' for Inactive)
REMARK    1  A    between atoms: C_1  and  O_2
REMARK    2  A    between atoms: O_2  and  C_3
REMARK    3  A    between atoms: C_10  and  C_11
REMARK    4  A    between atoms: N_13  and  C_14
REMARK    5  A    between atoms: C_14  and  C_15
REMARK    6  A    between atoms: C_18  and  C_19
REMARK    7  A    between atoms: C_19  and  O_20
REMARK    8  A    between atoms: O_20  and  C_21
REMARK    9  A    between atoms: C_21  and  C_22
REMARK                            x       y       z     vdW  Elec       q    Type
REMARK                         _______ _______ _______ _____ _____    ______ ____
ROOT
ATOM      1  C   UNL     1      48.268   7.325  14.378  0.00  0.00    +0.000 C 
ENDROOT
BRANCH   1   2
ATOM      2  C   UNL     1      47.315   6.350  13.726  0.00  0.00    +0.000 A 
ATOM      3  C   UNL     1      46.588   6.715  12.585  0.00  0.00    +0.000 A 
ATOM      4  C   UNL     1      45.779   5.783  11.926  0.00  0.00    +0.000 A 
ATOM      5  C   UNL     1      45.673   4.469  12.400  0.00  0.00    +0.000 A 
ATOM      6  C   UNL     1      46.343   4.121  13.579  0.00  0.00    +0.000 A 
ATOM      7  C   UNL     1      47.152   5.054  14.238  0.00  0.00    +0.000 A 
BRANCH   5   8
ATOM      8  C   UNL     1      44.888   3.440  11.622  0.00  0.00    +0.000 C 
BRANCH   8   9
ATOM      9  O   UNL     1      44.842   3.758  10.230  0.00  0.00    +0.000 OA
BRANCH   9  10
ATOM     10  C   UNL     1      44.490   2.630   9.420  0.00  0.00    +0.000 C 
BRANCH  10  11
ATOM     11  C   UNL     1      45.565   2.363   8.392  0.00  0.00    +0.000 A 
ATOM     12  C   UNL     1      46.022   3.396   7.574  0.00  0.00    +0.000 A 
ATOM     13  C   UNL     1      47.041   3.137   6.662  0.00  0.00    +0.000 A 
ATOM     14  C   UNL     1      47.577   1.858   6.590  0.00  0.00    +0.000 A 
ATOM     15  C   UNL     1      47.073   0.888   7.440  0.00  0.00    +0.000 A 
ATOM     16  N   UNL     1      46.089   1.111   8.339  0.00  0.00    +0.000 NA
ENDBRANCH  10  11
ENDBRANCH   9  10
ENDBRANCH   8   9
ENDBRANCH   5   8
ENDBRANCH   1   2
BRANCH   1  19
ATOM     17  C   UNL     1      49.457   6.644  16.426  0.00  0.00    +0.000 C 
ATOM     18  O   UNL     1      48.635   7.214  17.137  0.00  0.00    +0.000 OA
ATOM     19  N   UNL     1      49.347   6.659  15.059  0.00  0.00    +0.000 N 
ATOM     20  H   UNL     1      50.072   6.248  14.489  0.00  0.00    +0.000 HD
BRANCH  17  28
ATOM     21  C   UNL     1      52.854   6.784  15.908  0.00  0.00    +0.000 A 
ATOM     22  N   UNL     1      54.189   6.638  15.893  0.00  0.00    +0.000 NA
ATOM     23  C   UNL     1      54.724   5.712  16.696  0.00  0.00    +0.000 A 
ATOM     24  N   UNL     1      54.077   4.899  17.528  0.00  0.00    +0.000 NA
ATOM     25  C   UNL     1      52.745   5.089  17.518  0.00  0.00    +0.000 A 
ATOM     26  S   UNL     1      51.753   4.142  18.518  0.00  0.00    +0.000 S 
ATOM     27  C   UNL     1      50.353   4.926  17.955  0.00  0.00    +0.000 A 
ATOM     28  C   UNL     1      50.602   5.912  17.005  0.00  0.00    +0.000 A 
ATOM     29  C   UNL     1      52.038   6.006  16.749  0.00  0.00    +0.000 A 
BRANCH  21  31
ATOM     30  C   UNL     1      53.210   8.358  14.206  0.00  0.00    +0.000 C 
ATOM     31  O   UNL     1      52.296   7.768  15.122  0.00  0.00    +0.000 OA
ENDBRANCH  21  31
ENDBRANCH  17  28
ENDBRANCH   1  19
TORSDOF 8
ENDMDL
MODEL 7
REMARK VINA RESULT:    -6.581      1.679      2.121
REMARK INTER + INTRA:         -10.871
REMARK INTER:                  -9.595
REMARK INTRA:                  -1.276
REMARK UNBOUND:                -1.211
REMARK  Name = 
REMARK  9 active torsions:
REMARK  status: ('A' for Active; 'I' for Inactive)
REMARK    1  A    between atoms: C_1  and  O_2
REMARK    2  A    between atoms: O_2  and  C_3
REMARK    3  A    between atoms: C_10  and  C_11
REMARK    4  A    between atoms: N_13  and  C_14
REMARK    5  A    between atoms: C_14  and  C_15
REMARK    6  A    between atoms: C_18  and  C_19
REMARK    7  A    between atoms: C_19  and  O_20
REMARK    8  A    between atoms: O_20  and  C_21
REMARK    9  A    between atoms: C_21  and  C_22
REMARK                            x       y       z     vdW  Elec       q    Type
REMARK                         _______ _______ _______ _____ _____    ______ ____
ROOT
ATOM      1  C   UNL     1      49.242   8.135  13.712  0.00  0.00    +0.000 C 
ENDROOT
BRANCH   1   2
ATOM      2  C   UNL     1      47.938   7.646  13.130  0.00  0.00    +0.000 A 
ATOM      3  C   UNL     1      47.800   6.320  12.694  0.00  0.00    +0.000 A 
ATOM      4  C   UNL     1      46.565   5.841  12.244  0.00  0.00    +0.000 A 
ATOM      5  C   UNL     1      45.444   6.679  12.211  0.00  0.00    +0.000 A 
ATOM      6  C   UNL     1      45.594   8.022  12.579  0.00  0.00    +0.000 A 
ATOM      7  C   UNL     1      46.830   8.501  13.030  0.00  0.00    +0.000 A 
BRANCH   5   8
ATOM      8  C   UNL     1      44.090   6.127  11.830  0.00  0.00    +0.000 C 
BRANCH   8   9
ATOM      9  O   UNL     1      44.188   4.781  11.359  0.00  0.00    +0.000 OA
BRANCH   9  10
ATOM     10  C   UNL     1      43.701   4.633  10.019  0.00  0.00    +0.000 C 
BRANCH  10  11
ATOM     11  C   UNL     1      44.631   3.752   9.216  0.00  0.00    +0.000 A 
ATOM     12  C   UNL     1      45.508   4.321   8.293  0.00  0.00    +0.000 A 
ATOM     13  C   UNL     1      46.383   3.495   7.594  0.00  0.00    +0.000 A 
ATOM     14  C   UNL     1      46.361   2.127   7.833  0.00  0.00    +0.000 A 
ATOM     15  C   UNL     1      45.464   1.640   8.769  0.00  0.00    +0.000 A 
ATOM     16  N   UNL     1      44.607   2.418   9.467  0.00  0.00    +0.000 NA
ENDBRANCH  10  11
ENDBRANCH   9  10
ENDBRANCH   8   9
ENDBRANCH   5   8
ENDBRANCH   1   2
BRANCH   1  19
ATOM     17  C   UNL     1      50.712   7.460  15.571  0.00  0.00    +0.000 C 
ATOM     18  O   UNL     1      51.719   7.688  14.906  0.00  0.00    +0.000 OA
ATOM     19  N   UNL     1      49.458   7.651  15.050  0.00  0.00    +0.000 N 
ATOM     20  H   UNL     1      48.643   7.388  15.586  0.00  0.00    +0.000 HD
BRANCH  17  28
ATOM     21  C   UNL     1      49.043   5.023  17.331  0.00  0.00    +0.000 A 
ATOM     22  N   UNL     1      48.549   4.153  18.228  0.00  0.00    +0.000 NA
ATOM     23  C   UNL     1      49.049   4.185  19.468  0.00  0.00    +0.000 A 
ATOM     24  N   UNL     1      49.999   4.994  19.931  0.00  0.00    +0.000 NA
ATOM     25  C   UNL     1      50.471   5.839  18.996  0.00  0.00    +0.000 A 
ATOM     26  S   UNL     1      51.691   6.947  19.403  0.00  0.00    +0.000 S 
ATOM     27  C   UNL     1      51.710   7.581  17.825  0.00  0.00    +0.000 A 
ATOM     28  C   UNL     1      50.802   6.974  16.963  0.00  0.00    +0.000 A 
ATOM     29  C   UNL     1      50.063   5.931  17.670  0.00  0.00    +0.000 A 
BRANCH  21  31
ATOM     30  C   UNL     1      47.265   4.415  15.928  0.00  0.00    +0.000 C 
ATOM     31  O   UNL     1      48.571   4.967  16.038  0.00  0.00    +0.000 OA
ENDBRANCH  21  31
ENDBRANCH  17  28
ENDBRANCH   1  19
TORSDOF 8
ENDMDL
MODEL 8
REMARK VINA RESULT:    -6.505      3.620      5.812
REMARK INTER + INTRA:         -10.759
REMARK INTER:                  -9.789
REMARK INTRA:                  -0.969
REMARK UNBOUND:                -1.211
REMARK  Name = 
REMARK  9 active torsions:
REMARK  status: ('A' for Active; 'I' for Inactive)
REMARK    1  A    between atoms: C_1  and  O_2
REMARK    2  A    between atoms: O_2  and  C_3
REMARK    3  A    between atoms: C_10  and  C_11
REMARK    4  A    between atoms: N_13  and  C_14
REMARK    5  A    between atoms: C_14  and  C_15
REMARK    6  A    between atoms: C_18  and  C_19
REMARK    7  A    between atoms: C_19  and  O_20
REMARK    8  A    between atoms: O_20  and  C_21
REMARK    9  A    between atoms: C_21  and  C_22
REMARK                            x       y       z     vdW  Elec       q    Type
REMARK                         _______ _______ _______ _____ _____    ______ ____
ROOT
ATOM      1  C   UNL     1      48.128   6.620  13.995  0.00  0.00    +0.000 C 
ENDROOT
BRANCH   1   2
ATOM      2  C   UNL     1      47.054   5.978  13.148  0.00  0.00    +0.000 A 
ATOM      3  C   UNL     1      46.369   4.843  13.600  0.00  0.00    +0.000 A 
ATOM      4  C   UNL     1      45.310   4.305  12.859  0.00  0.00    +0.000 A 
ATOM      5  C   UNL     1      44.922   4.886  11.645  0.00  0.00    +0.000 A 
ATOM      6  C   UNL     1      45.650   5.978  11.157  0.00  0.00    +0.000 A 
ATOM      7  C   UNL     1      46.708   6.515  11.898  0.00  0.00    +0.000 A 
BRANCH   5   8
ATOM      8  C   UNL     1      43.710   4.370  10.907  0.00  0.00    +0.000 C 
BRANCH   8   9
ATOM      9  O   UNL     1      44.023   4.038   9.553  0.00  0.00    +0.000 OA
BRANCH   9  10
ATOM     10  C   UNL     1      44.498   2.693   9.414  0.00  0.00    +0.000 C 
BRANCH  10  11
ATOM     11  C   UNL     1      45.554   2.616   8.335  0.00  0.00    +0.000 A 
ATOM     12  C   UNL     1      46.254   1.428   8.127  0.00  0.00    +0.000 A 
ATOM     13  C   UNL     1      47.193   1.368   7.102  0.00  0.00    +0.000 A 
ATOM     14  C   UNL     1      47.409   2.491   6.312  0.00  0.00    +0.000 A 
ATOM     15  C   UNL     1      46.669   3.630   6.579  0.00  0.00    +0.000 A 
ATOM     16  N   UNL     1      45.747   3.717   7.564  0.00  0.00    +0.000 NA
ENDBRANCH  10  11
ENDBRANCH   9  10
ENDBRANCH   8   9
ENDBRANCH   5   8
ENDBRANCH   1   2
BRANCH   1  19
ATOM     17  C   UNL     1      49.920   8.285  13.700  0.00  0.00    +0.000 C 
ATOM     18  O   UNL     1      49.809   8.665  14.862  0.00  0.00    +0.000 OA
ATOM     19  N   UNL     1      49.124   7.287  13.198  0.00  0.00    +0.000 N 
ATOM     20  H   UNL     1      49.179   7.040  12.221  0.00  0.00    +0.000 HD
BRANCH  17  28
ATOM     21  C   UNL     1      49.698  10.530  11.104  0.00  0.00    +0.000 A 
ATOM     22  N   UNL     1      49.883  11.368  10.071  0.00  0.00    +0.000 NA
ATOM     23  C   UNL     1      51.126  11.512   9.600  0.00  0.00    +0.000 A 
ATOM     24  N   UNL     1      52.228  10.910  10.042  0.00  0.00    +0.000 NA
ATOM     25  C   UNL     1      51.997  10.090  11.083  0.00  0.00    +0.000 A 
ATOM     26  S   UNL     1      53.286   9.236  11.783  0.00  0.00    +0.000 S 
ATOM     27  C   UNL     1      52.250   8.500  12.913  0.00  0.00    +0.000 A 
ATOM     28  C   UNL     1      50.917   8.880  12.786  0.00  0.00    +0.000 A 
ATOM     29  C   UNL     1      50.772   9.834  11.689  0.00  0.00    +0.000 A 
BRANCH  21  31
ATOM     30  C   UNL     1      47.464  11.233  10.988  0.00  0.00    +0.000 C 
ATOM     31  O   UNL     1      48.430  10.411  11.630  0.00  0.00    +0.000 OA
ENDBRANCH  21  31
ENDBRANCH  17  28
ENDBRANCH   1  19
TORSDOF 8
ENDMDL
